118063735
  -OEChem-02232406503D

 57 61  0     0  0  0  0  0  0999 V2000
    7.2633   -3.0843    0.6347 Cl  0  0  0  0  0  0  0  0  0  0  0  0
    3.7617    1.6477    0.9199 O   0  0  0  0  0  0  0  0  0  0  0  0
   -0.2139    1.7123   -2.5579 O   0  0  0  0  0  0  0  0  0  0  0  0
   -5.3796   -4.6545   -0.6184 O   0  0  0  0  0  0  0  0  0  0  0  0
   -6.4058   -3.9154    1.2704 O   0  0  0  0  0  0  0  0  0  0  0  0
    2.1919   -1.4941   -1.3130 N   0  0  0  0  0  0  0  0  0  0  0  0
   -1.3247    0.9722   -0.6390 N   0  0  0  0  0  0  0  0  0  0  0  0
    0.9977   -1.0470   -1.7529 N   0  0  0  0  0  0  0  0  0  0  0  0
    2.0710    0.5382   -0.5178 C   0  0  0  0  0  0  0  0  0  0  0  0
    2.8655   -0.5752   -0.5700 C   0  0  0  0  0  0  0  0  0  0  0  0
    0.9307    0.1973   -1.2628 C   0  0  0  0  0  0  0  0  0  0  0  0
    4.1470   -0.6380    0.0818 C   0  0  0  0  0  0  0  0  0  0  0  0
    2.4945    1.7492    0.2114 C   0  0  0  0  0  0  0  0  0  0  0  0
   -0.2234    1.0074   -1.5290 C   0  0  0  0  0  0  0  0  0  0  0  0
    4.5299    0.5085    0.8046 C   0  0  0  0  0  0  0  0  0  0  0  0
   -1.3266    0.1429    0.5644 C   0  0  0  0  0  0  0  0  0  0  0  0
   -2.5287    1.7600   -0.8635 C   0  0  0  0  0  0  0  0  0  0  0  0
    4.9908   -1.7492    0.0284 C   0  0  0  0  0  0  0  0  0  0  0  0
    2.5666   -2.8407   -1.6753 C   0  0  0  0  0  0  0  0  0  0  0  0
   -2.4151   -0.8906    0.5329 C   0  0  0  0  0  0  0  0  0  0  0  0
    5.7567    0.5274    1.4708 C   0  0  0  0  0  0  0  0  0  0  0  0
   -2.4213    3.1331   -0.2659 C   0  0  0  0  0  0  0  0  0  0  0  0
    6.2160   -1.7186    0.6957 C   0  0  0  0  0  0  0  0  0  0  0  0
    6.5975   -0.5847    1.4146 C   0  0  0  0  0  0  0  0  0  0  0  0
   -3.3922   -0.9043    1.5283 C   0  0  0  0  0  0  0  0  0  0  0  0
   -2.4495   -1.8370   -0.4913 C   0  0  0  0  0  0  0  0  0  0  0  0
   -2.8351    3.3571    1.0472 C   0  0  0  0  0  0  0  0  0  0  0  0
   -1.9072    4.1849   -1.0241 C   0  0  0  0  0  0  0  0  0  0  0  0
   -4.4036   -1.8642    1.4995 C   0  0  0  0  0  0  0  0  0  0  0  0
   -3.4610   -2.7969   -0.5201 C   0  0  0  0  0  0  0  0  0  0  0  0
   -4.4381   -2.8105    0.4752 C   0  0  0  0  0  0  0  0  0  0  0  0
   -2.7346    4.6330    1.6022 C   0  0  0  0  0  0  0  0  0  0  0  0
   -1.8066    5.4607   -0.4692 C   0  0  0  0  0  0  0  0  0  0  0  0
   -2.2204    5.6846    0.8439 C   0  0  0  0  0  0  0  0  0  0  0  0
   -5.4931   -3.8112    0.4442 C   0  0  0  0  0  0  0  0  0  0  0  0
    2.5882    2.5901   -0.4845 H   0  0  0  0  0  0  0  0  0  0  0  0
    1.7387    2.0194    0.9569 H   0  0  0  0  0  0  0  0  0  0  0  0
   -1.4424    0.8125    1.4242 H   0  0  0  0  0  0  0  0  0  0  0  0
   -0.3755   -0.3718    0.7219 H   0  0  0  0  0  0  0  0  0  0  0  0
   -3.4231    1.2488   -0.4934 H   0  0  0  0  0  0  0  0  0  0  0  0
   -2.6774    1.8556   -1.9468 H   0  0  0  0  0  0  0  0  0  0  0  0
    4.7417   -2.6484   -0.5168 H   0  0  0  0  0  0  0  0  0  0  0  0
    2.7052   -3.4260   -0.7637 H   0  0  0  0  0  0  0  0  0  0  0  0
    1.7619   -3.2951   -2.2618 H   0  0  0  0  0  0  0  0  0  0  0  0
    3.4679   -2.8018   -2.2907 H   0  0  0  0  0  0  0  0  0  0  0  0
    6.0648    1.4037    2.0350 H   0  0  0  0  0  0  0  0  0  0  0  0
    7.5500   -0.5537    1.9379 H   0  0  0  0  0  0  0  0  0  0  0  0
   -3.3784   -0.1733    2.3322 H   0  0  0  0  0  0  0  0  0  0  0  0
   -1.6972   -1.8426   -1.2739 H   0  0  0  0  0  0  0  0  0  0  0  0
   -3.2426    2.5487    1.6479 H   0  0  0  0  0  0  0  0  0  0  0  0
   -1.5855    4.0290   -2.0499 H   0  0  0  0  0  0  0  0  0  0  0  0
   -5.1558   -1.8578    2.2840 H   0  0  0  0  0  0  0  0  0  0  0  0
   -3.4498   -3.5148   -1.3354 H   0  0  0  0  0  0  0  0  0  0  0  0
   -3.0578    4.8077    2.6243 H   0  0  0  0  0  0  0  0  0  0  0  0
   -1.4073    6.2800   -1.0598 H   0  0  0  0  0  0  0  0  0  0  0  0
   -2.1426    6.6781    1.2758 H   0  0  0  0  0  0  0  0  0  0  0  0
   -6.0956   -5.3251   -0.6301 H   0  0  0  0  0  0  0  0  0  0  0  0
  1 23  1  0  0  0  0
  2 13  1  0  0  0  0
  2 15  1  0  0  0  0
  3 14  2  0  0  0  0
  4 35  1  0  0  0  0
  4 57  1  0  0  0  0
  5 35  2  0  0  0  0
  6  8  1  0  0  0  0
  6 10  1  0  0  0  0
  6 19  1  0  0  0  0
  7 14  1  0  0  0  0
  7 16  1  0  0  0  0
  7 17  1  0  0  0  0
  8 11  2  0  0  0  0
  9 10  2  0  0  0  0
  9 11  1  0  0  0  0
  9 13  1  0  0  0  0
 10 12  1  0  0  0  0
 11 14  1  0  0  0  0
 12 15  2  0  0  0  0
 12 18  1  0  0  0  0
 13 36  1  0  0  0  0
 13 37  1  0  0  0  0
 15 21  1  0  0  0  0
 16 20  1  0  0  0  0
 16 38  1  0  0  0  0
 16 39  1  0  0  0  0
 17 22  1  0  0  0  0
 17 40  1  0  0  0  0
 17 41  1  0  0  0  0
 18 23  2  0  0  0  0
 18 42  1  0  0  0  0
 19 43  1  0  0  0  0
 19 44  1  0  0  0  0
 19 45  1  0  0  0  0
 20 25  2  0  0  0  0
 20 26  1  0  0  0  0
 21 24  2  0  0  0  0
 21 46  1  0  0  0  0
 22 27  2  0  0  0  0
 22 28  1  0  0  0  0
 23 24  1  0  0  0  0
 24 47  1  0  0  0  0
 25 29  1  0  0  0  0
 25 48  1  0  0  0  0
 26 30  2  0  0  0  0
 26 49  1  0  0  0  0
 27 32  1  0  0  0  0
 27 50  1  0  0  0  0
 28 33  2  0  0  0  0
 28 51  1  0  0  0  0
 29 31  2  0  0  0  0
 29 52  1  0  0  0  0
 30 31  1  0  0  0  0
 30 53  1  0  0  0  0
 31 35  1  0  0  0  0
 32 34  2  0  0  0  0
 32 54  1  0  0  0  0
 33 34  1  0  0  0  0
 33 55  1  0  0  0  0
 34 56  1  0  0  0  0
M  END
> <PUBCHEM_COMPOUND_CID>
118063735

> <PUBCHEM_CONFORMER_RMSD>
1

> <PUBCHEM_CONFORMER_DIVERSEORDER>
1
152
70
104
183
190
44
136
173
154
131
55
185
65
25
147
220
184
73
221
231
196
199
222
137
74
94
75
29
174
225
68
172
54
197
219
202
51
80
164
14
89
82
143
160
166
248
66
128
189
144
85
155
100
98
49
108
188
12
237
218
236
126
186
39
224
171
158
245
99
181
161
2
176
7
31
182
247
229
140
207
156
138
107
206
157
28
62
129
139
27
114
18
239
195
201
178
204
135
45
132
61
60
76
71
191
86
187
167
145
232
194
38
227
242
121
93
83
216
110
53
101
59
34
8
159
223
63
177
78
20
50
30
209
84
58
105
214
57
22
243
210
41
162
117
4
6
212
87
233
200
19
146
3
198
134
118
5
88
46
102
69
111
179
116
148
79
244
26
77
120
40
97
234
240
130
10
215
115
193
142
47
151
226
122
228
96
208
163
246
90
149
17
168
109
123
72
165
238
106
213
36
125
113
37
192
64
170
119
230
211
95
9
42
33
32
16
153
235
56
92
13
52
43
127
15
24
23
35
81
91
67
112
150
175
11
141
48
169
217
241
103
203
180
133
124
205
21

> <PUBCHEM_MMFF94_PARTIAL_CHARGES>
48
1 -0.18
10 -0.2
11 0.2
12 0.05
13 0.46
14 0.72
15 0.08
16 0.44
17 0.44
18 -0.15
19 0.26
2 -0.36
20 -0.14
21 -0.15
22 -0.14
23 0.18
24 -0.15
25 -0.15
26 -0.15
27 -0.15
28 -0.15
29 -0.15
3 -0.57
30 -0.15
31 0.09
32 -0.15
33 -0.15
34 -0.15
35 0.63
4 -0.65
42 0.15
46 0.15
47 0.15
48 0.15
49 0.15
5 -0.57
50 0.15
51 0.15
52 0.15
53 0.15
54 0.15
55 0.15
56 0.15
57 0.5
6 0.31
7 -0.66
8 -0.71
9 -0.18

> <PUBCHEM_EFFECTIVE_ROTOR_COUNT>
7.4

> <PUBCHEM_PHARMACOPHORE_FEATURES>
11
1 2 acceptor
1 3 acceptor
1 4 acceptor
1 5 acceptor
1 8 acceptor
3 4 5 35 anion
5 6 8 9 10 11 rings
6 12 15 18 21 23 24 rings
6 2 9 10 12 13 15 rings
6 20 25 26 29 30 31 rings
6 22 27 28 32 33 34 rings

> <PUBCHEM_HEAVY_ATOM_COUNT>
35

> <PUBCHEM_ATOM_DEF_STEREO_COUNT>
0

> <PUBCHEM_ATOM_UDEF_STEREO_COUNT>
0

> <PUBCHEM_BOND_DEF_STEREO_COUNT>
0

> <PUBCHEM_BOND_UDEF_STEREO_COUNT>
0

> <PUBCHEM_ISOTOPIC_ATOM_COUNT>
0

> <PUBCHEM_COMPONENT_COUNT>
1

> <PUBCHEM_CACTVS_TAUTO_COUNT>
1

> <PUBCHEM_CONFORMER_ID>
0709827700000001

> <PUBCHEM_MMFF94_ENERGY>
110.7554

> <PUBCHEM_FEATURE_SELFOVERLAP>
55.992

> <PUBCHEM_SHAPE_FINGERPRINT>
11115154 58 14779809599398129367
11399510 152 18341877599093753970
11552529 35 18335414634668379440
12160290 23 17969525731315429037
12788726 201 18189640339607540365
131258 38 16524747880119896985
13540713 5 17968681361877046132
13692114 37 18050583850608929569
13944108 23 9724316660122108699
14068700 675 18114741637234789007
14178342 30 18335709278014579630
14705955 166 18411410714043586568
14856354 85 18266178323633835156
15183329 4 13118543174070308427
15347590 135 18046609364834483072
15775530 1 18127991718638114774
15950262 2 14905394533849215729
16114785 44 18126847097844690313
17980427 26 17187549560694542741
18603816 31 14996275886470213608
19301679 30 18409739477586428475
19311894 1 18263074414961481584
19315092 285 17243263228034081936
21033648 29 17760661265015241052
23522609 53 17751949947058821964
244849 19 17558565620491489246
32027 91 17902507422622779795
3418910 222 18334574698797470564
3504750 166 18413951680978796067
376196 1 17410762571463714501
3886686 26 17978793411272347834
4073 2 18266172843439888874
4144715 1 18269837502641507210
5104073 3 18265598924298139186
6004065 56 18050848020766953771
6371380 46 17476085622743016166
653340 110 18339084782901804547
6697151 62 18194670700364147727
79837 15 18122351185929048825
9777508 108 18195820561249430109
9896288 288 18338516322743167690
9981440 41 17701807787502667820

> <PUBCHEM_SHAPE_MULTIPOLES>
683.73
14.88
7.43
1.69
21.18
5.24
-0.34
-15.79
7.71
-16.82
1.08
-0.04
0.24
1.07

> <PUBCHEM_SHAPE_SELFOVERLAP>
1504.668

> <PUBCHEM_SHAPE_VOLUME>
368.1

> <PUBCHEM_COORDINATE_TYPE>
2
5
10

$$$$
