25204767
  -OEChem-02232406583D

 64 69  0     0  0  0  0  0  0999 V2000
   -1.4002   -0.6501    2.0985 Cl  0  0  0  0  0  0  0  0  0  0  0  0
   -4.3426   -3.0596   -1.8503 Cl  0  0  0  0  0  0  0  0  0  0  0  0
   -5.7490   -0.5322    1.4628 O   0  0  0  0  0  0  0  0  0  0  0  0
   -2.3913    1.5429   -0.5056 O   0  0  0  0  0  0  0  0  0  0  0  0
    8.4668   -0.5342    0.9869 O   0  0  0  0  0  0  0  0  0  0  0  0
    7.8399    1.6241    0.6476 O   0  0  0  0  0  0  0  0  0  0  0  0
    1.0851    1.6661   -0.8270 N   0  0  0  0  0  0  0  0  0  0  0  0
   -4.7976   -1.5406    1.3688 N   0  0  0  0  0  0  0  0  0  0  0  0
    4.5928   -1.6199    0.2400 N   0  0  0  0  0  0  0  0  0  0  0  0
   -6.2402    1.7536    0.4347 C   0  0  0  0  0  0  0  0  0  0  0  0
   -5.8488    2.9687    1.2232 C   0  0  0  0  0  0  0  0  0  0  0  0
   -7.1012    2.2192    1.5722 C   0  0  0  0  0  0  0  0  0  0  0  0
   -5.4246    0.4713    0.6080 C   0  0  0  0  0  0  0  0  0  0  0  0
   -1.6654    2.3294   -1.4458 C   0  0  0  0  0  0  0  0  0  0  0  0
   -4.2709    0.1539   -0.0589 C   0  0  0  0  0  0  0  0  0  0  0  0
   -0.7581    3.2965   -0.6909 C   0  0  0  0  0  0  0  0  0  0  0  0
   -0.8342    1.4274   -2.3552 C   0  0  0  0  0  0  0  0  0  0  0  0
    0.3559    2.5714    0.0680 C   0  0  0  0  0  0  0  0  0  0  0  0
    0.2737    0.7050   -1.5869 C   0  0  0  0  0  0  0  0  0  0  0  0
   -3.5499    0.9677   -1.0930 C   0  0  0  0  0  0  0  0  0  0  0  0
   -3.9252   -1.1084    0.4538 C   0  0  0  0  0  0  0  0  0  0  0  0
    2.3958    1.2914   -0.5075 C   0  0  0  0  0  0  0  0  0  0  0  0
   -2.7872   -1.9147    0.0979 C   0  0  0  0  0  0  0  0  0  0  0  0
    2.6952   -0.0606   -0.3171 C   0  0  0  0  0  0  0  0  0  0  0  0
    3.3804    2.2697   -0.3837 C   0  0  0  0  0  0  0  0  0  0  0  0
    4.0169   -0.3923    0.0011 C   0  0  0  0  0  0  0  0  0  0  0  0
    5.0241    0.5663    0.1314 C   0  0  0  0  0  0  0  0  0  0  0  0
    4.6985    1.9230   -0.0650 C   0  0  0  0  0  0  0  0  0  0  0  0
    6.2226   -0.1286    0.4565 C   0  0  0  0  0  0  0  0  0  0  0  0
   -1.5874   -1.7744    0.7954 C   0  0  0  0  0  0  0  0  0  0  0  0
   -2.8841   -2.8362   -0.9447 C   0  0  0  0  0  0  0  0  0  0  0  0
    5.9253   -1.4707    0.5164 C   0  0  0  0  0  0  0  0  0  0  0  0
    3.9036   -2.8919    0.2084 C   0  0  0  0  0  0  0  0  0  0  0  0
   -0.4847   -2.5558    0.4504 C   0  0  0  0  0  0  0  0  0  0  0  0
   -1.7813   -3.6175   -1.2897 C   0  0  0  0  0  0  0  0  0  0  0  0
    7.5290    0.4179    0.6916 C   0  0  0  0  0  0  0  0  0  0  0  0
   -0.5816   -3.4774   -0.5921 C   0  0  0  0  0  0  0  0  0  0  0  0
   -6.6312    1.9154   -0.5643 H   0  0  0  0  0  0  0  0  0  0  0  0
   -5.9552    3.9349    0.7453 H   0  0  0  0  0  0  0  0  0  0  0  0
   -5.0139    2.9011    1.9103 H   0  0  0  0  0  0  0  0  0  0  0  0
   -7.1065    1.6587    2.4990 H   0  0  0  0  0  0  0  0  0  0  0  0
   -8.0496    2.6835    1.3292 H   0  0  0  0  0  0  0  0  0  0  0  0
   -2.3654    2.9231   -2.0476 H   0  0  0  0  0  0  0  0  0  0  0  0
   -1.3467    3.8819    0.0252 H   0  0  0  0  0  0  0  0  0  0  0  0
   -0.3078    3.9997   -1.4028 H   0  0  0  0  0  0  0  0  0  0  0  0
   -0.3733    2.0476   -3.1353 H   0  0  0  0  0  0  0  0  0  0  0  0
   -1.4473    0.6827   -2.8709 H   0  0  0  0  0  0  0  0  0  0  0  0
    1.0186    3.3278    0.5039 H   0  0  0  0  0  0  0  0  0  0  0  0
   -0.0630    1.9971    0.9027 H   0  0  0  0  0  0  0  0  0  0  0  0
   -0.1680   -0.0291   -0.9102 H   0  0  0  0  0  0  0  0  0  0  0  0
    0.8839    0.1673   -2.3238 H   0  0  0  0  0  0  0  0  0  0  0  0
   -3.2896    0.3126   -1.9300 H   0  0  0  0  0  0  0  0  0  0  0  0
   -4.2042    1.7599   -1.4747 H   0  0  0  0  0  0  0  0  0  0  0  0
    1.9482   -0.8420   -0.3911 H   0  0  0  0  0  0  0  0  0  0  0  0
    3.1460    3.3195   -0.5453 H   0  0  0  0  0  0  0  0  0  0  0  0
    5.4508    2.7012    0.0235 H   0  0  0  0  0  0  0  0  0  0  0  0
    6.5445   -2.3321    0.7317 H   0  0  0  0  0  0  0  0  0  0  0  0
    3.1434   -2.8901    0.9937 H   0  0  0  0  0  0  0  0  0  0  0  0
    3.4442   -3.0132   -0.7759 H   0  0  0  0  0  0  0  0  0  0  0  0
    4.6168   -3.7012    0.3845 H   0  0  0  0  0  0  0  0  0  0  0  0
    0.4569   -2.4613    0.9851 H   0  0  0  0  0  0  0  0  0  0  0  0
   -1.8387   -4.3404   -2.0996 H   0  0  0  0  0  0  0  0  0  0  0  0
    0.2776   -4.0851   -0.8607 H   0  0  0  0  0  0  0  0  0  0  0  0
    9.3499   -0.1368    1.1438 H   0  0  0  0  0  0  0  0  0  0  0  0
  1 30  1  0  0  0  0
  2 31  1  0  0  0  0
  3  8  1  0  0  0  0
  3 13  1  0  0  0  0
  4 14  1  0  0  0  0
  4 20  1  0  0  0  0
  5 36  1  0  0  0  0
  5 64  1  0  0  0  0
  6 36  2  0  0  0  0
  7 18  1  0  0  0  0
  7 19  1  0  0  0  0
  7 22  1  0  0  0  0
  8 21  2  0  0  0  0
  9 26  1  0  0  0  0
  9 32  1  0  0  0  0
  9 33  1  0  0  0  0
 10 11  1  0  0  0  0
 10 12  1  0  0  0  0
 10 13  1  0  0  0  0
 10 38  1  0  0  0  0
 11 12  1  0  0  0  0
 11 39  1  0  0  0  0
 11 40  1  0  0  0  0
 12 41  1  0  0  0  0
 12 42  1  0  0  0  0
 13 15  2  0  0  0  0
 14 16  1  0  0  0  0
 14 17  1  0  0  0  0
 14 43  1  0  0  0  0
 15 20  1  0  0  0  0
 15 21  1  0  0  0  0
 16 18  1  0  0  0  0
 16 44  1  0  0  0  0
 16 45  1  0  0  0  0
 17 19  1  0  0  0  0
 17 46  1  0  0  0  0
 17 47  1  0  0  0  0
 18 48  1  0  0  0  0
 18 49  1  0  0  0  0
 19 50  1  0  0  0  0
 19 51  1  0  0  0  0
 20 52  1  0  0  0  0
 20 53  1  0  0  0  0
 21 23  1  0  0  0  0
 22 24  2  0  0  0  0
 22 25  1  0  0  0  0
 23 30  2  0  0  0  0
 23 31  1  0  0  0  0
 24 26  1  0  0  0  0
 24 54  1  0  0  0  0
 25 28  2  0  0  0  0
 25 55  1  0  0  0  0
 26 27  2  0  0  0  0
 27 28  1  0  0  0  0
 27 29  1  0  0  0  0
 28 56  1  0  0  0  0
 29 32  2  0  0  0  0
 29 36  1  0  0  0  0
 30 34  1  0  0  0  0
 31 35  2  0  0  0  0
 32 57  1  0  0  0  0
 33 58  1  0  0  0  0
 33 59  1  0  0  0  0
 33 60  1  0  0  0  0
 34 37  2  0  0  0  0
 34 61  1  0  0  0  0
 35 37  1  0  0  0  0
 35 62  1  0  0  0  0
 37 63  1  0  0  0  0
M  END
> <PUBCHEM_COMPOUND_CID>
25204767

> <PUBCHEM_CONFORMER_RMSD>
1

> <PUBCHEM_CONFORMER_DIVERSEORDER>
1
74
158
39
189
136
43
191
143
20
77
35
127
56
135
92
180
126
6
162
66
185
190
134
172
54
50
84
150
202
131
55
128
113
124
206
69
163
51
93
139
170
5
44
204
152
57
103
151
95
28
192
205
144
96
62
110
167
175
114
188
16
179
89
38
104
2
111
178
125
197
59
86
27
194
115
34
161
63
23
60
83
146
107
80
142
61
137
13
87
147
129
165
45
174
160
155
78
36
70
97
32
98
181
71
46
176
106
187
82
99
159
30
52
42
182
184
149
141
101
40
207
119
65
33
109
105
157
53
199
76
81
208
140
195
153
116
200
118
164
193
171
201
112
130
75
186
91
168
10
18
72
196
19
17
90
122
166
183
29
169
94
64
203
133
12
58
79
108
132
73
9
3
198
67
8
31
4
85
102
49
68
177
15
88
25
14
145
26
148
24
121
48
120
37
22
154
117
173
123
11
138
100
7
41
21
47
156

> <PUBCHEM_MMFF94_PARTIAL_CHARGES>
47
1 -0.18
10 -0.01
11 -0.2
12 -0.2
13 0.05
14 0.28
15 -0.18
18 0.37
19 0.37
2 -0.18
20 0.46
21 0.23
22 0.1
23 0.05
24 -0.15
25 -0.15
26 -0.15
28 -0.15
29 -0.09
3 -0.02
30 0.18
31 0.18
32 -0.3
33 0.26
34 -0.15
35 -0.15
36 0.81
37 -0.15
38 0.1
39 0.1
4 -0.56
40 0.1
41 0.1
42 0.1
5 -0.65
54 0.15
55 0.15
56 0.15
57 0.15
6 -0.57
61 0.15
62 0.15
63 0.15
64 0.5
7 -0.84
8 -0.41
9 0.05

> <PUBCHEM_EFFECTIVE_ROTOR_COUNT>
8.8

> <PUBCHEM_PHARMACOPHORE_FEATURES>
12
1 4 acceptor
1 5 acceptor
1 6 acceptor
1 7 cation
1 8 acceptor
1 9 cation
3 5 6 36 anion
5 3 8 13 15 21 rings
5 9 26 27 29 32 rings
6 22 24 25 26 27 28 rings
6 23 30 31 34 35 37 rings
6 7 14 16 17 18 19 rings

> <PUBCHEM_HEAVY_ATOM_COUNT>
37

> <PUBCHEM_ATOM_DEF_STEREO_COUNT>
0

> <PUBCHEM_ATOM_UDEF_STEREO_COUNT>
0

> <PUBCHEM_BOND_DEF_STEREO_COUNT>
0

> <PUBCHEM_BOND_UDEF_STEREO_COUNT>
0

> <PUBCHEM_ISOTOPIC_ATOM_COUNT>
0

> <PUBCHEM_COMPONENT_COUNT>
1

> <PUBCHEM_CACTVS_TAUTO_COUNT>
1

> <PUBCHEM_CONFORMER_ID>
0180981F00000001

> <PUBCHEM_MMFF94_ENERGY>
92.2115

> <PUBCHEM_FEATURE_SELFOVERLAP>
61.048

> <PUBCHEM_SHAPE_FINGERPRINT>
10305334 12 18343582937058926247
10939801 23 18335703858330406232
11135609 12 18113898273874001972
11578080 2 17915727877056165960
12107183 9 18410576192764660792
12422481 6 18187939335253397449
12677640 9 18268149941177123099
13402501 40 18334576819645332822
13811026 1 18187366536818894123
14068700 675 17842825892685435711
14279260 333 17530954753842249426
14394314 77 18410575063420948985
15064986 96 18339657642257186867
15183329 4 18188479268287610746
15274700 242 17459170942199108466
15297060 5 18060137622231151283
15361156 5 18041285456333470684
15420108 30 18342736274693802599
16110190 28 18335424594491674340
16112460 7 18339929203889916952
16994733 274 15625396611063653097
19315958 150 18272094859678558898
20511986 3 18130782399946681242
20721686 56 18260828168271620691
21298829 104 18413390917010039730
21403212 168 18261678078734689633
21987440 362 17975701589392437221
229767 44 18409452487992424815
3383291 50 18041001786396708179
4093350 32 17489027050917177390
463206 1 18190744330960318986
469060 322 16081368510332914278
5028188 123 18200883985085703884

> <PUBCHEM_SHAPE_MULTIPOLES>
726.76
18.7
4.38
1.59
22.38
1.77
0.24
-5.48
-9.1
-3.89
1.1
-1.89
-0.04
-2

> <PUBCHEM_SHAPE_SELFOVERLAP>
1577.865

> <PUBCHEM_SHAPE_VOLUME>
401.1

> <PUBCHEM_COORDINATE_TYPE>
2
5
10

$$$$
