10026128
  -OEChem-02232406443D

 56 59  0     0  0  0  0  0  0999 V2000
   -4.8441   -0.8881    2.8377 F   0  0  0  0  0  0  0  0  0  0  0  0
   -6.5262    0.6048    1.2828 F   0  0  0  0  0  0  0  0  0  0  0  0
    0.3786    3.0340   -0.9540 O   0  0  0  0  0  0  0  0  0  0  0  0
   -2.1877   -2.9803   -1.3918 O   0  0  0  0  0  0  0  0  0  0  0  0
   -0.2320    2.6131    1.2391 O   0  0  0  0  0  0  0  0  0  0  0  0
   -0.8089   -1.1108   -1.0293 N   0  0  0  0  0  0  0  0  0  0  0  0
    2.7331    1.0301    0.4484 N   0  0  0  0  0  0  0  0  0  0  0  0
    1.4976   -2.1922   -0.9093 C   0  0  0  0  0  0  0  0  0  0  0  0
    2.2291   -1.0174   -0.2657 C   0  0  0  0  0  0  0  0  0  0  0  0
    0.3095   -1.6976   -1.7745 C   0  0  0  0  0  0  0  0  0  0  0  0
    1.7093    0.2638   -0.0601 C   0  0  0  0  0  0  0  0  0  0  0  0
    3.5609   -1.0252    0.3037 C   0  0  0  0  0  0  0  0  0  0  0  0
    1.0069   -3.1755    0.1696 C   0  0  0  0  0  0  0  0  0  0  0  0
    2.4173   -2.9550   -1.8969 C   0  0  0  0  0  0  0  0  0  0  0  0
    3.8454    0.2745    0.7113 C   0  0  0  0  0  0  0  0  0  0  0  0
    0.4239    0.8623   -0.2174 C   0  0  0  0  0  0  0  0  0  0  0  0
   -0.6887    0.1931   -0.5669 C   0  0  0  0  0  0  0  0  0  0  0  0
    4.5569   -2.0052    0.5242 C   0  0  0  0  0  0  0  0  0  0  0  0
   -2.0277   -1.8254   -0.9956 C   0  0  0  0  0  0  0  0  0  0  0  0
    5.0632    0.6554    1.2888 C   0  0  0  0  0  0  0  0  0  0  0  0
    0.1430    2.2697    0.1371 C   0  0  0  0  0  0  0  0  0  0  0  0
    5.7809   -1.6465    1.1036 C   0  0  0  0  0  0  0  0  0  0  0  0
    6.0313   -0.3312    1.4750 C   0  0  0  0  0  0  0  0  0  0  0  0
   -3.2138   -1.1840   -0.3946 C   0  0  0  0  0  0  0  0  0  0  0  0
    0.1501    4.4347   -0.7672 C   0  0  0  0  0  0  0  0  0  0  0  0
   -3.4705   -1.3434    0.9633 C   0  0  0  0  0  0  0  0  0  0  0  0
   -4.0662   -0.4264   -1.1910 C   0  0  0  0  0  0  0  0  0  0  0  0
    1.0381    4.9410    0.3591 C   0  0  0  0  0  0  0  0  0  0  0  0
    0.4202    5.1648   -2.0739 C   0  0  0  0  0  0  0  0  0  0  0  0
   -4.5917   -0.7382    1.5309 C   0  0  0  0  0  0  0  0  0  0  0  0
   -5.1875    0.1786   -0.6236 C   0  0  0  0  0  0  0  0  0  0  0  0
   -5.4503    0.0227    0.7375 C   0  0  0  0  0  0  0  0  0  0  0  0
    0.6448   -0.9572   -2.5157 H   0  0  0  0  0  0  0  0  0  0  0  0
   -0.0791   -2.5359   -2.3668 H   0  0  0  0  0  0  0  0  0  0  0  0
    0.4356   -3.9981   -0.2747 H   0  0  0  0  0  0  0  0  0  0  0  0
    1.8461   -3.6167    0.7193 H   0  0  0  0  0  0  0  0  0  0  0  0
    0.3673   -2.6803    0.9090 H   0  0  0  0  0  0  0  0  0  0  0  0
    2.8899   -2.2695   -2.6101 H   0  0  0  0  0  0  0  0  0  0  0  0
    3.2099   -3.5110   -1.3929 H   0  0  0  0  0  0  0  0  0  0  0  0
    1.8519   -3.6976   -2.4730 H   0  0  0  0  0  0  0  0  0  0  0  0
    2.6597    2.0116    0.6774 H   0  0  0  0  0  0  0  0  0  0  0  0
   -1.6321    0.7251   -0.4861 H   0  0  0  0  0  0  0  0  0  0  0  0
    4.3930   -3.0471    0.2711 H   0  0  0  0  0  0  0  0  0  0  0  0
    5.2483    1.6812    1.5904 H   0  0  0  0  0  0  0  0  0  0  0  0
    6.5393   -2.4075    1.2674 H   0  0  0  0  0  0  0  0  0  0  0  0
    6.9856   -0.0693    1.9238 H   0  0  0  0  0  0  0  0  0  0  0  0
   -0.9051    4.5889   -0.5077 H   0  0  0  0  0  0  0  0  0  0  0  0
   -2.8072   -1.9341    1.5894 H   0  0  0  0  0  0  0  0  0  0  0  0
   -3.8696   -0.2994   -2.2522 H   0  0  0  0  0  0  0  0  0  0  0  0
    0.6537    4.7020    1.3534 H   0  0  0  0  0  0  0  0  0  0  0  0
    2.0499    4.5266    0.2871 H   0  0  0  0  0  0  0  0  0  0  0  0
    1.1145    6.0337    0.3271 H   0  0  0  0  0  0  0  0  0  0  0  0
    1.4581    5.0205   -2.3934 H   0  0  0  0  0  0  0  0  0  0  0  0
    0.2267    6.2376   -1.9811 H   0  0  0  0  0  0  0  0  0  0  0  0
   -0.2129    4.7631   -2.8725 H   0  0  0  0  0  0  0  0  0  0  0  0
   -5.8559    0.7715   -1.2409 H   0  0  0  0  0  0  0  0  0  0  0  0
  1 30  1  0  0  0  0
  2 32  1  0  0  0  0
  3 21  1  0  0  0  0
  3 25  1  0  0  0  0
  4 19  2  0  0  0  0
  5 21  2  0  0  0  0
  6 10  1  0  0  0  0
  6 17  1  0  0  0  0
  6 19  1  0  0  0  0
  7 11  1  0  0  0  0
  7 15  1  0  0  0  0
  7 41  1  0  0  0  0
  8  9  1  0  0  0  0
  8 10  1  0  0  0  0
  8 13  1  0  0  0  0
  8 14  1  0  0  0  0
  9 11  2  0  0  0  0
  9 12  1  0  0  0  0
 10 33  1  0  0  0  0
 10 34  1  0  0  0  0
 11 16  1  0  0  0  0
 12 15  1  0  0  0  0
 12 18  2  0  0  0  0
 13 35  1  0  0  0  0
 13 36  1  0  0  0  0
 13 37  1  0  0  0  0
 14 38  1  0  0  0  0
 14 39  1  0  0  0  0
 14 40  1  0  0  0  0
 15 20  2  0  0  0  0
 16 17  2  0  0  0  0
 16 21  1  0  0  0  0
 17 42  1  0  0  0  0
 18 22  1  0  0  0  0
 18 43  1  0  0  0  0
 19 24  1  0  0  0  0
 20 23  1  0  0  0  0
 20 44  1  0  0  0  0
 22 23  2  0  0  0  0
 22 45  1  0  0  0  0
 23 46  1  0  0  0  0
 24 26  2  0  0  0  0
 24 27  1  0  0  0  0
 25 28  1  0  0  0  0
 25 29  1  0  0  0  0
 25 47  1  0  0  0  0
 26 30  1  0  0  0  0
 26 48  1  0  0  0  0
 27 31  2  0  0  0  0
 27 49  1  0  0  0  0
 28 50  1  0  0  0  0
 28 51  1  0  0  0  0
 28 52  1  0  0  0  0
 29 53  1  0  0  0  0
 29 54  1  0  0  0  0
 29 55  1  0  0  0  0
 30 32  2  0  0  0  0
 31 32  1  0  0  0  0
 31 56  1  0  0  0  0
M  END
> <PUBCHEM_COMPOUND_CID>
10026128

> <PUBCHEM_CONFORMER_RMSD>
0.8

> <PUBCHEM_CONFORMER_DIVERSEORDER>
10
47
42
87
73
85
102
67
44
88
83
91
21
92
51
97
63
77
7
50
41
89
66
101
69
98
62
56
58
95
20
80
90
100
70
38
75
45
54
14
99
74
40
84
31
27
57
76
16
25
61
22
86
11
17
60
6
32
3
18
68
59
29
24
43
79
93
78
23
72
48
49
82
36
96
71
34
39
30
28
15
13
53
8
33
55
52
26
94
46
9
12
5
19
81
65
4
64
2
37
35
1

> <PUBCHEM_MMFF94_PARTIAL_CHARGES>
36
1 -0.19
10 0.3
11 -0.2
15 -0.15
16 0.06
17 -0.04
18 -0.15
19 0.54
2 -0.19
20 -0.15
21 0.71
22 -0.15
23 -0.15
24 0.09
25 0.28
26 -0.15
27 -0.15
3 -0.43
30 0.19
31 -0.15
32 0.19
4 -0.57
41 0.27
42 0.15
43 0.15
44 0.15
45 0.15
46 0.15
48 0.15
49 0.15
5 -0.57
56 0.15
6 -0.47
7 0.03
8 0.18
9 -0.18

> <PUBCHEM_EFFECTIVE_ROTOR_COUNT>
5.6

> <PUBCHEM_PHARMACOPHORE_FEATURES>
10
1 4 acceptor
1 5 acceptor
1 7 cation
1 7 donor
3 25 28 29 hydrophobe
3 8 13 14 hydrophobe
5 7 9 11 12 15 rings
6 12 15 18 20 22 23 rings
6 24 26 27 30 31 32 rings
7 6 8 9 10 11 16 17 rings

> <PUBCHEM_HEAVY_ATOM_COUNT>
32

> <PUBCHEM_ATOM_DEF_STEREO_COUNT>
0

> <PUBCHEM_ATOM_UDEF_STEREO_COUNT>
0

> <PUBCHEM_BOND_DEF_STEREO_COUNT>
0

> <PUBCHEM_BOND_UDEF_STEREO_COUNT>
0

> <PUBCHEM_ISOTOPIC_ATOM_COUNT>
0

> <PUBCHEM_COMPONENT_COUNT>
1

> <PUBCHEM_CACTVS_TAUTO_COUNT>
1

> <PUBCHEM_CONFORMER_ID>
0098FC900000000A

> <PUBCHEM_MMFF94_ENERGY>
100.9843

> <PUBCHEM_FEATURE_SELFOVERLAP>
50.863

> <PUBCHEM_SHAPE_FINGERPRINT>
10006869 2 18124300623907591847
10162869 55 18201999955144273567
10653451 467 18265041436948097277
10675989 125 16822186214951376085
10688039 33 18334852771405000676
10906281 52 18341621451148803158
11297750 10 17554630403946446966
11513181 2 16987726697200896975
11828532 37 17241907565416388195
12166972 35 18200581631560790727
12422481 6 18201716198516795866
12633257 1 18336545009978961515
12788726 201 18044075879110102008
12969540 114 10519984868137488666
13140716 1 18125438859292363159
13540713 4 17768805365454458894
13540713 5 17911799386503066735
13583140 156 18186516640443669027
13782708 43 17386297592349096691
14020679 6 18115024233229892403
14790565 3 17473253753600972328
14840074 17 18343581858742552994
14955137 171 18335144219089823294
15081414 286 18342745100091524895
15131766 46 14187285042990910642
15238133 3 18261684705040805743
15463212 79 17042889564855172821
15775530 1 17769377115442156246
15840311 113 17201939029161225563
1601671 61 18272651281192091054
16993438 75 18047175372425109213
17980427 23 17560796675850614941
1813 80 18409739455963314396
18785283 64 18191879022696546845
20511986 3 17346304965522325499
20642791 178 18195809802003127052
20739085 24 18340491161626887960
21033648 29 18263086535606993671
21298829 104 17846500280256796817
21796203 349 18119558589218244360
22182313 1 17843113702691304990
22393880 68 10665494258348402251
23845131 108 17403735549769847368
25223398 141 17034464565396749501
3380486 145 18338220614075403519
350125 39 18272359872736603706
3552219 110 17749117664976847636
392239 28 17489867128760157600
4409770 3 18046886222024952909
44802255 64 12823007694936009784
5104073 3 18198888375133368122
513202 73 18193272997266728250
5951187 136 13897166525789606441
6009941 240 17531237306417653669
6086070 43 17970321855206899967
79837 15 17545873829071426448

> <PUBCHEM_SHAPE_MULTIPOLES>
616.43
11.8
5.28
1.8
4.37
9.57
-0.17
-5.9
-8.01
-1.91
2.78
1.05
-0.19
0.33

> <PUBCHEM_SHAPE_SELFOVERLAP>
1353.291

> <PUBCHEM_SHAPE_VOLUME>
335.6

> <PUBCHEM_COORDINATE_TYPE>
2
5
10

$$$$
