9820008
  -OEChem-02232406463D

 44 46  0     0  0  0  0  0  0999 V2000
   -0.2989    1.3772    2.0605 F   0  0  0  0  0  0  0  0  0  0  0  0
   -2.7596   -1.7572   -1.0728 O   0  0  0  0  0  0  0  0  0  0  0  0
   -5.8365    2.0983   -1.5626 O   0  0  0  0  0  0  0  0  0  0  0  0
   -3.7260    1.3072   -1.9500 O   0  0  0  0  0  0  0  0  0  0  0  0
    6.5397    1.7325    0.2537 O   0  0  0  0  0  0  0  0  0  0  0  0
   -1.9784   -0.1994    0.5113 N   0  0  0  0  0  0  0  0  0  0  0  0
   -6.1592   -0.4527    1.6858 C   0  0  0  0  0  0  0  0  0  0  0  0
   -4.9646   -1.3469    1.3507 C   0  0  0  0  0  0  0  0  0  0  0  0
   -6.4174    0.3935    0.4381 C   0  0  0  0  0  0  0  0  0  0  0  0
   -4.3002   -0.5950    0.2441 C   0  0  0  0  0  0  0  0  0  0  0  0
   -5.0949    0.3566   -0.2551 C   0  0  0  0  0  0  0  0  0  0  0  0
   -2.9463   -0.9200   -0.1836 C   0  0  0  0  0  0  0  0  0  0  0  0
   -4.7838    1.2799   -1.3380 C   0  0  0  0  0  0  0  0  0  0  0  0
   -0.5715   -0.2579    0.3599 C   0  0  0  0  0  0  0  0  0  0  0  0
    2.1780   -0.3752    0.0580 C   0  0  0  0  0  0  0  0  0  0  0  0
    0.2307    0.5460    1.1516 C   0  0  0  0  0  0  0  0  0  0  0  0
   -0.0303   -1.1191   -0.5793 C   0  0  0  0  0  0  0  0  0  0  0  0
    1.6159    0.4869    0.9996 C   0  0  0  0  0  0  0  0  0  0  0  0
    1.3550   -1.1782   -0.7315 C   0  0  0  0  0  0  0  0  0  0  0  0
    3.6150   -0.4367   -0.1002 C   0  0  0  0  0  0  0  0  0  0  0  0
    4.3939    0.6914    0.1570 C   0  0  0  0  0  0  0  0  0  0  0  0
    4.2205   -1.6243   -0.5099 C   0  0  0  0  0  0  0  0  0  0  0  0
    5.7790    0.6316    0.0044 C   0  0  0  0  0  0  0  0  0  0  0  0
    5.6057   -1.6840   -0.6625 C   0  0  0  0  0  0  0  0  0  0  0  0
    6.3850   -0.5560   -0.4055 C   0  0  0  0  0  0  0  0  0  0  0  0
    7.9493    1.6016    0.0760 C   0  0  0  0  0  0  0  0  0  0  0  0
   -5.9045    0.2016    2.5301 H   0  0  0  0  0  0  0  0  0  0  0  0
   -7.0394   -1.0332    1.9804 H   0  0  0  0  0  0  0  0  0  0  0  0
   -4.3152   -1.4765    2.2218 H   0  0  0  0  0  0  0  0  0  0  0  0
   -5.2921   -2.3316    1.0003 H   0  0  0  0  0  0  0  0  0  0  0  0
   -6.7287    1.4026    0.7257 H   0  0  0  0  0  0  0  0  0  0  0  0
   -7.1938   -0.0569   -0.1899 H   0  0  0  0  0  0  0  0  0  0  0  0
   -2.3022    0.4560    1.2205 H   0  0  0  0  0  0  0  0  0  0  0  0
   -0.6011   -1.7641   -1.2307 H   0  0  0  0  0  0  0  0  0  0  0  0
    2.2170    1.1087    1.6571 H   0  0  0  0  0  0  0  0  0  0  0  0
    1.7466   -1.8408   -1.4986 H   0  0  0  0  0  0  0  0  0  0  0  0
   -5.6594    2.7347   -2.2879 H   0  0  0  0  0  0  0  0  0  0  0  0
    3.9580    1.6434    0.4485 H   0  0  0  0  0  0  0  0  0  0  0  0
    3.6585   -2.5363   -0.6915 H   0  0  0  0  0  0  0  0  0  0  0  0
    6.0778   -2.6111   -0.9747 H   0  0  0  0  0  0  0  0  0  0  0  0
    7.4546   -0.6727   -0.5427 H   0  0  0  0  0  0  0  0  0  0  0  0
    8.3764    0.8709    0.7713 H   0  0  0  0  0  0  0  0  0  0  0  0
    8.2049    1.3819   -0.9661 H   0  0  0  0  0  0  0  0  0  0  0  0
    8.3969    2.5714    0.3170 H   0  0  0  0  0  0  0  0  0  0  0  0
  1 16  1  0  0  0  0
  2 12  2  0  0  0  0
  3 13  1  0  0  0  0
  3 37  1  0  0  0  0
  4 13  2  0  0  0  0
  5 23  1  0  0  0  0
  5 26  1  0  0  0  0
  6 12  1  0  0  0  0
  6 14  1  0  0  0  0
  6 33  1  0  0  0  0
  7  8  1  0  0  0  0
  7  9  1  0  0  0  0
  7 27  1  0  0  0  0
  7 28  1  0  0  0  0
  8 10  1  0  0  0  0
  8 29  1  0  0  0  0
  8 30  1  0  0  0  0
  9 11  1  0  0  0  0
  9 31  1  0  0  0  0
  9 32  1  0  0  0  0
 10 11  2  0  0  0  0
 10 12  1  0  0  0  0
 11 13  1  0  0  0  0
 14 16  2  0  0  0  0
 14 17  1  0  0  0  0
 15 18  2  0  0  0  0
 15 19  1  0  0  0  0
 15 20  1  0  0  0  0
 16 18  1  0  0  0  0
 17 19  2  0  0  0  0
 17 34  1  0  0  0  0
 18 35  1  0  0  0  0
 19 36  1  0  0  0  0
 20 21  2  0  0  0  0
 20 22  1  0  0  0  0
 21 23  1  0  0  0  0
 21 38  1  0  0  0  0
 22 24  2  0  0  0  0
 22 39  1  0  0  0  0
 23 25  2  0  0  0  0
 24 25  1  0  0  0  0
 24 40  1  0  0  0  0
 25 41  1  0  0  0  0
 26 42  1  0  0  0  0
 26 43  1  0  0  0  0
 26 44  1  0  0  0  0
M  END
> <PUBCHEM_COMPOUND_CID>
9820008

> <PUBCHEM_CONFORMER_RMSD>
0.8

> <PUBCHEM_CONFORMER_DIVERSEORDER>
1
35
32
8
37
41
31
23
29
40
50
44
48
43
53
11
10
49
18
51
6
13
21
36
46
28
12
4
16
42
30
2
25
38
20
52
17
27
26
33
24
22
14
34
47
3
9
5
45
7
15
39
19

> <PUBCHEM_MMFF94_PARTIAL_CHARGES>
32
1 -0.19
10 -0.12
11 -0.12
12 0.62
13 0.71
14 0.12
16 0.19
17 -0.15
18 -0.15
19 -0.15
2 -0.57
21 -0.15
22 -0.15
23 0.08
24 -0.15
25 -0.15
26 0.28
3 -0.65
33 0.37
34 0.15
35 0.15
36 0.15
37 0.5
38 0.15
39 0.15
4 -0.57
40 0.15
41 0.15
5 -0.36
6 -0.55
8 0.14
9 0.14

> <PUBCHEM_EFFECTIVE_ROTOR_COUNT>
6.6

> <PUBCHEM_PHARMACOPHORE_FEATURES>
9
1 2 acceptor
1 3 acceptor
1 4 acceptor
1 5 acceptor
1 6 donor
3 3 4 13 anion
5 7 8 9 10 11 rings
6 14 15 16 17 18 19 rings
6 20 21 22 23 24 25 rings

> <PUBCHEM_HEAVY_ATOM_COUNT>
26

> <PUBCHEM_ATOM_DEF_STEREO_COUNT>
0

> <PUBCHEM_ATOM_UDEF_STEREO_COUNT>
0

> <PUBCHEM_BOND_DEF_STEREO_COUNT>
0

> <PUBCHEM_BOND_UDEF_STEREO_COUNT>
0

> <PUBCHEM_ISOTOPIC_ATOM_COUNT>
0

> <PUBCHEM_COMPONENT_COUNT>
1

> <PUBCHEM_CACTVS_TAUTO_COUNT>
2

> <PUBCHEM_CONFORMER_ID>
0095D76800000001

> <PUBCHEM_MMFF94_ENERGY>
89.5132

> <PUBCHEM_FEATURE_SELFOVERLAP>
45.726

> <PUBCHEM_SHAPE_FINGERPRINT>
10 15 18259703419283585834
10066227 112 18342735225977808168
10835480 77 18409727344224234716
10906281 52 17346053228382279054
11135926 11 17846781780381098414
11315181 36 10663819693833720727
12236239 1 18202285818559617942
13073987 5 17313098622856053106
13403585 85 17967250901586201349
13533116 47 17703513208317463414
14251764 18 17418378008573350371
14840074 17 16988562389929765836
14856354 85 16128651968704003533
14933364 13 18187087247526603020
15183329 4 17775565333938428654
15276724 80 17775569714958721048
17844677 252 17894921736570890501
18222031 100 15051730898278829402
18927931 339 13614518572188445359
19377110 9 15140954041436337448
20281389 69 18334858311733237012
21033648 29 18336253613384775473
21130935 74 16805316683171235394
21236236 1 17632021836412357633
21267235 1 17988656156013481086
21424621 283 17531245028531702568
21641784 216 18130244674152073040
21792934 111 17846492592122672002
21792961 116 18339081488608939699
21814621 53 17895475825970045522
220451 1 14908187429883696207
23081809 10 16630527306439214110
23198884 109 17022908934522164307
23522609 53 16486434168894041184
23536379 177 17821729412083915898
23559900 14 17774715472096606808
29717793 49 17060345102683569742
3004659 81 18343023268645388174
335352 9 17561083622863437505
3418910 222 17677068935119085444
4073 2 18262806280338061738
4325135 7 17989494030870267904
4340502 62 17967252014347221850
4463277 17 18060706095554284074
5104073 3 17313658252820704314
59755656 520 17775565343409838439
6328613 192 17918279770022997744

> <PUBCHEM_SHAPE_MULTIPOLES>
499.34
20.44
1.74
1.39
10.67
0.17
0.03
5.8
-0.56
0.68
-0.43
-2.27
0.38
2.29

> <PUBCHEM_SHAPE_SELFOVERLAP>
1091.44

> <PUBCHEM_SHAPE_VOLUME>
271.9

> <PUBCHEM_COORDINATE_TYPE>
2
5
10

$$$$
