MODEL 1
REMARK VINA RESULT:      -7.7      0.000      0.000
REMARK  9 active torsions:
REMARK  status: ('A' for Active; 'I' for Inactive)
REMARK    1  A    between atoms: O_1  and  C_7 
REMARK    2  A    between atoms: O_2  and  C_8 
REMARK    3  A    between atoms: O_3  and  C_9 
REMARK    4  A    between atoms: O_4  and  C_10 
REMARK    5  A    between atoms: O_6  and  C_23 
REMARK    6  A    between atoms: C_11  and  C_19 
REMARK    7  A    between atoms: C_12  and  C_26 
REMARK    8  A    between atoms: C_20  and  C_23 
REMARK    9  A    between atoms: C_21  and  C_26 
ROOT
HETATM    1  O   UNK N   1      40.555  45.864  46.021  0.00  0.00    -0.380 OA
HETATM    2  C   UNK N   1      41.414  46.249  47.089  0.00  0.00     0.161 C 
HETATM    3  C   UNK N   1      41.321  47.775  47.257  0.00  0.00     0.049 C 
HETATM    4  C   UNK N   1      39.900  48.004  46.783  0.00  0.00     0.022 C 
HETATM    5  C   UNK N   1      39.800  47.003  45.644  0.00  0.00     0.174 C 
ENDROOT
BRANCH   4   6
HETATM    6  C   UNK N   1      39.534  49.464  46.456  0.00  0.00     0.045 C 
BRANCH   6   7
HETATM    7  C   UNK N   1      39.295  49.697  44.984  0.00  0.00    -0.055 A 
HETATM    8  C   UNK N   1      38.190  49.087  44.373  0.00  0.00     0.046 A 
HETATM    9  C   UNK N   1      37.926  49.274  43.006  0.00  0.00     0.101 A 
HETATM   10  C   UNK N   1      38.775  50.105  42.248  0.00  0.00     0.099 A 
HETATM   11  C   UNK N   1      39.876  50.722  42.861  0.00  0.00     0.040 A 
HETATM   12  C   UNK N   1      40.141  50.514  44.220  0.00  0.00     0.010 A 
BRANCH   9  13
HETATM   13  O   UNK N   1      36.871  48.664  42.396  0.00  0.00    -0.353 OA
HETATM   14  C   UNK N   1      36.201  47.564  42.895  0.00  0.00     0.210 C 
ENDBRANCH   9  13
BRANCH  10  15
HETATM   15  O   UNK N   1      38.550  50.319  40.935  0.00  0.00    -0.358 OA
HETATM   16  H   UNK N   1      38.971  51.042  40.448  0.00  0.00     0.218 HD
ENDBRANCH  10  15
ENDBRANCH   6   7
ENDBRANCH   4   6
BRANCH   3  17
HETATM   17  C   UNK N   1      42.423  48.531  46.466  0.00  0.00     0.172 C 
BRANCH  17  18
HETATM   18  O   UNK N   1      43.706  48.392  47.012  0.00  0.00    -0.400 OA
HETATM   19  H   UNK N   1      44.058  47.519  46.700  0.00  0.00     0.209 HD
ENDBRANCH  17  18
ENDBRANCH   3  17
BRANCH   2  20
HETATM   20  C   UNK N   1      41.054  45.504  48.367  0.00  0.00    -0.026 A 
HETATM   21  C   UNK N   1      41.856  45.571  49.523  0.00  0.00     0.049 A 
HETATM   22  C   UNK N   1      41.478  44.888  50.701  0.00  0.00     0.101 A 
HETATM   23  C   UNK N   1      40.282  44.141  50.713  0.00  0.00     0.099 A 
HETATM   24  C   UNK N   1      39.491  44.076  49.564  0.00  0.00     0.040 A 
HETATM   25  C   UNK N   1      39.871  44.746  48.402  0.00  0.00     0.012 A 
BRANCH  22  26
HETATM   26  O   UNK N   1      42.235  44.932  51.832  0.00  0.00    -0.353 OA
HETATM   27  C   UNK N   1      41.906  45.614  52.984  0.00  0.00     0.210 C 
ENDBRANCH  22  26
BRANCH  23  28
HETATM   28  O   UNK N   1      39.881  43.484  51.821  0.00  0.00    -0.358 OA
HETATM   29  H   UNK N   1      40.289  42.655  52.112  0.00  0.00     0.218 HD
ENDBRANCH  23  28
ENDBRANCH   2  20
TORSDOF 9
ENDMDL
MODEL 2
REMARK VINA RESULT:      -7.0      0.869      8.233
REMARK  9 active torsions:
REMARK  status: ('A' for Active; 'I' for Inactive)
REMARK    1  A    between atoms: O_1  and  C_7 
REMARK    2  A    between atoms: O_2  and  C_8 
REMARK    3  A    between atoms: O_3  and  C_9 
REMARK    4  A    between atoms: O_4  and  C_10 
REMARK    5  A    between atoms: O_6  and  C_23 
REMARK    6  A    between atoms: C_11  and  C_19 
REMARK    7  A    between atoms: C_12  and  C_26 
REMARK    8  A    between atoms: C_20  and  C_23 
REMARK    9  A    between atoms: C_21  and  C_26 
ROOT
HETATM    1  O   UNK N   1      39.156  48.617  46.939  0.00  0.00    -0.380 OA
HETATM    2  C   UNK N   1      40.219  49.095  46.121  0.00  0.00     0.161 C 
HETATM    3  C   UNK N   1      41.315  48.016  46.075  0.00  0.00     0.049 C 
HETATM    4  C   UNK N   1      40.466  46.773  46.249  0.00  0.00     0.022 C 
HETATM    5  C   UNK N   1      39.426  47.259  47.245  0.00  0.00     0.174 C 
ENDROOT
BRANCH   4   6
HETATM    6  C   UNK N   1      41.232  45.489  46.619  0.00  0.00     0.045 C 
BRANCH   6   7
HETATM    7  C   UNK N   1      40.844  44.939  47.969  0.00  0.00    -0.055 A 
HETATM    8  C   UNK N   1      41.734  45.087  49.042  0.00  0.00     0.046 A 
HETATM    9  C   UNK N   1      41.417  44.592  50.318  0.00  0.00     0.101 A 
HETATM   10  C   UNK N   1      40.176  43.957  50.521  0.00  0.00     0.099 A 
HETATM   11  C   UNK N   1      39.282  43.815  49.450  0.00  0.00     0.040 A 
HETATM   12  C   UNK N   1      39.615  44.296  48.178  0.00  0.00     0.010 A 
BRANCH   9  13
HETATM   13  O   UNK N   1      42.287  44.707  51.361  0.00  0.00    -0.353 OA
HETATM   14  C   UNK N   1      42.192  45.650  52.366  0.00  0.00     0.210 C 
ENDBRANCH   9  13
BRANCH  10  15
HETATM   15  O   UNK N   1      39.830  43.477  51.734  0.00  0.00    -0.358 OA
HETATM   16  H   UNK N   1      40.088  42.594  52.034  0.00  0.00     0.218 HD
ENDBRANCH  10  15
ENDBRANCH   6   7
ENDBRANCH   4   6
BRANCH   3  17
HETATM   17  C   UNK N   1      42.414  48.235  47.150  0.00  0.00     0.172 C 
BRANCH  17  18
HETATM   18  O   UNK N   1      43.632  48.689  46.628  0.00  0.00    -0.400 OA
HETATM   19  H   UNK N   1      44.302  48.616  47.356  0.00  0.00     0.209 HD
ENDBRANCH  17  18
ENDBRANCH   3  17
BRANCH   2  20
HETATM   20  C   UNK N   1      39.709  49.461  44.734  0.00  0.00    -0.026 A 
HETATM   21  C   UNK N   1      38.625  48.790  44.135  0.00  0.00     0.049 A 
HETATM   22  C   UNK N   1      38.161  49.174  42.857  0.00  0.00     0.101 A 
HETATM   23  C   UNK N   1      38.788  50.243  42.186  0.00  0.00     0.099 A 
HETATM   24  C   UNK N   1      39.865  50.904  42.783  0.00  0.00     0.040 A 
HETATM   25  C   UNK N   1      40.323  50.518  44.041  0.00  0.00     0.012 A 
BRANCH  22  26
HETATM   26  O   UNK N   1      37.118  48.542  42.251  0.00  0.00    -0.353 OA
HETATM   27  C   UNK N   1      36.232  47.689  42.875  0.00  0.00     0.210 C 
ENDBRANCH  22  26
BRANCH  23  28
HETATM   28  O   UNK N   1      38.368  50.646  40.968  0.00  0.00    -0.358 OA
HETATM   29  H   UNK N   1      38.952  51.084  40.334  0.00  0.00     0.218 HD
ENDBRANCH  23  28
ENDBRANCH   2  20
TORSDOF 9
ENDMDL
MODEL 3
REMARK VINA RESULT:      -6.7      1.548      2.818
REMARK  9 active torsions:
REMARK  status: ('A' for Active; 'I' for Inactive)
REMARK    1  A    between atoms: O_1  and  C_7 
REMARK    2  A    between atoms: O_2  and  C_8 
REMARK    3  A    between atoms: O_3  and  C_9 
REMARK    4  A    between atoms: O_4  and  C_10 
REMARK    5  A    between atoms: O_6  and  C_23 
REMARK    6  A    between atoms: C_11  and  C_19 
REMARK    7  A    between atoms: C_12  and  C_26 
REMARK    8  A    between atoms: C_20  and  C_23 
REMARK    9  A    between atoms: C_21  and  C_26 
ROOT
HETATM    1  O   UNK N   1      39.162  45.790  47.826  0.00  0.00    -0.380 OA
HETATM    2  C   UNK N   1      40.465  45.221  47.894  0.00  0.00     0.161 C 
HETATM    3  C   UNK N   1      41.413  46.082  47.042  0.00  0.00     0.049 C 
HETATM    4  C   UNK N   1      40.737  47.432  47.182  0.00  0.00     0.022 C 
HETATM    5  C   UNK N   1      39.270  47.035  47.157  0.00  0.00     0.174 C 
ENDROOT
BRANCH   4   6
HETATM    6  C   UNK N   1      41.181  48.507  46.173  0.00  0.00     0.045 C 
BRANCH   6   7
HETATM    7  C   UNK N   1      40.123  48.824  45.145  0.00  0.00    -0.055 A 
HETATM    8  C   UNK N   1      40.326  49.905  44.277  0.00  0.00     0.046 A 
HETATM    9  C   UNK N   1      39.370  50.239  43.302  0.00  0.00     0.101 A 
HETATM   10  C   UNK N   1      38.203  49.458  43.187  0.00  0.00     0.099 A 
HETATM   11  C   UNK N   1      38.004  48.371  44.051  0.00  0.00     0.040 A 
HETATM   12  C   UNK N   1      38.953  48.058  45.030  0.00  0.00     0.010 A 
BRANCH   9  13
HETATM   13  O   UNK N   1      39.545  51.305  42.471  0.00  0.00    -0.353 OA
HETATM   14  C   UNK N   1      40.094  52.515  42.847  0.00  0.00     0.210 C 
ENDBRANCH   9  13
BRANCH  10  15
HETATM   15  O   UNK N   1      37.266  49.739  42.258  0.00  0.00    -0.358 OA
HETATM   16  H   UNK N   1      36.318  49.669  42.441  0.00  0.00     0.218 HD
ENDBRANCH  10  15
ENDBRANCH   6   7
ENDBRANCH   4   6
BRANCH   3  17
HETATM   17  C   UNK N   1      41.558  45.552  45.590  0.00  0.00     0.172 C 
BRANCH  17  18
HETATM   18  O   UNK N   1      40.567  44.632  45.223  0.00  0.00    -0.400 OA
HETATM   19  H   UNK N   1      39.780  45.159  44.929  0.00  0.00     0.209 HD
ENDBRANCH  17  18
ENDBRANCH   3  17
BRANCH   2  20
HETATM   20  C   UNK N   1      40.930  45.107  49.339  0.00  0.00    -0.026 A 
HETATM   21  C   UNK N   1      40.501  44.064  50.182  0.00  0.00     0.049 A 
HETATM   22  C   UNK N   1      40.972  43.973  51.512  0.00  0.00     0.101 A 
HETATM   23  C   UNK N   1      41.887  44.935  51.987  0.00  0.00     0.099 A 
HETATM   24  C   UNK N   1      42.308  45.970  51.148  0.00  0.00     0.040 A 
HETATM   25  C   UNK N   1      41.835  46.059  49.840  0.00  0.00     0.012 A 
BRANCH  22  26
HETATM   26  O   UNK N   1      40.573  42.978  52.350  0.00  0.00    -0.353 OA
HETATM   27  C   UNK N   1      39.524  43.059  53.242  0.00  0.00     0.210 C 
ENDBRANCH  22  26
BRANCH  23  28
HETATM   28  O   UNK N   1      42.369  44.878  53.246  0.00  0.00    -0.358 OA
HETATM   29  H   UNK N   1      42.006  44.281  53.916  0.00  0.00     0.218 HD
ENDBRANCH  23  28
ENDBRANCH   2  20
TORSDOF 9
ENDMDL
MODEL 4
REMARK VINA RESULT:      -6.5     16.031     18.493
REMARK  9 active torsions:
REMARK  status: ('A' for Active; 'I' for Inactive)
REMARK    1  A    between atoms: O_1  and  C_7 
REMARK    2  A    between atoms: O_2  and  C_8 
REMARK    3  A    between atoms: O_3  and  C_9 
REMARK    4  A    between atoms: O_4  and  C_10 
REMARK    5  A    between atoms: O_6  and  C_23 
REMARK    6  A    between atoms: C_11  and  C_19 
REMARK    7  A    between atoms: C_12  and  C_26 
REMARK    8  A    between atoms: C_20  and  C_23 
REMARK    9  A    between atoms: C_21  and  C_26 
ROOT
HETATM    1  O   UNK N   1      50.341  31.498  49.128  0.00  0.00    -0.380 OA
HETATM    2  C   UNK N   1      49.983  32.708  48.470  0.00  0.00     0.161 C 
HETATM    3  C   UNK N   1      50.729  32.765  47.125  0.00  0.00     0.049 C 
HETATM    4  C   UNK N   1      50.844  31.283  46.828  0.00  0.00     0.022 C 
HETATM    5  C   UNK N   1      51.097  30.719  48.216  0.00  0.00     0.174 C 
ENDROOT
BRANCH   4   6
HETATM    6  C   UNK N   1      51.855  30.901  45.730  0.00  0.00     0.045 C 
BRANCH   6   7
HETATM    7  C   UNK N   1      51.318  31.107  44.335  0.00  0.00    -0.055 A 
HETATM    8  C   UNK N   1      51.971  32.008  43.485  0.00  0.00     0.046 A 
HETATM    9  C   UNK N   1      51.508  32.234  42.177  0.00  0.00     0.101 A 
HETATM   10  C   UNK N   1      50.384  31.524  41.713  0.00  0.00     0.099 A 
HETATM   11  C   UNK N   1      49.734  30.615  42.562  0.00  0.00     0.040 A 
HETATM   12  C   UNK N   1      50.192  30.412  43.868  0.00  0.00     0.010 A 
BRANCH   9  13
HETATM   13  O   UNK N   1      52.121  33.129  41.351  0.00  0.00    -0.353 OA
HETATM   14  C   UNK N   1      53.468  33.432  41.378  0.00  0.00     0.210 C 
ENDBRANCH   9  13
BRANCH  10  15
HETATM   15  O   UNK N   1      49.915  31.704  40.461  0.00  0.00    -0.358 OA
HETATM   16  H   UNK N   1      50.474  32.026  39.740  0.00  0.00     0.218 HD
ENDBRANCH  10  15
ENDBRANCH   6   7
ENDBRANCH   4   6
BRANCH   3  17
HETATM   17  C   UNK N   1      52.073  33.538  47.220  0.00  0.00     0.172 C 
BRANCH  17  18
HETATM   18  O   UNK N   1      52.013  34.676  48.034  0.00  0.00    -0.400 OA
HETATM   19  H   UNK N   1      52.845  34.687  48.574  0.00  0.00     0.209 HD
ENDBRANCH  17  18
ENDBRANCH   3  17
BRANCH   2  20
HETATM   20  C   UNK N   1      48.474  32.804  48.298  0.00  0.00    -0.026 A 
HETATM   21  C   UNK N   1      47.594  31.879  48.894  0.00  0.00     0.049 A 
HETATM   22  C   UNK N   1      46.196  32.013  48.735  0.00  0.00     0.101 A 
HETATM   23  C   UNK N   1      45.686  33.089  47.981  0.00  0.00     0.099 A 
HETATM   24  C   UNK N   1      46.562  34.002  47.390  0.00  0.00     0.040 A 
HETATM   25  C   UNK N   1      47.940  33.863  47.544  0.00  0.00     0.012 A 
BRANCH  22  26
HETATM   26  O   UNK N   1      45.322  31.133  49.297  0.00  0.00    -0.353 OA
HETATM   27  C   UNK N   1      44.921  29.939  48.734  0.00  0.00     0.210 C 
ENDBRANCH  22  26
BRANCH  23  28
HETATM   28  O   UNK N   1      44.357  33.257  47.816  0.00  0.00    -0.358 OA
HETATM   29  H   UNK N   1      43.986  33.943  47.244  0.00  0.00     0.218 HD
ENDBRANCH  23  28
ENDBRANCH   2  20
TORSDOF 9
ENDMDL
MODEL 5
REMARK VINA RESULT:      -6.3     15.158     17.605
REMARK  9 active torsions:
REMARK  status: ('A' for Active; 'I' for Inactive)
REMARK    1  A    between atoms: O_1  and  C_7 
REMARK    2  A    between atoms: O_2  and  C_8 
REMARK    3  A    between atoms: O_3  and  C_9 
REMARK    4  A    between atoms: O_4  and  C_10 
REMARK    5  A    between atoms: O_6  and  C_23 
REMARK    6  A    between atoms: C_11  and  C_19 
REMARK    7  A    between atoms: C_12  and  C_26 
REMARK    8  A    between atoms: C_20  and  C_23 
REMARK    9  A    between atoms: C_21  and  C_26 
ROOT
HETATM    1  O   UNK N   1      50.939  31.045  51.107  0.00  0.00    -0.380 OA
HETATM    2  C   UNK N   1      51.823  32.160  51.142  0.00  0.00     0.161 C 
HETATM    3  C   UNK N   1      51.855  32.796  49.741  0.00  0.00     0.049 C 
HETATM    4  C   UNK N   1      50.459  32.448  49.265  0.00  0.00     0.022 C 
HETATM    5  C   UNK N   1      50.281  31.057  49.851  0.00  0.00     0.174 C 
ENDROOT
BRANCH   4   6
HETATM    6  C   UNK N   1      50.214  32.599  47.752  0.00  0.00     0.045 C 
BRANCH   6   7
HETATM    7  C   UNK N   1      48.755  32.762  47.403  0.00  0.00    -0.055 A 
HETATM    8  C   UNK N   1      47.942  33.537  48.241  0.00  0.00     0.046 A 
HETATM    9  C   UNK N   1      46.577  33.718  47.958  0.00  0.00     0.101 A 
HETATM   10  C   UNK N   1      46.030  33.129  46.802  0.00  0.00     0.099 A 
HETATM   11  C   UNK N   1      46.846  32.360  45.958  0.00  0.00     0.040 A 
HETATM   12  C   UNK N   1      48.199  32.169  46.259  0.00  0.00     0.010 A 
BRANCH   9  13
HETATM   13  O   UNK N   1      45.772  34.447  48.782  0.00  0.00    -0.353 OA
HETATM   14  C   UNK N   1      45.324  34.028  50.019  0.00  0.00     0.210 C 
ENDBRANCH   9  13
BRANCH  10  15
HETATM   15  O   UNK N   1      44.728  33.288  46.489  0.00  0.00    -0.358 OA
HETATM   16  H   UNK N   1      44.333  32.892  45.699  0.00  0.00     0.218 HD
ENDBRANCH  10  15
ENDBRANCH   6   7
ENDBRANCH   4   6
BRANCH   3  17
HETATM   17  C   UNK N   1      53.018  32.254  48.866  0.00  0.00     0.172 C 
BRANCH  17  18
HETATM   18  O   UNK N   1      53.657  33.240  48.104  0.00  0.00    -0.400 OA
HETATM   19  H   UNK N   1      53.543  34.097  48.589  0.00  0.00     0.209 HD
ENDBRANCH  17  18
ENDBRANCH   3  17
BRANCH   2  20
HETATM   20  C   UNK N   1      51.399  33.151  52.217  0.00  0.00    -0.026 A 
HETATM   21  C   UNK N   1      50.086  33.185  52.726  0.00  0.00     0.049 A 
HETATM   22  C   UNK N   1      49.733  34.101  53.743  0.00  0.00     0.101 A 
HETATM   23  C   UNK N   1      50.712  34.978  54.253  0.00  0.00     0.099 A 
HETATM   24  C   UNK N   1      52.012  34.942  53.744  0.00  0.00     0.040 A 
HETATM   25  C   UNK N   1      52.354  34.041  52.737  0.00  0.00     0.012 A 
BRANCH  22  26
HETATM   26  O   UNK N   1      48.472  34.159  54.252  0.00  0.00    -0.353 OA
HETATM   27  C   UNK N   1      47.324  34.365  53.515  0.00  0.00     0.210 C 
ENDBRANCH  22  26
BRANCH  23  28
HETATM   28  O   UNK N   1      50.417  35.859  55.232  0.00  0.00    -0.358 OA
HETATM   29  H   UNK N   1      49.520  35.977  55.574  0.00  0.00     0.218 HD
ENDBRANCH  23  28
ENDBRANCH   2  20
TORSDOF 9
ENDMDL
MODEL 6
REMARK VINA RESULT:      -6.0     13.388     16.014
REMARK  9 active torsions:
REMARK  status: ('A' for Active; 'I' for Inactive)
REMARK    1  A    between atoms: O_1  and  C_7 
REMARK    2  A    between atoms: O_2  and  C_8 
REMARK    3  A    between atoms: O_3  and  C_9 
REMARK    4  A    between atoms: O_4  and  C_10 
REMARK    5  A    between atoms: O_6  and  C_23 
REMARK    6  A    between atoms: C_11  and  C_19 
REMARK    7  A    between atoms: C_12  and  C_26 
REMARK    8  A    between atoms: C_20  and  C_23 
REMARK    9  A    between atoms: C_21  and  C_26 
ROOT
HETATM    1  O   UNK N   1      30.689  42.741  60.298  0.00  0.00    -0.380 OA
HETATM    2  C   UNK N   1      31.992  42.849  59.736  0.00  0.00     0.161 C 
HETATM    3  C   UNK N   1      31.917  43.787  58.519  0.00  0.00     0.049 C 
HETATM    4  C   UNK N   1      30.771  44.681  58.948  0.00  0.00     0.022 C 
HETATM    5  C   UNK N   1      29.857  43.683  59.641  0.00  0.00     0.174 C 
ENDROOT
BRANCH   4   6
HETATM    6  C   UNK N   1      30.141  45.539  57.834  0.00  0.00     0.045 C 
BRANCH   6   7
HETATM    7  C   UNK N   1      29.946  46.979  58.238  0.00  0.00    -0.055 A 
HETATM    8  C   UNK N   1      30.200  47.986  57.298  0.00  0.00     0.046 A 
HETATM    9  C   UNK N   1      30.032  49.342  57.627  0.00  0.00     0.101 A 
HETATM   10  C   UNK N   1      29.580  49.687  58.915  0.00  0.00     0.099 A 
HETATM   11  C   UNK N   1      29.317  48.678  59.855  0.00  0.00     0.040 A 
HETATM   12  C   UNK N   1      29.506  47.332  59.523  0.00  0.00     0.010 A 
BRANCH   9  13
HETATM   13  O   UNK N   1      30.303  50.330  56.728  0.00  0.00    -0.353 OA
HETATM   14  C   UNK N   1      31.106  50.183  55.613  0.00  0.00     0.210 C 
ENDBRANCH   9  13
BRANCH  10  15
HETATM   15  O   UNK N   1      29.395  50.976  59.267  0.00  0.00    -0.358 OA
HETATM   16  H   UNK N   1      29.659  51.319  60.133  0.00  0.00     0.218 HD
ENDBRANCH  10  15
ENDBRANCH   6   7
ENDBRANCH   4   6
BRANCH   3  17
HETATM   17  C   UNK N   1      31.707  43.020  57.186  0.00  0.00     0.172 C 
BRANCH  17  18
HETATM   18  O   UNK N   1      32.519  43.475  56.138  0.00  0.00    -0.400 OA
HETATM   19  H   UNK N   1      33.433  43.133  56.313  0.00  0.00     0.209 HD
ENDBRANCH  17  18
ENDBRANCH   3  17
BRANCH   2  20
HETATM   20  C   UNK N   1      32.991  43.333  60.778  0.00  0.00    -0.026 A 
HETATM   21  C   UNK N   1      32.600  43.663  62.091  0.00  0.00     0.049 A 
HETATM   22  C   UNK N   1      33.557  44.085  63.041  0.00  0.00     0.101 A 
HETATM   23  C   UNK N   1      34.914  44.164  62.667  0.00  0.00     0.099 A 
HETATM   24  C   UNK N   1      35.297  43.838  61.363  0.00  0.00     0.040 A 
HETATM   25  C   UNK N   1      34.348  43.429  60.427  0.00  0.00     0.012 A 
BRANCH  22  26
HETATM   26  O   UNK N   1      33.209  44.413  64.316  0.00  0.00    -0.353 OA
HETATM   27  C   UNK N   1      32.922  43.513  65.321  0.00  0.00     0.210 C 
ENDBRANCH  22  26
BRANCH  23  28
HETATM   28  O   UNK N   1      35.860  44.551  63.548  0.00  0.00    -0.358 OA
HETATM   29  H   UNK N   1      36.141  43.996  64.289  0.00  0.00     0.218 HD
ENDBRANCH  23  28
ENDBRANCH   2  20
TORSDOF 9
ENDMDL
MODEL 7
REMARK VINA RESULT:      -5.9     14.506     17.599
REMARK  9 active torsions:
REMARK  status: ('A' for Active; 'I' for Inactive)
REMARK    1  A    between atoms: O_1  and  C_7 
REMARK    2  A    between atoms: O_2  and  C_8 
REMARK    3  A    between atoms: O_3  and  C_9 
REMARK    4  A    between atoms: O_4  and  C_10 
REMARK    5  A    between atoms: O_6  and  C_23 
REMARK    6  A    between atoms: C_11  and  C_19 
REMARK    7  A    between atoms: C_12  and  C_26 
REMARK    8  A    between atoms: C_20  and  C_23 
REMARK    9  A    between atoms: C_21  and  C_26 
ROOT
HETATM    1  O   UNK N   1      32.519  42.607  59.874  0.00  0.00    -0.380 OA
HETATM    2  C   UNK N   1      31.473  43.393  60.437  0.00  0.00     0.161 C 
HETATM    3  C   UNK N   1      31.927  43.879  61.824  0.00  0.00     0.049 C 
HETATM    4  C   UNK N   1      33.425  43.947  61.599  0.00  0.00     0.022 C 
HETATM    5  C   UNK N   1      33.650  42.728  60.720  0.00  0.00     0.174 C 
ENDROOT
BRANCH   4   6
HETATM    6  C   UNK N   1      34.285  44.051  62.873  0.00  0.00     0.045 C 
BRANCH   6   7
HETATM    7  C   UNK N   1      35.323  45.144  62.796  0.00  0.00    -0.055 A 
HETATM    8  C   UNK N   1      35.051  46.379  63.399  0.00  0.00     0.046 A 
HETATM    9  C   UNK N   1      35.986  47.427  63.353  0.00  0.00     0.101 A 
HETATM   10  C   UNK N   1      37.223  47.219  62.711  0.00  0.00     0.099 A 
HETATM   11  C   UNK N   1      37.499  45.979  62.115  0.00  0.00     0.040 A 
HETATM   12  C   UNK N   1      36.552  44.948  62.149  0.00  0.00     0.010 A 
BRANCH   9  13
HETATM   13  O   UNK N   1      35.720  48.641  63.913  0.00  0.00    -0.353 OA
HETATM   14  C   UNK N   1      34.953  49.628  63.325  0.00  0.00     0.210 C 
ENDBRANCH   9  13
BRANCH  10  15
HETATM   15  O   UNK N   1      38.152  48.195  62.656  0.00  0.00    -0.358 OA
HETATM   16  H   UNK N   1      37.920  49.134  62.695  0.00  0.00     0.218 HD
ENDBRANCH  10  15
ENDBRANCH   6   7
ENDBRANCH   4   6
BRANCH   3  17
HETATM   17  C   UNK N   1      31.461  42.939  62.968  0.00  0.00     0.172 C 
BRANCH  17  18
HETATM   18  O   UNK N   1      30.919  41.728  62.519  0.00  0.00    -0.400 OA
HETATM   19  H   UNK N   1      31.308  41.554  61.623  0.00  0.00     0.209 HD
ENDBRANCH  17  18
ENDBRANCH   3  17
BRANCH   2  20
HETATM   20  C   UNK N   1      31.106  44.544  59.511  0.00  0.00    -0.026 A 
HETATM   21  C   UNK N   1      30.313  45.625  59.943  0.00  0.00     0.049 A 
HETATM   22  C   UNK N   1      30.012  46.692  59.065  0.00  0.00     0.101 A 
HETATM   23  C   UNK N   1      30.522  46.669  57.751  0.00  0.00     0.099 A 
HETATM   24  C   UNK N   1      31.306  45.593  57.327  0.00  0.00     0.040 A 
HETATM   25  C   UNK N   1      31.595  44.541  58.194  0.00  0.00     0.012 A 
BRANCH  22  26
HETATM   26  O   UNK N   1      29.246  47.748  59.453  0.00  0.00    -0.353 OA
HETATM   27  C   UNK N   1      29.254  48.321  60.707  0.00  0.00     0.210 C 
ENDBRANCH  22  26
BRANCH  23  28
HETATM   28  O   UNK N   1      30.267  47.673  56.886  0.00  0.00    -0.358 OA
HETATM   29  H   UNK N   1      29.391  47.819  56.501  0.00  0.00     0.218 HD
ENDBRANCH  23  28
ENDBRANCH   2  20
TORSDOF 9
ENDMDL
MODEL 8
REMARK VINA RESULT:      -5.9     13.409     15.579
REMARK  9 active torsions:
REMARK  status: ('A' for Active; 'I' for Inactive)
REMARK    1  A    between atoms: O_1  and  C_7 
REMARK    2  A    between atoms: O_2  and  C_8 
REMARK    3  A    between atoms: O_3  and  C_9 
REMARK    4  A    between atoms: O_4  and  C_10 
REMARK    5  A    between atoms: O_6  and  C_23 
REMARK    6  A    between atoms: C_11  and  C_19 
REMARK    7  A    between atoms: C_12  and  C_26 
REMARK    8  A    between atoms: C_20  and  C_23 
REMARK    9  A    between atoms: C_21  and  C_26 
ROOT
HETATM    1  O   UNK N   1      32.179  43.597  56.813  0.00  0.00    -0.380 OA
HETATM    2  C   UNK N   1      31.031  42.883  57.260  0.00  0.00     0.161 C 
HETATM    3  C   UNK N   1      30.271  43.769  58.262  0.00  0.00     0.049 C 
HETATM    4  C   UNK N   1      30.640  45.140  57.729  0.00  0.00     0.022 C 
HETATM    5  C   UNK N   1      32.085  44.920  57.313  0.00  0.00     0.174 C 
ENDROOT
BRANCH   4   6
HETATM    6  C   UNK N   1      30.365  46.320  58.681  0.00  0.00     0.045 C 
BRANCH   6   7
HETATM    7  C   UNK N   1      29.536  47.408  58.047  0.00  0.00    -0.055 A 
HETATM    8  C   UNK N   1      30.187  48.517  57.489  0.00  0.00     0.046 A 
HETATM    9  C   UNK N   1      29.457  49.556  56.887  0.00  0.00     0.101 A 
HETATM   10  C   UNK N   1      28.053  49.466  56.827  0.00  0.00     0.099 A 
HETATM   11  C   UNK N   1      27.401  48.353  57.379  0.00  0.00     0.040 A 
HETATM   12  C   UNK N   1      28.136  47.332  57.993  0.00  0.00     0.010 A 
BRANCH   9  13
HETATM   13  O   UNK N   1      30.079  50.651  56.365  0.00  0.00    -0.353 OA
HETATM   14  C   UNK N   1      30.438  50.797  55.039  0.00  0.00     0.210 C 
ENDBRANCH   9  13
BRANCH  10  15
HETATM   15  O   UNK N   1      27.317  50.438  56.248  0.00  0.00    -0.358 OA
HETATM   16  H   UNK N   1      27.675  51.020  55.563  0.00  0.00     0.218 HD
ENDBRANCH  10  15
ENDBRANCH   6   7
ENDBRANCH   4   6
BRANCH   3  17
HETATM   17  C   UNK N   1      30.677  43.489  59.734  0.00  0.00     0.172 C 
BRANCH  17  18
HETATM   18  O   UNK N   1      31.840  42.719  59.862  0.00  0.00    -0.400 OA
HETATM   19  H   UNK N   1      32.575  43.236  59.442  0.00  0.00     0.209 HD
ENDBRANCH  17  18
ENDBRANCH   3  17
BRANCH   2  20
HETATM   20  C   UNK N   1      30.163  42.466  56.081  0.00  0.00    -0.026 A 
HETATM   21  C   UNK N   1      28.759  42.585  56.108  0.00  0.00     0.049 A 
HETATM   22  C   UNK N   1      27.984  42.213  54.987  0.00  0.00     0.101 A 
HETATM   23  C   UNK N   1      28.630  41.728  53.831  0.00  0.00     0.099 A 
HETATM   24  C   UNK N   1      30.022  41.610  53.809  0.00  0.00     0.040 A 
HETATM   25  C   UNK N   1      30.782  41.972  54.921  0.00  0.00     0.012 A 
BRANCH  22  26
HETATM   26  O   UNK N   1      26.627  42.315  54.985  0.00  0.00    -0.353 OA
HETATM   27  C   UNK N   1      25.915  43.484  54.818  0.00  0.00     0.210 C 
ENDBRANCH  22  26
BRANCH  23  28
HETATM   28  O   UNK N   1      27.927  41.373  52.736  0.00  0.00    -0.358 OA
HETATM   29  H   UNK N   1      28.060  40.529  52.282  0.00  0.00     0.218 HD
ENDBRANCH  23  28
ENDBRANCH   2  20
TORSDOF 9
ENDMDL
MODEL 9
REMARK VINA RESULT:      -5.9     14.503     17.162
REMARK  9 active torsions:
REMARK  status: ('A' for Active; 'I' for Inactive)
REMARK    1  A    between atoms: O_1  and  C_7 
REMARK    2  A    between atoms: O_2  and  C_8 
REMARK    3  A    between atoms: O_3  and  C_9 
REMARK    4  A    between atoms: O_4  and  C_10 
REMARK    5  A    between atoms: O_6  and  C_23 
REMARK    6  A    between atoms: C_11  and  C_19 
REMARK    7  A    between atoms: C_12  and  C_26 
REMARK    8  A    between atoms: C_20  and  C_23 
REMARK    9  A    between atoms: C_21  and  C_26 
ROOT
HETATM    1  O   UNK N   1      31.960  47.454  64.092  0.00  0.00    -0.380 OA
HETATM    2  C   UNK N   1      32.886  46.373  64.049  0.00  0.00     0.161 C 
HETATM    3  C   UNK N   1      32.282  45.254  63.183  0.00  0.00     0.049 C 
HETATM    4  C   UNK N   1      31.436  46.084  62.237  0.00  0.00     0.022 C 
HETATM    5  C   UNK N   1      30.922  47.168  63.170  0.00  0.00     0.174 C 
ENDROOT
BRANCH   4   6
HETATM    6  C   UNK N   1      30.380  45.305  61.431  0.00  0.00     0.045 C 
BRANCH   6   7
HETATM    7  C   UNK N   1      30.893  44.821  60.098  0.00  0.00    -0.055 A 
HETATM    8  C   UNK N   1      31.859  43.806  60.072  0.00  0.00     0.046 A 
HETATM    9  C   UNK N   1      32.368  43.323  58.854  0.00  0.00     0.101 A 
HETATM   10  C   UNK N   1      31.879  43.855  57.645  0.00  0.00     0.099 A 
HETATM   11  C   UNK N   1      30.906  44.866  57.670  0.00  0.00     0.040 A 
HETATM   12  C   UNK N   1      30.420  45.353  58.888  0.00  0.00     0.010 A 
BRANCH   9  13
HETATM   13  O   UNK N   1      33.327  42.355  58.819  0.00  0.00    -0.353 OA
HETATM   14  C   UNK N   1      33.711  41.587  59.901  0.00  0.00     0.210 C 
ENDBRANCH   9  13
BRANCH  10  15
HETATM   15  O   UNK N   1      32.334  43.410  56.455  0.00  0.00    -0.358 OA
HETATM   16  H   UNK N   1      32.582  44.012  55.738  0.00  0.00     0.218 HD
ENDBRANCH  10  15
ENDBRANCH   6   7
ENDBRANCH   4   6
BRANCH   3  17
HETATM   17  C   UNK N   1      31.512  44.199  64.022  0.00  0.00     0.172 C 
BRANCH  17  18
HETATM   18  O   UNK N   1      31.871  42.876  63.733  0.00  0.00    -0.400 OA
HETATM   19  H   UNK N   1      31.986  42.412  64.602  0.00  0.00     0.209 HD
ENDBRANCH  17  18
ENDBRANCH   3  17
BRANCH   2  20
HETATM   20  C   UNK N   1      34.238  46.841  63.529  0.00  0.00    -0.026 A 
HETATM   21  C   UNK N   1      35.252  45.934  63.162  0.00  0.00     0.049 A 
HETATM   22  C   UNK N   1      36.487  46.402  62.659  0.00  0.00     0.101 A 
HETATM   23  C   UNK N   1      36.694  47.789  62.517  0.00  0.00     0.099 A 
HETATM   24  C   UNK N   1      35.687  48.685  62.885  0.00  0.00     0.040 A 
HETATM   25  C   UNK N   1      34.473  48.219  63.387  0.00  0.00     0.012 A 
BRANCH  22  26
HETATM   26  O   UNK N   1      37.486  45.550  62.299  0.00  0.00    -0.353 OA
HETATM   27  C   UNK N   1      38.454  45.054  63.146  0.00  0.00     0.210 C 
ENDBRANCH  22  26
BRANCH  23  28
HETATM   28  O   UNK N   1      37.855  48.275  62.030  0.00  0.00    -0.358 OA
HETATM   29  H   UNK N   1      38.177  49.163  62.240  0.00  0.00     0.218 HD
ENDBRANCH  23  28
ENDBRANCH   2  20
TORSDOF 9
ENDMDL
