MODEL 1
REMARK VINA RESULT:      -8.0      0.000      0.000
REMARK  6 active torsions:
REMARK  status: ('A' for Active; 'I' for Inactive)
REMARK    1  A    between atoms: O_1  and  C_7 
REMARK    2  A    between atoms: O_2  and  C_8 
REMARK    3  A    between atoms: O_3  and  C_9 
REMARK    4  A    between atoms: O_4  and  C_10 
REMARK    5  A    between atoms: C_11  and  C_19 
REMARK    6  A    between atoms: C_12  and  C_20 
ROOT
HETATM    1  O   UNK N   1      38.830  48.159  47.006  0.00  0.00    -0.380 OA
HETATM    2  O   UNK N   1      42.412  46.990  47.736  0.00  0.00    -0.380 OA
HETATM    3  C   UNK N   1      40.047  48.372  46.300  0.00  0.00     0.161 C 
HETATM    4  C   UNK N   1      41.173  46.713  48.374  0.00  0.00     0.161 C 
HETATM    5  C   UNK N   1      40.194  46.252  47.275  0.00  0.00     0.052 C 
HETATM    6  C   UNK N   1      40.690  46.977  46.111  0.00  0.00     0.052 C 
HETATM    7  C   UNK N   1      38.782  46.789  47.355  0.00  0.00     0.176 C 
HETATM    8  C   UNK N   1      42.188  46.881  46.344  0.00  0.00     0.176 C 
ENDROOT
BRANCH   3   9
HETATM    9  C   UNK N   1      39.786  49.091  44.979  0.00  0.00    -0.026 A 
HETATM   10  C   UNK N   1      38.782  48.652  44.090  0.00  0.00     0.049 A 
HETATM   11  C   UNK N   1      38.514  49.348  42.908  0.00  0.00     0.099 A 
HETATM   12  C   UNK N   1      39.258  50.497  42.590  0.00  0.00     0.098 A 
HETATM   13  C   UNK N   1      40.273  50.928  43.455  0.00  0.00     0.040 A 
HETATM   14  C   UNK N   1      40.537  50.232  44.638  0.00  0.00     0.012 A 
BRANCH  11  15
HETATM   15  O   UNK N   1      37.530  48.907  42.097  0.00  0.00    -0.358 OA
HETATM   16  H   UNK N   1      36.770  48.408  42.426  0.00  0.00     0.218 HD
ENDBRANCH  11  15
BRANCH  12  17
HETATM   17  O   UNK N   1      38.991  51.180  41.456  0.00  0.00    -0.358 OA
HETATM   18  H   UNK N   1      38.474  51.998  41.462  0.00  0.00     0.218 HD
ENDBRANCH  12  17
ENDBRANCH   3   9
BRANCH   4  19
HETATM   19  C   UNK N   1      41.316  45.622  49.414  0.00  0.00    -0.026 A 
HETATM   20  C   UNK N   1      41.779  45.934  50.704  0.00  0.00     0.049 A 
HETATM   21  C   UNK N   1      41.970  44.930  51.656  0.00  0.00     0.099 A 
HETATM   22  C   UNK N   1      41.692  43.591  51.324  0.00  0.00     0.098 A 
HETATM   23  C   UNK N   1      41.226  43.276  50.038  0.00  0.00     0.040 A 
HETATM   24  C   UNK N   1      41.044  44.285  49.086  0.00  0.00     0.012 A 
BRANCH  21  25
HETATM   25  O   UNK N   1      42.431  45.265  52.880  0.00  0.00    -0.358 OA
HETATM   26  H   UNK N   1      43.263  44.922  53.232  0.00  0.00     0.218 HD
ENDBRANCH  21  25
BRANCH  22  27
HETATM   27  O   UNK N   1      41.881  42.617  52.240  0.00  0.00    -0.358 OA
HETATM   28  H   UNK N   1      42.765  42.350  52.527  0.00  0.00     0.218 HD
ENDBRANCH  22  27
ENDBRANCH   4  19
TORSDOF 6
ENDMDL
MODEL 2
REMARK VINA RESULT:      -7.8      0.274      8.552
REMARK  6 active torsions:
REMARK  status: ('A' for Active; 'I' for Inactive)
REMARK    1  A    between atoms: O_1  and  C_7 
REMARK    2  A    between atoms: O_2  and  C_8 
REMARK    3  A    between atoms: O_3  and  C_9 
REMARK    4  A    between atoms: O_4  and  C_10 
REMARK    5  A    between atoms: C_11  and  C_19 
REMARK    6  A    between atoms: C_12  and  C_20 
ROOT
HETATM    1  O   UNK N   1      42.213  47.376  48.137  0.00  0.00    -0.380 OA
HETATM    2  O   UNK N   1      38.592  47.806  46.938  0.00  0.00    -0.380 OA
HETATM    3  C   UNK N   1      41.007  46.748  48.555  0.00  0.00     0.161 C 
HETATM    4  C   UNK N   1      39.819  48.352  46.473  0.00  0.00     0.161 C 
HETATM    5  C   UNK N   1      40.789  47.172  46.266  0.00  0.00     0.052 C 
HETATM    6  C   UNK N   1      40.322  46.223  47.270  0.00  0.00     0.052 C 
HETATM    7  C   UNK N   1      42.216  47.377  46.722  0.00  0.00     0.176 C 
HETATM    8  C   UNK N   1      38.820  46.428  47.167  0.00  0.00     0.176 C 
ENDROOT
BRANCH   3   9
HETATM    9  C   UNK N   1      41.298  45.643  49.567  0.00  0.00    -0.026 A 
HETATM   10  C   UNK N   1      41.804  45.938  50.851  0.00  0.00     0.049 A 
HETATM   11  C   UNK N   1      42.016  44.924  51.790  0.00  0.00     0.099 A 
HETATM   12  C   UNK N   1      41.734  43.590  51.453  0.00  0.00     0.098 A 
HETATM   13  C   UNK N   1      41.253  43.284  50.173  0.00  0.00     0.040 A 
HETATM   14  C   UNK N   1      41.038  44.299  49.237  0.00  0.00     0.012 A 
BRANCH  11  15
HETATM   15  O   UNK N   1      42.480  45.252  53.014  0.00  0.00    -0.358 OA
HETATM   16  H   UNK N   1      41.904  45.584  53.716  0.00  0.00     0.218 HD
ENDBRANCH  11  15
BRANCH  12  17
HETATM   17  O   UNK N   1      41.924  42.610  52.364  0.00  0.00    -0.358 OA
HETATM   18  H   UNK N   1      41.297  42.455  53.085  0.00  0.00     0.218 HD
ENDBRANCH  12  17
ENDBRANCH   3   9
BRANCH   4  19
HETATM   19  C   UNK N   1      39.636  49.093  45.166  0.00  0.00    -0.026 A 
HETATM   20  C   UNK N   1      38.655  48.677  44.249  0.00  0.00     0.049 A 
HETATM   21  C   UNK N   1      38.514  49.316  43.015  0.00  0.00     0.099 A 
HETATM   22  C   UNK N   1      39.360  50.390  42.685  0.00  0.00     0.098 A 
HETATM   23  C   UNK N   1      40.339  50.811  43.598  0.00  0.00     0.040 A 
HETATM   24  C   UNK N   1      40.481  50.163  44.830  0.00  0.00     0.012 A 
BRANCH  21  25
HETATM   25  O   UNK N   1      37.571  48.878  42.154  0.00  0.00    -0.358 OA
HETATM   26  H   UNK N   1      37.779  48.609  41.249  0.00  0.00     0.218 HD
ENDBRANCH  21  25
BRANCH  22  27
HETATM   27  O   UNK N   1      39.231  51.007  41.490  0.00  0.00    -0.358 OA
HETATM   28  H   UNK N   1      39.625  51.873  41.317  0.00  0.00     0.218 HD
ENDBRANCH  22  27
ENDBRANCH   4  19
TORSDOF 6
ENDMDL
MODEL 3
REMARK VINA RESULT:      -6.5      1.273      2.380
REMARK  6 active torsions:
REMARK  status: ('A' for Active; 'I' for Inactive)
REMARK    1  A    between atoms: O_1  and  C_7 
REMARK    2  A    between atoms: O_2  and  C_8 
REMARK    3  A    between atoms: O_3  and  C_9 
REMARK    4  A    between atoms: O_4  and  C_10 
REMARK    5  A    between atoms: C_11  and  C_19 
REMARK    6  A    between atoms: C_12  and  C_20 
ROOT
HETATM    1  O   UNK N   1      41.589  48.133  45.915  0.00  0.00    -0.380 OA
HETATM    2  O   UNK N   1      39.196  45.691  47.659  0.00  0.00    -0.380 OA
HETATM    3  C   UNK N   1      40.229  47.806  45.653  0.00  0.00     0.161 C 
HETATM    4  C   UNK N   1      40.523  46.099  47.960  0.00  0.00     0.161 C 
HETATM    5  C   UNK N   1      40.530  47.640  47.966  0.00  0.00     0.052 C 
HETATM    6  C   UNK N   1      39.480  47.948  47.001  0.00  0.00     0.052 C 
HETATM    7  C   UNK N   1      41.714  48.318  47.313  0.00  0.00     0.176 C 
HETATM    8  C   UNK N   1      38.471  46.863  47.335  0.00  0.00     0.176 C 
ENDROOT
BRANCH   3   9
HETATM    9  C   UNK N   1      39.660  48.706  44.559  0.00  0.00    -0.026 A 
HETATM   10  C   UNK N   1      40.234  49.961  44.268  0.00  0.00     0.049 A 
HETATM   11  C   UNK N   1      39.739  50.754  43.229  0.00  0.00     0.099 A 
HETATM   12  C   UNK N   1      38.647  50.305  42.466  0.00  0.00     0.098 A 
HETATM   13  C   UNK N   1      38.055  49.070  42.763  0.00  0.00     0.040 A 
HETATM   14  C   UNK N   1      38.554  48.277  43.801  0.00  0.00     0.012 A 
BRANCH  11  15
HETATM   15  O   UNK N   1      40.332  51.938  42.969  0.00  0.00    -0.358 OA
HETATM   16  H   UNK N   1      41.049  52.290  43.513  0.00  0.00     0.218 HD
ENDBRANCH  11  15
BRANCH  12  17
HETATM   17  O   UNK N   1      38.177  51.062  41.452  0.00  0.00    -0.358 OA
HETATM   18  H   UNK N   1      37.242  51.305  41.387  0.00  0.00     0.218 HD
ENDBRANCH  12  17
ENDBRANCH   3   9
BRANCH   4  19
HETATM   19  C   UNK N   1      40.968  45.585  49.312  0.00  0.00    -0.026 A 
HETATM   20  C   UNK N   1      40.176  44.658  50.011  0.00  0.00     0.049 A 
HETATM   21  C   UNK N   1      40.547  44.219  51.285  0.00  0.00     0.099 A 
HETATM   22  C   UNK N   1      41.727  44.706  51.874  0.00  0.00     0.098 A 
HETATM   23  C   UNK N   1      42.523  45.629  51.179  0.00  0.00     0.040 A 
HETATM   24  C   UNK N   1      42.143  46.071  49.906  0.00  0.00     0.012 A 
BRANCH  21  25
HETATM   25  O   UNK N   1      39.753  43.339  51.932  0.00  0.00    -0.358 OA
HETATM   26  H   UNK N   1      38.956  43.612  52.406  0.00  0.00     0.218 HD
ENDBRANCH  21  25
BRANCH  22  27
HETATM   27  O   UNK N   1      42.086  44.288  53.107  0.00  0.00    -0.358 OA
HETATM   28  H   UNK N   1      42.359  43.376  53.279  0.00  0.00     0.218 HD
ENDBRANCH  22  27
ENDBRANCH   4  19
TORSDOF 6
ENDMDL
MODEL 4
REMARK VINA RESULT:      -6.5     14.679     16.937
REMARK  6 active torsions:
REMARK  status: ('A' for Active; 'I' for Inactive)
REMARK    1  A    between atoms: O_1  and  C_7 
REMARK    2  A    between atoms: O_2  and  C_8 
REMARK    3  A    between atoms: O_3  and  C_9 
REMARK    4  A    between atoms: O_4  and  C_10 
REMARK    5  A    between atoms: C_11  and  C_19 
REMARK    6  A    between atoms: C_12  and  C_20 
ROOT
HETATM    1  O   UNK N   1      48.094  33.943  50.253  0.00  0.00    -0.380 OA
HETATM    2  O   UNK N   1      47.585  30.573  52.019  0.00  0.00    -0.380 OA
HETATM    3  C   UNK N   1      47.412  32.764  49.842  0.00  0.00     0.161 C 
HETATM    4  C   UNK N   1      48.180  31.791  52.447  0.00  0.00     0.161 C 
HETATM    5  C   UNK N   1      47.163  32.914  52.162  0.00  0.00     0.052 C 
HETATM    6  C   UNK N   1      46.456  32.388  51.000  0.00  0.00     0.052 C 
HETATM    7  C   UNK N   1      47.715  34.201  51.591  0.00  0.00     0.176 C 
HETATM    8  C   UNK N   1      46.377  30.917  51.367  0.00  0.00     0.176 C 
ENDROOT
BRANCH   3   9
HETATM    9  C   UNK N   1      46.685  32.995  48.520  0.00  0.00    -0.026 A 
HETATM   10  C   UNK N   1      47.246  32.588  47.292  0.00  0.00     0.049 A 
HETATM   11  C   UNK N   1      46.548  32.756  46.092  0.00  0.00     0.099 A 
HETATM   12  C   UNK N   1      45.273  33.346  46.102  0.00  0.00     0.098 A 
HETATM   13  C   UNK N   1      44.716  33.774  47.315  0.00  0.00     0.040 A 
HETATM   14  C   UNK N   1      45.414  33.603  48.514  0.00  0.00     0.012 A 
BRANCH  11  15
HETATM   15  O   UNK N   1      47.112  32.333  44.942  0.00  0.00    -0.358 OA
HETATM   16  H   UNK N   1      47.658  32.909  44.389  0.00  0.00     0.218 HD
ENDBRANCH  11  15
BRANCH  12  17
HETATM   17  O   UNK N   1      44.590  33.495  44.947  0.00  0.00    -0.358 OA
HETATM   18  H   UNK N   1      44.257  34.357  44.658  0.00  0.00     0.218 HD
ENDBRANCH  12  17
ENDBRANCH   3   9
BRANCH   4  19
HETATM   19  C   UNK N   1      48.501  31.762  53.926  0.00  0.00    -0.026 A 
HETATM   20  C   UNK N   1      47.523  32.124  54.868  0.00  0.00     0.049 A 
HETATM   21  C   UNK N   1      47.823  32.157  56.232  0.00  0.00     0.099 A 
HETATM   22  C   UNK N   1      49.116  31.819  56.670  0.00  0.00     0.098 A 
HETATM   23  C   UNK N   1      50.095  31.454  55.733  0.00  0.00     0.040 A 
HETATM   24  C   UNK N   1      49.791  31.430  54.367  0.00  0.00     0.012 A 
BRANCH  21  25
HETATM   25  O   UNK N   1      46.862  32.524  57.106  0.00  0.00    -0.358 OA
HETATM   26  H   UNK N   1      46.649  33.451  57.283  0.00  0.00     0.218 HD
ENDBRANCH  21  25
BRANCH  22  27
HETATM   27  O   UNK N   1      49.412  31.855  57.987  0.00  0.00    -0.358 OA
HETATM   28  H   UNK N   1      50.313  32.010  58.305  0.00  0.00     0.218 HD
ENDBRANCH  22  27
ENDBRANCH   4  19
TORSDOF 6
ENDMDL
MODEL 5
REMARK VINA RESULT:      -6.4     14.783     17.321
REMARK  6 active torsions:
REMARK  status: ('A' for Active; 'I' for Inactive)
REMARK    1  A    between atoms: O_1  and  C_7 
REMARK    2  A    between atoms: O_2  and  C_8 
REMARK    3  A    between atoms: O_3  and  C_9 
REMARK    4  A    between atoms: O_4  and  C_10 
REMARK    5  A    between atoms: C_11  and  C_19 
REMARK    6  A    between atoms: C_12  and  C_20 
ROOT
HETATM    1  O   UNK N   1      48.546  32.020  51.217  0.00  0.00    -0.380 OA
HETATM    2  O   UNK N   1      48.125  33.869  54.554  0.00  0.00    -0.380 OA
HETATM    3  C   UNK N   1      47.419  32.671  51.791  0.00  0.00     0.161 C 
HETATM    4  C   UNK N   1      49.260  33.294  53.922  0.00  0.00     0.161 C 
HETATM    5  C   UNK N   1      49.311  33.855  52.488  0.00  0.00     0.052 C 
HETATM    6  C   UNK N   1      47.898  34.084  52.206  0.00  0.00     0.052 C 
HETATM    7  C   UNK N   1      49.659  32.877  51.387  0.00  0.00     0.176 C 
HETATM    8  C   UNK N   1      47.427  34.592  53.558  0.00  0.00     0.176 C 
ENDROOT
BRANCH   3   9
HETATM    9  C   UNK N   1      46.256  32.705  50.803  0.00  0.00    -0.026 A 
HETATM   10  C   UNK N   1      45.565  31.530  50.442  0.00  0.00     0.049 A 
HETATM   11  C   UNK N   1      44.467  31.579  49.578  0.00  0.00     0.099 A 
HETATM   12  C   UNK N   1      44.046  32.811  49.051  0.00  0.00     0.098 A 
HETATM   13  C   UNK N   1      44.740  33.982  49.386  0.00  0.00     0.040 A 
HETATM   14  C   UNK N   1      45.836  33.931  50.252  0.00  0.00     0.012 A 
BRANCH  11  15
HETATM   15  O   UNK N   1      43.820  30.434  49.276  0.00  0.00    -0.358 OA
HETATM   16  H   UNK N   1      43.890  29.638  49.821  0.00  0.00     0.218 HD
ENDBRANCH  11  15
BRANCH  12  17
HETATM   17  O   UNK N   1      42.976  32.864  48.229  0.00  0.00    -0.358 OA
HETATM   18  H   UNK N   1      42.263  32.211  48.277  0.00  0.00     0.218 HD
ENDBRANCH  12  17
ENDBRANCH   3   9
BRANCH   4  19
HETATM   19  C   UNK N   1      50.539  33.648  54.651  0.00  0.00    -0.026 A 
HETATM   20  C   UNK N   1      51.145  34.899  54.445  0.00  0.00     0.049 A 
HETATM   21  C   UNK N   1      52.356  35.217  55.067  0.00  0.00     0.099 A 
HETATM   22  C   UNK N   1      52.974  34.277  55.911  0.00  0.00     0.098 A 
HETATM   23  C   UNK N   1      52.371  33.028  56.122  0.00  0.00     0.040 A 
HETATM   24  C   UNK N   1      51.162  32.712  55.491  0.00  0.00     0.012 A 
BRANCH  21  25
HETATM   25  O   UNK N   1      52.916  36.423  54.833  0.00  0.00    -0.358 OA
HETATM   26  H   UNK N   1      53.866  36.579  54.922  0.00  0.00     0.218 HD
ENDBRANCH  21  25
BRANCH  22  27
HETATM   27  O   UNK N   1      54.147  34.578  56.509  0.00  0.00    -0.358 OA
HETATM   28  H   UNK N   1      54.943  34.784  55.999  0.00  0.00     0.218 HD
ENDBRANCH  22  27
ENDBRANCH   4  19
TORSDOF 6
ENDMDL
MODEL 6
REMARK VINA RESULT:      -6.3     14.783     18.358
REMARK  6 active torsions:
REMARK  status: ('A' for Active; 'I' for Inactive)
REMARK    1  A    between atoms: O_1  and  C_7 
REMARK    2  A    between atoms: O_2  and  C_8 
REMARK    3  A    between atoms: O_3  and  C_9 
REMARK    4  A    between atoms: O_4  and  C_10 
REMARK    5  A    between atoms: C_11  and  C_19 
REMARK    6  A    between atoms: C_12  and  C_20 
ROOT
HETATM    1  O   UNK N   1      48.233  33.969  54.457  0.00  0.00    -0.380 OA
HETATM    2  O   UNK N   1      48.516  31.987  51.183  0.00  0.00    -0.380 OA
HETATM    3  C   UNK N   1      49.357  33.382  53.812  0.00  0.00     0.161 C 
HETATM    4  C   UNK N   1      47.425  32.659  51.796  0.00  0.00     0.161 C 
HETATM    5  C   UNK N   1      47.902  34.088  52.124  0.00  0.00     0.052 C 
HETATM    6  C   UNK N   1      49.328  33.882  52.347  0.00  0.00     0.052 C 
HETATM    7  C   UNK N   1      47.489  34.651  53.465  0.00  0.00     0.176 C 
HETATM    8  C   UNK N   1      49.631  32.854  51.272  0.00  0.00     0.176 C 
ENDROOT
BRANCH   3   9
HETATM    9  C   UNK N   1      50.648  33.748  54.540  0.00  0.00    -0.026 A 
HETATM   10  C   UNK N   1      51.284  34.989  54.329  0.00  0.00     0.049 A 
HETATM   11  C   UNK N   1      52.436  35.337  55.040  0.00  0.00     0.099 A 
HETATM   12  C   UNK N   1      52.980  34.437  55.972  0.00  0.00     0.098 A 
HETATM   13  C   UNK N   1      52.369  33.192  56.172  0.00  0.00     0.040 A 
HETATM   14  C   UNK N   1      51.215  32.848  55.463  0.00  0.00     0.012 A 
BRANCH  11  15
HETATM   15  O   UNK N   1      53.000  36.543  54.824  0.00  0.00    -0.358 OA
HETATM   16  H   UNK N   1      53.718  36.887  55.373  0.00  0.00     0.218 HD
ENDBRANCH  11  15
BRANCH  12  17
HETATM   17  O   UNK N   1      54.084  34.776  56.672  0.00  0.00    -0.358 OA
HETATM   18  H   UNK N   1      54.866  34.206  56.701  0.00  0.00     0.218 HD
ENDBRANCH  12  17
ENDBRANCH   3   9
BRANCH   4  19
HETATM   19  C   UNK N   1      46.225  32.724  50.876  0.00  0.00    -0.026 A 
HETATM   20  C   UNK N   1      45.542  31.547  50.523  0.00  0.00     0.049 A 
HETATM   21  C   UNK N   1      44.469  31.586  49.629  0.00  0.00     0.099 A 
HETATM   22  C   UNK N   1      44.063  32.815  49.078  0.00  0.00     0.098 A 
HETATM   23  C   UNK N   1      44.740  33.993  49.431  0.00  0.00     0.040 A 
HETATM   24  C   UNK N   1      45.819  33.947  50.321  0.00  0.00     0.012 A 
BRANCH  21  25
HETATM   25  O   UNK N   1      43.847  30.434  49.301  0.00  0.00    -0.358 OA
HETATM   26  H   UNK N   1      44.289  29.575  49.345  0.00  0.00     0.218 HD
ENDBRANCH  21  25
BRANCH  22  27
HETATM   27  O   UNK N   1      43.030  32.856  48.210  0.00  0.00    -0.358 OA
HETATM   28  H   UNK N   1      42.111  32.891  48.510  0.00  0.00     0.218 HD
ENDBRANCH  22  27
ENDBRANCH   4  19
TORSDOF 6
ENDMDL
MODEL 7
REMARK VINA RESULT:      -6.1     15.751     18.690
REMARK  6 active torsions:
REMARK  status: ('A' for Active; 'I' for Inactive)
REMARK    1  A    between atoms: O_1  and  C_7 
REMARK    2  A    between atoms: O_2  and  C_8 
REMARK    3  A    between atoms: O_3  and  C_9 
REMARK    4  A    between atoms: O_4  and  C_10 
REMARK    5  A    between atoms: C_11  and  C_19 
REMARK    6  A    between atoms: C_12  and  C_20 
ROOT
HETATM    1  O   UNK N   1      48.968  31.234  43.521  0.00  0.00    -0.380 OA
HETATM    2  O   UNK N   1      49.087  32.547  47.125  0.00  0.00    -0.380 OA
HETATM    3  C   UNK N   1      50.049  31.730  44.301  0.00  0.00     0.161 C 
HETATM    4  C   UNK N   1      48.042  31.964  46.360  0.00  0.00     0.161 C 
HETATM    5  C   UNK N   1      48.591  30.648  45.775  0.00  0.00     0.052 C 
HETATM    6  C   UNK N   1      50.012  30.952  45.639  0.00  0.00     0.052 C 
HETATM    7  C   UNK N   1      48.235  30.341  44.337  0.00  0.00     0.176 C 
HETATM    8  C   UNK N   1      50.242  31.761  46.903  0.00  0.00     0.176 C 
ENDROOT
BRANCH   3   9
HETATM    9  C   UNK N   1      51.371  31.568  43.556  0.00  0.00    -0.026 A 
HETATM   10  C   UNK N   1      52.098  32.686  43.098  0.00  0.00     0.049 A 
HETATM   11  C   UNK N   1      53.334  32.530  42.464  0.00  0.00     0.099 A 
HETATM   12  C   UNK N   1      53.860  31.242  42.268  0.00  0.00     0.098 A 
HETATM   13  C   UNK N   1      53.135  30.123  42.699  0.00  0.00     0.040 A 
HETATM   14  C   UNK N   1      51.901  30.282  43.335  0.00  0.00     0.012 A 
BRANCH  11  15
HETATM   15  O   UNK N   1      54.007  33.628  42.061  0.00  0.00    -0.358 OA
HETATM   16  H   UNK N   1      54.251  34.340  42.668  0.00  0.00     0.218 HD
ENDBRANCH  11  15
BRANCH  12  17
HETATM   17  O   UNK N   1      55.061  31.089  41.669  0.00  0.00    -0.358 OA
HETATM   18  H   UNK N   1      55.595  30.291  41.793  0.00  0.00     0.218 HD
ENDBRANCH  12  17
ENDBRANCH   3   9
BRANCH   4  19
HETATM   19  C   UNK N   1      46.826  31.670  47.213  0.00  0.00    -0.026 A 
HETATM   20  C   UNK N   1      46.117  32.722  47.817  0.00  0.00     0.049 A 
HETATM   21  C   UNK N   1      45.028  32.462  48.654  0.00  0.00     0.099 A 
HETATM   22  C   UNK N   1      44.633  31.133  48.892  0.00  0.00     0.098 A 
HETATM   23  C   UNK N   1      45.337  30.079  48.288  0.00  0.00     0.040 A 
HETATM   24  C   UNK N   1      46.431  30.345  47.457  0.00  0.00     0.012 A 
BRANCH  21  25
HETATM   25  O   UNK N   1      44.381  33.497  49.229  0.00  0.00    -0.358 OA
HETATM   26  H   UNK N   1      44.846  34.272  49.574  0.00  0.00     0.218 HD
ENDBRANCH  21  25
BRANCH  22  27
HETATM   27  O   UNK N   1      43.585  30.877  49.704  0.00  0.00    -0.358 OA
HETATM   28  H   UNK N   1      42.709  30.661  49.355  0.00  0.00     0.218 HD
ENDBRANCH  22  27
ENDBRANCH   4  19
TORSDOF 6
ENDMDL
MODEL 8
REMARK VINA RESULT:      -6.1     16.075     17.734
REMARK  6 active torsions:
REMARK  status: ('A' for Active; 'I' for Inactive)
REMARK    1  A    between atoms: O_1  and  C_7 
REMARK    2  A    between atoms: O_2  and  C_8 
REMARK    3  A    between atoms: O_3  and  C_9 
REMARK    4  A    between atoms: O_4  and  C_10 
REMARK    5  A    between atoms: C_11  and  C_19 
REMARK    6  A    between atoms: C_12  and  C_20 
ROOT
HETATM    1  O   UNK N   1      48.585  30.028  48.242  0.00  0.00    -0.380 OA
HETATM    2  O   UNK N   1      47.422  33.487  49.430  0.00  0.00    -0.380 OA
HETATM    3  C   UNK N   1      48.545  31.283  47.573  0.00  0.00     0.161 C 
HETATM    4  C   UNK N   1      47.558  32.245  50.107  0.00  0.00     0.161 C 
HETATM    5  C   UNK N   1      48.983  31.731  49.826  0.00  0.00     0.052 C 
HETATM    6  C   UNK N   1      49.250  32.296  48.508  0.00  0.00     0.052 C 
HETATM    7  C   UNK N   1      49.128  30.255  49.529  0.00  0.00     0.176 C 
HETATM    8  C   UNK N   1      48.593  33.658  48.653  0.00  0.00     0.176 C 
ENDROOT
BRANCH   3   9
HETATM    9  C   UNK N   1      49.203  31.183  46.200  0.00  0.00    -0.026 A 
HETATM   10  C   UNK N   1      48.453  31.324  45.014  0.00  0.00     0.049 A 
HETATM   11  C   UNK N   1      49.074  31.285  43.762  0.00  0.00     0.099 A 
HETATM   12  C   UNK N   1      50.463  31.092  43.676  0.00  0.00     0.098 A 
HETATM   13  C   UNK N   1      51.214  30.927  44.848  0.00  0.00     0.040 A 
HETATM   14  C   UNK N   1      50.592  30.970  46.099  0.00  0.00     0.012 A 
BRANCH  11  15
HETATM   15  O   UNK N   1      48.322  31.447  42.653  0.00  0.00    -0.358 OA
HETATM   16  H   UNK N   1      48.404  32.220  42.078  0.00  0.00     0.218 HD
ENDBRANCH  11  15
BRANCH  12  17
HETATM   17  O   UNK N   1      51.068  31.069  42.469  0.00  0.00    -0.358 OA
HETATM   18  H   UNK N   1      50.601  30.787  41.669  0.00  0.00     0.218 HD
ENDBRANCH  12  17
ENDBRANCH   3   9
BRANCH   4  19
HETATM   19  C   UNK N   1      47.361  32.403  51.600  0.00  0.00    -0.026 A 
HETATM   20  C   UNK N   1      47.377  33.682  52.183  0.00  0.00     0.049 A 
HETATM   21  C   UNK N   1      47.254  33.837  53.566  0.00  0.00     0.099 A 
HETATM   22  C   UNK N   1      47.109  32.703  54.385  0.00  0.00     0.098 A 
HETATM   23  C   UNK N   1      47.089  31.425  53.807  0.00  0.00     0.040 A 
HETATM   24  C   UNK N   1      47.220  31.274  52.422  0.00  0.00     0.012 A 
BRANCH  21  25
HETATM   25  O   UNK N   1      47.289  35.080  54.091  0.00  0.00    -0.358 OA
HETATM   26  H   UNK N   1      46.760  35.333  54.860  0.00  0.00     0.218 HD
ENDBRANCH  21  25
BRANCH  22  27
HETATM   27  O   UNK N   1      46.995  32.849  55.723  0.00  0.00    -0.358 OA
HETATM   28  H   UNK N   1      46.463  32.246  56.260  0.00  0.00     0.218 HD
ENDBRANCH  22  27
ENDBRANCH   4  19
TORSDOF 6
ENDMDL
MODEL 9
REMARK VINA RESULT:      -6.0     16.258     19.033
REMARK  6 active torsions:
REMARK  status: ('A' for Active; 'I' for Inactive)
REMARK    1  A    between atoms: O_1  and  C_7 
REMARK    2  A    between atoms: O_2  and  C_8 
REMARK    3  A    between atoms: O_3  and  C_9 
REMARK    4  A    between atoms: O_4  and  C_10 
REMARK    5  A    between atoms: C_11  and  C_19 
REMARK    6  A    between atoms: C_12  and  C_20 
ROOT
HETATM    1  O   UNK N   1      47.572  33.488  49.534  0.00  0.00    -0.380 OA
HETATM    2  O   UNK N   1      48.599  30.018  48.256  0.00  0.00    -0.380 OA
HETATM    3  C   UNK N   1      47.675  32.237  50.202  0.00  0.00     0.161 C 
HETATM    4  C   UNK N   1      48.579  31.294  47.631  0.00  0.00     0.161 C 
HETATM    5  C   UNK N   1      49.337  32.263  48.559  0.00  0.00     0.052 C 
HETATM    6  C   UNK N   1      49.082  31.681  49.871  0.00  0.00     0.052 C 
HETATM    7  C   UNK N   1      48.736  33.639  48.743  0.00  0.00     0.176 C 
HETATM    8  C   UNK N   1      49.167  30.202  49.539  0.00  0.00     0.176 C 
ENDROOT
BRANCH   3   9
HETATM    9  C   UNK N   1      47.440  32.406  51.701  0.00  0.00    -0.026 A 
HETATM   10  C   UNK N   1      47.274  31.291  52.549  0.00  0.00     0.049 A 
HETATM   11  C   UNK N   1      47.113  31.454  53.928  0.00  0.00     0.099 A 
HETATM   12  C   UNK N   1      47.106  32.745  54.483  0.00  0.00     0.098 A 
HETATM   13  C   UNK N   1      47.247  33.861  53.646  0.00  0.00     0.040 A 
HETATM   14  C   UNK N   1      47.411  33.695  52.268  0.00  0.00     0.012 A 
BRANCH  11  15
HETATM   15  O   UNK N   1      46.979  30.360  54.705  0.00  0.00    -0.358 OA
HETATM   16  H   UNK N   1      47.719  29.978  55.197  0.00  0.00     0.218 HD
ENDBRANCH  11  15
BRANCH  12  17
HETATM   17  O   UNK N   1      46.966  32.905  55.816  0.00  0.00    -0.358 OA
HETATM   18  H   UNK N   1      46.189  32.577  56.291  0.00  0.00     0.218 HD
ENDBRANCH  12  17
ENDBRANCH   3   9
BRANCH   4  19
HETATM   19  C   UNK N   1      49.253  31.258  46.275  0.00  0.00    -0.026 A 
HETATM   20  C   UNK N   1      48.488  31.392  45.103  0.00  0.00     0.049 A 
HETATM   21  C   UNK N   1      49.089  31.303  43.845  0.00  0.00     0.099 A 
HETATM   22  C   UNK N   1      50.475  31.084  43.748  0.00  0.00     0.098 A 
HETATM   23  C   UNK N   1      51.243  30.954  44.916  0.00  0.00     0.040 A 
HETATM   24  C   UNK N   1      50.635  31.035  46.173  0.00  0.00     0.012 A 
BRANCH  21  25
HETATM   25  O   UNK N   1      48.320  31.421  42.742  0.00  0.00    -0.358 OA
HETATM   26  H   UNK N   1      48.282  30.735  42.061  0.00  0.00     0.218 HD
ENDBRANCH  21  25
BRANCH  22  27
HETATM   27  O   UNK N   1      51.059  30.992  42.534  0.00  0.00    -0.358 OA
HETATM   28  H   UNK N   1      50.796  31.560  41.796  0.00  0.00     0.218 HD
ENDBRANCH  22  27
ENDBRANCH   4  19
TORSDOF 6
ENDMDL
