MODEL 1
REMARK VINA RESULT:      -7.7      0.000      0.000
REMARK  6 active torsions:
REMARK  status: ('A' for Active; 'I' for Inactive)
REMARK    1  A    between atoms: O_2  and  C_8 
REMARK    2  A    between atoms: O_3  and  C_9 
REMARK    3  A    between atoms: O_4  and  C_10 
REMARK    4  A    between atoms: O_5  and  C_11 
REMARK    5  A    between atoms: O_6  and  C_20 
REMARK    6  A    between atoms: C_12  and  C_19 
ROOT
HETATM    1  O   UNK N   1      42.047  43.830  48.016  0.00  0.00    -0.335 OA
HETATM    2  C   UNK N   1      42.186  43.734  46.672  0.00  0.00     0.112 A 
HETATM    3  C   UNK N   1      42.896  42.656  46.124  0.00  0.00     0.133 A 
HETATM    4  C   UNK N   1      43.083  42.581  44.720  0.00  0.00     0.101 A 
HETATM    5  C   UNK N   1      41.628  44.719  45.830  0.00  0.00    -0.019 A 
HETATM    6  C   UNK N   1      42.529  43.571  43.898  0.00  0.00     0.040 A 
HETATM    7  C   UNK N   1      41.810  44.633  44.446  0.00  0.00     0.013 A 
HETATM    8  C   UNK N   1      41.635  44.990  48.652  0.00  0.00     0.191 C 
HETATM    9  C   UNK N   1      40.447  45.601  47.879  0.00  0.00     0.156 C 
HETATM   10  C   UNK N   1      40.864  45.876  46.424  0.00  0.00     0.076 C 
ENDROOT
BRANCH   8  11
HETATM   11  C   UNK N   1      41.267  44.644  50.077  0.00  0.00    -0.024 A 
HETATM   12  C   UNK N   1      41.863  45.318  51.155  0.00  0.00     0.049 A 
HETATM   13  C   UNK N   1      41.521  44.988  52.473  0.00  0.00     0.099 A 
HETATM   14  C   UNK N   1      40.574  43.973  52.717  0.00  0.00     0.098 A 
HETATM   15  C   UNK N   1      39.984  43.300  51.641  0.00  0.00     0.040 A 
HETATM   16  C   UNK N   1      40.326  43.632  50.331  0.00  0.00     0.013 A 
BRANCH  13  17
HETATM   17  O   UNK N   1      42.105  45.653  53.491  0.00  0.00    -0.358 OA
HETATM   18  H   UNK N   1      42.786  46.327  53.344  0.00  0.00     0.218 HD
ENDBRANCH  13  17
BRANCH  14  19
HETATM   19  O   UNK N   1      40.240  43.650  53.985  0.00  0.00    -0.358 OA
HETATM   20  H   UNK N   1      39.455  43.118  54.183  0.00  0.00     0.218 HD
ENDBRANCH  14  19
ENDBRANCH   8  11
BRANCH   9  21
HETATM   21  O   UNK N   1      40.010  46.802  48.461  0.00  0.00    -0.392 OA
HETATM   22  H   UNK N   1      39.766  47.417  47.722  0.00  0.00     0.210 HD
ENDBRANCH   9  21
BRANCH   3  23
HETATM   23  O   UNK N   1      43.389  41.718  46.967  0.00  0.00    -0.356 OA
HETATM   24  H   UNK N   1      42.843  41.127  47.499  0.00  0.00     0.218 HD
ENDBRANCH   3  23
BRANCH   4  25
HETATM   25  O   UNK N   1      43.796  41.593  44.136  0.00  0.00    -0.358 OA
HETATM   26  H   UNK N   1      43.490  40.682  44.054  0.00  0.00     0.218 HD
ENDBRANCH   4  25
TORSDOF 6
ENDMDL
MODEL 2
REMARK VINA RESULT:      -6.9      4.248      7.483
REMARK  6 active torsions:
REMARK  status: ('A' for Active; 'I' for Inactive)
REMARK    1  A    between atoms: O_2  and  C_8 
REMARK    2  A    between atoms: O_3  and  C_9 
REMARK    3  A    between atoms: O_4  and  C_10 
REMARK    4  A    between atoms: O_5  and  C_11 
REMARK    5  A    between atoms: O_6  and  C_20 
REMARK    6  A    between atoms: C_12  and  C_19 
ROOT
HETATM    1  O   UNK N   1      40.487  46.923  44.942  0.00  0.00    -0.335 OA
HETATM    2  C   UNK N   1      40.934  45.902  45.712  0.00  0.00     0.112 A 
HETATM    3  C   UNK N   1      41.626  44.837  45.117  0.00  0.00     0.133 A 
HETATM    4  C   UNK N   1      42.052  43.745  45.916  0.00  0.00     0.101 A 
HETATM    5  C   UNK N   1      40.695  45.906  47.102  0.00  0.00    -0.019 A 
HETATM    6  C   UNK N   1      41.800  43.761  47.294  0.00  0.00     0.040 A 
HETATM    7  C   UNK N   1      41.125  44.830  47.884  0.00  0.00     0.013 A 
HETATM    8  C   UNK N   1      39.552  47.847  45.380  0.00  0.00     0.191 C 
HETATM    9  C   UNK N   1      39.904  48.287  46.817  0.00  0.00     0.156 C 
HETATM   10  C   UNK N   1      39.951  47.055  47.737  0.00  0.00     0.076 C 
ENDROOT
BRANCH   8  11
HETATM   11  C   UNK N   1      39.547  49.011  44.416  0.00  0.00    -0.024 A 
HETATM   12  C   UNK N   1      38.793  48.959  43.233  0.00  0.00     0.049 A 
HETATM   13  C   UNK N   1      38.797  50.040  42.342  0.00  0.00     0.099 A 
HETATM   14  C   UNK N   1      39.566  51.184  42.633  0.00  0.00     0.098 A 
HETATM   15  C   UNK N   1      40.321  51.233  43.812  0.00  0.00     0.040 A 
HETATM   16  C   UNK N   1      40.312  50.156  44.696  0.00  0.00     0.013 A 
BRANCH  13  17
HETATM   17  O   UNK N   1      38.060  49.966  41.214  0.00  0.00    -0.358 OA
HETATM   18  H   UNK N   1      38.124  50.630  40.511  0.00  0.00     0.218 HD
ENDBRANCH  13  17
BRANCH  14  19
HETATM   19  O   UNK N   1      39.576  52.229  41.779  0.00  0.00    -0.358 OA
HETATM   20  H   UNK N   1      38.765  52.549  41.359  0.00  0.00     0.218 HD
ENDBRANCH  14  19
ENDBRANCH   8  11
BRANCH   9  21
HETATM   21  O   UNK N   1      38.966  49.199  47.327  0.00  0.00    -0.392 OA
HETATM   22  H   UNK N   1      38.888  49.029  48.301  0.00  0.00     0.210 HD
ENDBRANCH   9  21
BRANCH   3  23
HETATM   23  O   UNK N   1      41.859  44.889  43.785  0.00  0.00    -0.356 OA
HETATM   24  H   UNK N   1      42.712  45.108  43.392  0.00  0.00     0.218 HD
ENDBRANCH   3  23
BRANCH   4  25
HETATM   25  O   UNK N   1      42.681  42.669  45.395  0.00  0.00    -0.358 OA
HETATM   26  H   UNK N   1      43.638  42.598  45.298  0.00  0.00     0.218 HD
ENDBRANCH   4  25
TORSDOF 6
ENDMDL
MODEL 3
REMARK VINA RESULT:      -6.6      4.093      7.876
REMARK  6 active torsions:
REMARK  status: ('A' for Active; 'I' for Inactive)
REMARK    1  A    between atoms: O_2  and  C_8 
REMARK    2  A    between atoms: O_3  and  C_9 
REMARK    3  A    between atoms: O_4  and  C_10 
REMARK    4  A    between atoms: O_5  and  C_11 
REMARK    5  A    between atoms: O_6  and  C_20 
REMARK    6  A    between atoms: C_12  and  C_19 
ROOT
HETATM    1  O   UNK N   1      39.748  47.602  46.518  0.00  0.00    -0.335 OA
HETATM    2  C   UNK N   1      40.281  46.831  47.496  0.00  0.00     0.112 A 
HETATM    3  C   UNK N   1      39.460  45.936  48.198  0.00  0.00     0.133 A 
HETATM    4  C   UNK N   1      40.008  45.164  49.254  0.00  0.00     0.101 A 
HETATM    5  C   UNK N   1      41.651  46.938  47.814  0.00  0.00    -0.019 A 
HETATM    6  C   UNK N   1      41.369  45.287  49.563  0.00  0.00     0.040 A 
HETATM    7  C   UNK N   1      42.185  46.168  48.852  0.00  0.00     0.013 A 
HETATM    8  C   UNK N   1      40.395  48.707  45.989  0.00  0.00     0.191 C 
HETATM    9  C   UNK N   1      41.878  48.358  45.740  0.00  0.00     0.156 C 
HETATM   10  C   UNK N   1      42.530  47.902  47.057  0.00  0.00     0.076 C 
ENDROOT
BRANCH   8  11
HETATM   11  C   UNK N   1      39.686  49.108  44.717  0.00  0.00    -0.024 A 
HETATM   12  C   UNK N   1      38.572  48.386  44.258  0.00  0.00     0.049 A 
HETATM   13  C   UNK N   1      37.923  48.762  43.075  0.00  0.00     0.099 A 
HETATM   14  C   UNK N   1      38.390  49.869  42.340  0.00  0.00     0.098 A 
HETATM   15  C   UNK N   1      39.503  50.586  42.797  0.00  0.00     0.040 A 
HETATM   16  C   UNK N   1      40.145  50.210  43.976  0.00  0.00     0.013 A 
BRANCH  13  17
HETATM   17  O   UNK N   1      36.853  48.052  42.658  0.00  0.00    -0.358 OA
HETATM   18  H   UNK N   1      36.114  48.462  42.184  0.00  0.00     0.218 HD
ENDBRANCH  13  17
BRANCH  14  19
HETATM   19  O   UNK N   1      37.770  50.236  41.199  0.00  0.00    -0.358 OA
HETATM   20  H   UNK N   1      36.816  50.404  41.171  0.00  0.00     0.218 HD
ENDBRANCH  14  19
ENDBRANCH   8  11
BRANCH   9  21
HETATM   21  O   UNK N   1      42.594  49.457  45.236  0.00  0.00    -0.392 OA
HETATM   22  H   UNK N   1      43.358  49.098  44.716  0.00  0.00     0.210 HD
ENDBRANCH   9  21
BRANCH   3  23
HETATM   23  O   UNK N   1      38.158  45.845  47.839  0.00  0.00    -0.356 OA
HETATM   24  H   UNK N   1      37.774  45.089  47.379  0.00  0.00     0.218 HD
ENDBRANCH   3  23
BRANCH   4  25
HETATM   25  O   UNK N   1      39.259  44.320  49.997  0.00  0.00    -0.358 OA
HETATM   26  H   UNK N   1      39.493  44.033  50.888  0.00  0.00     0.218 HD
ENDBRANCH   4  25
TORSDOF 6
ENDMDL
MODEL 4
REMARK VINA RESULT:      -6.5      3.099      3.843
REMARK  6 active torsions:
REMARK  status: ('A' for Active; 'I' for Inactive)
REMARK    1  A    between atoms: O_2  and  C_8 
REMARK    2  A    between atoms: O_3  and  C_9 
REMARK    3  A    between atoms: O_4  and  C_10 
REMARK    4  A    between atoms: O_5  and  C_11 
REMARK    5  A    between atoms: O_6  and  C_20 
REMARK    6  A    between atoms: C_12  and  C_19 
ROOT
HETATM    1  O   UNK N   1      40.490  46.078  48.253  0.00  0.00    -0.335 OA
HETATM    2  C   UNK N   1      40.489  46.974  47.237  0.00  0.00     0.112 A 
HETATM    3  C   UNK N   1      39.389  47.035  46.368  0.00  0.00     0.133 A 
HETATM    4  C   UNK N   1      39.409  47.939  45.276  0.00  0.00     0.101 A 
HETATM    5  C   UNK N   1      41.594  47.831  47.047  0.00  0.00    -0.019 A 
HETATM    6  C   UNK N   1      40.517  48.779  45.096  0.00  0.00     0.040 A 
HETATM    7  C   UNK N   1      41.602  48.724  45.971  0.00  0.00     0.013 A 
HETATM    8  C   UNK N   1      41.632  45.741  48.962  0.00  0.00     0.191 C 
HETATM    9  C   UNK N   1      42.428  47.022  49.288  0.00  0.00     0.156 C 
HETATM   10  C   UNK N   1      42.774  47.761  47.983  0.00  0.00     0.076 C 
ENDROOT
BRANCH   8  11
HETATM   11  C   UNK N   1      41.214  45.000  50.210  0.00  0.00    -0.024 A 
HETATM   12  C   UNK N   1      41.757  45.336  51.461  0.00  0.00     0.049 A 
HETATM   13  C   UNK N   1      41.367  44.641  52.613  0.00  0.00     0.099 A 
HETATM   14  C   UNK N   1      40.426  43.597  52.516  0.00  0.00     0.098 A 
HETATM   15  C   UNK N   1      39.888  43.261  51.268  0.00  0.00     0.040 A 
HETATM   16  C   UNK N   1      40.277  43.956  50.124  0.00  0.00     0.013 A 
BRANCH  13  17
HETATM   17  O   UNK N   1      41.902  44.987  53.803  0.00  0.00    -0.358 OA
HETATM   18  H   UNK N   1      41.759  45.859  54.199  0.00  0.00     0.218 HD
ENDBRANCH  13  17
BRANCH  14  19
HETATM   19  O   UNK N   1      40.047  42.923  53.622  0.00  0.00    -0.358 OA
HETATM   20  H   UNK N   1      39.907  41.965  53.610  0.00  0.00     0.218 HD
ENDBRANCH  14  19
ENDBRANCH   8  11
BRANCH   9  21
HETATM   21  O   UNK N   1      43.618  46.735  49.976  0.00  0.00    -0.392 OA
HETATM   22  H   UNK N   1      43.596  45.772  50.215  0.00  0.00     0.210 HD
ENDBRANCH   9  21
BRANCH   3  23
HETATM   23  O   UNK N   1      38.339  46.215  46.606  0.00  0.00    -0.356 OA
HETATM   24  H   UNK N   1      38.390  45.406  47.128  0.00  0.00     0.218 HD
ENDBRANCH   3  23
BRANCH   4  25
HETATM   25  O   UNK N   1      38.402  48.013  44.379  0.00  0.00    -0.358 OA
HETATM   26  H   UNK N   1      37.759  48.731  44.347  0.00  0.00     0.218 HD
ENDBRANCH   4  25
TORSDOF 6
ENDMDL
MODEL 5
REMARK VINA RESULT:      -6.5     11.674     14.418
REMARK  6 active torsions:
REMARK  status: ('A' for Active; 'I' for Inactive)
REMARK    1  A    between atoms: O_2  and  C_8 
REMARK    2  A    between atoms: O_3  and  C_9 
REMARK    3  A    between atoms: O_4  and  C_10 
REMARK    4  A    between atoms: O_5  and  C_11 
REMARK    5  A    between atoms: O_6  and  C_20 
REMARK    6  A    between atoms: C_12  and  C_19 
ROOT
HETATM    1  O   UNK N   1      46.935  32.222  50.758  0.00  0.00    -0.335 OA
HETATM    2  C   UNK N   1      47.105  32.299  52.100  0.00  0.00     0.112 A 
HETATM    3  C   UNK N   1      47.084  31.126  52.869  0.00  0.00     0.133 A 
HETATM    4  C   UNK N   1      47.213  31.211  54.279  0.00  0.00     0.101 A 
HETATM    5  C   UNK N   1      47.291  33.552  52.720  0.00  0.00    -0.019 A 
HETATM    6  C   UNK N   1      47.390  32.464  54.880  0.00  0.00     0.040 A 
HETATM    7  C   UNK N   1      47.425  33.626  54.109  0.00  0.00     0.013 A 
HETATM    8  C   UNK N   1      46.643  33.323  49.969  0.00  0.00     0.191 C 
HETATM    9  C   UNK N   1      47.536  34.508  50.396  0.00  0.00     0.156 C 
HETATM   10  C   UNK N   1      47.313  34.811  51.888  0.00  0.00     0.076 C 
ENDROOT
BRANCH   8  11
HETATM   11  C   UNK N   1      46.861  32.942  48.523  0.00  0.00    -0.024 A 
HETATM   12  C   UNK N   1      45.932  33.310  47.536  0.00  0.00     0.049 A 
HETATM   13  C   UNK N   1      46.138  32.948  46.199  0.00  0.00     0.099 A 
HETATM   14  C   UNK N   1      47.283  32.208  45.842  0.00  0.00     0.098 A 
HETATM   15  C   UNK N   1      48.207  31.839  46.828  0.00  0.00     0.040 A 
HETATM   16  C   UNK N   1      47.999  32.203  48.158  0.00  0.00     0.013 A 
BRANCH  13  17
HETATM   17  O   UNK N   1      45.232  33.317  45.270  0.00  0.00    -0.358 OA
HETATM   18  H   UNK N   1      45.463  33.420  44.335  0.00  0.00     0.218 HD
ENDBRANCH  13  17
BRANCH  14  19
HETATM   19  O   UNK N   1      47.488  31.855  44.555  0.00  0.00    -0.358 OA
HETATM   20  H   UNK N   1      47.287  30.964  44.236  0.00  0.00     0.218 HD
ENDBRANCH  14  19
ENDBRANCH   8  11
BRANCH   9  21
HETATM   21  O   UNK N   1      47.256  35.665  49.651  0.00  0.00    -0.392 OA
HETATM   22  H   UNK N   1      46.319  35.926  49.850  0.00  0.00     0.210 HD
ENDBRANCH   9  21
BRANCH   3  23
HETATM   23  O   UNK N   1      46.933  29.943  52.229  0.00  0.00    -0.356 OA
HETATM   24  H   UNK N   1      47.648  29.472  51.785  0.00  0.00     0.218 HD
ENDBRANCH   3  23
BRANCH   4  25
HETATM   25  O   UNK N   1      47.154  30.123  55.078  0.00  0.00    -0.358 OA
HETATM   26  H   UNK N   1      47.917  29.746  55.533  0.00  0.00     0.218 HD
ENDBRANCH   4  25
TORSDOF 6
ENDMDL
MODEL 6
REMARK VINA RESULT:      -6.4      1.777      6.733
REMARK  6 active torsions:
REMARK  status: ('A' for Active; 'I' for Inactive)
REMARK    1  A    between atoms: O_2  and  C_8 
REMARK    2  A    between atoms: O_3  and  C_9 
REMARK    3  A    between atoms: O_4  and  C_10 
REMARK    4  A    between atoms: O_5  and  C_11 
REMARK    5  A    between atoms: O_6  and  C_20 
REMARK    6  A    between atoms: C_12  and  C_19 
ROOT
HETATM    1  O   UNK N   1      40.856  44.674  49.778  0.00  0.00    -0.335 OA
HETATM    2  C   UNK N   1      40.877  44.493  51.121  0.00  0.00     0.112 A 
HETATM    3  C   UNK N   1      40.070  43.501  51.699  0.00  0.00     0.133 A 
HETATM    4  C   UNK N   1      40.055  43.344  53.108  0.00  0.00     0.101 A 
HETATM    5  C   UNK N   1      41.695  45.306  51.932  0.00  0.00    -0.019 A 
HETATM    6  C   UNK N   1      40.869  44.165  53.901  0.00  0.00     0.040 A 
HETATM    7  C   UNK N   1      41.680  45.139  53.321  0.00  0.00     0.013 A 
HETATM    8  C   UNK N   1      41.373  45.801  49.159  0.00  0.00     0.191 C 
HETATM    9  C   UNK N   1      42.736  46.151  49.793  0.00  0.00     0.156 C 
HETATM   10  C   UNK N   1      42.561  46.371  51.306  0.00  0.00     0.076 C 
ENDROOT
BRANCH   8  11
HETATM   11  C   UNK N   1      41.492  45.516  47.680  0.00  0.00    -0.024 A 
HETATM   12  C   UNK N   1      41.717  44.211  47.216  0.00  0.00     0.049 A 
HETATM   13  C   UNK N   1      41.831  43.956  45.843  0.00  0.00     0.099 A 
HETATM   14  C   UNK N   1      41.721  45.017  44.923  0.00  0.00     0.098 A 
HETATM   15  C   UNK N   1      41.500  46.320  45.387  0.00  0.00     0.040 A 
HETATM   16  C   UNK N   1      41.386  46.568  46.754  0.00  0.00     0.013 A 
BRANCH  13  17
HETATM   17  O   UNK N   1      42.044  42.691  45.424  0.00  0.00    -0.358 OA
HETATM   18  H   UNK N   1      42.718  42.122  45.822  0.00  0.00     0.218 HD
ENDBRANCH  13  17
BRANCH  14  19
HETATM   19  O   UNK N   1      41.831  44.779  43.598  0.00  0.00    -0.358 OA
HETATM   20  H   UNK N   1      41.683  43.897  43.227  0.00  0.00     0.218 HD
ENDBRANCH  14  19
ENDBRANCH   8  11
BRANCH   9  21
HETATM   21  O   UNK N   1      43.291  47.310  49.227  0.00  0.00    -0.392 OA
HETATM   22  H   UNK N   1      42.810  48.087  49.614  0.00  0.00     0.210 HD
ENDBRANCH   9  21
BRANCH   3  23
HETATM   23  O   UNK N   1      39.323  42.725  50.879  0.00  0.00    -0.356 OA
HETATM   24  H   UNK N   1      38.478  42.331  51.128  0.00  0.00     0.218 HD
ENDBRANCH   3  23
BRANCH   4  25
HETATM   25  O   UNK N   1      39.266  42.440  53.727  0.00  0.00    -0.358 OA
HETATM   26  H   UNK N   1      39.599  41.705  54.256  0.00  0.00     0.218 HD
ENDBRANCH   4  25
TORSDOF 6
ENDMDL
MODEL 7
REMARK VINA RESULT:      -6.2     12.259     13.457
REMARK  6 active torsions:
REMARK  status: ('A' for Active; 'I' for Inactive)
REMARK    1  A    between atoms: O_2  and  C_8 
REMARK    2  A    between atoms: O_3  and  C_9 
REMARK    3  A    between atoms: O_4  and  C_10 
REMARK    4  A    between atoms: O_5  and  C_11 
REMARK    5  A    between atoms: O_6  and  C_20 
REMARK    6  A    between atoms: C_12  and  C_19 
ROOT
HETATM    1  O   UNK N   1      47.429  33.000  49.920  0.00  0.00    -0.335 OA
HETATM    2  C   UNK N   1      47.059  32.267  48.842  0.00  0.00     0.112 A 
HETATM    3  C   UNK N   1      47.360  32.730  47.553  0.00  0.00     0.133 A 
HETATM    4  C   UNK N   1      46.929  31.988  46.424  0.00  0.00     0.101 A 
HETATM    5  C   UNK N   1      46.365  31.052  49.017  0.00  0.00    -0.019 A 
HETATM    6  C   UNK N   1      46.234  30.785  46.614  0.00  0.00     0.040 A 
HETATM    7  C   UNK N   1      45.952  30.321  47.899  0.00  0.00     0.013 A 
HETATM    8  C   UNK N   1      46.923  32.783  51.192  0.00  0.00     0.191 C 
HETATM    9  C   UNK N   1      46.892  31.267  51.477  0.00  0.00     0.156 C 
HETATM   10  C   UNK N   1      46.045  30.558  50.406  0.00  0.00     0.076 C 
ENDROOT
BRANCH   8  11
HETATM   11  C   UNK N   1      47.790  33.529  52.180  0.00  0.00    -0.024 A 
HETATM   12  C   UNK N   1      49.103  33.108  52.443  0.00  0.00     0.049 A 
HETATM   13  C   UNK N   1      49.898  33.801  53.364  0.00  0.00     0.099 A 
HETATM   14  C   UNK N   1      49.377  34.926  54.033  0.00  0.00     0.098 A 
HETATM   15  C   UNK N   1      48.065  35.343  53.772  0.00  0.00     0.040 A 
HETATM   16  C   UNK N   1      47.278  34.651  52.853  0.00  0.00     0.013 A 
BRANCH  13  17
HETATM   17  O   UNK N   1      51.159  33.377  53.596  0.00  0.00    -0.358 OA
HETATM   18  H   UNK N   1      51.394  32.866  54.384  0.00  0.00     0.218 HD
ENDBRANCH  13  17
BRANCH  14  19
HETATM   19  O   UNK N   1      50.137  35.599  54.923  0.00  0.00    -0.358 OA
HETATM   20  H   UNK N   1      50.986  35.991  54.671  0.00  0.00     0.218 HD
ENDBRANCH  14  19
ENDBRANCH   8  11
BRANCH   9  21
HETATM   21  O   UNK N   1      46.352  30.986  52.742  0.00  0.00    -0.392 OA
HETATM   22  H   UNK N   1      46.753  31.629  53.384  0.00  0.00     0.210 HD
ENDBRANCH   9  21
BRANCH   3  23
HETATM   23  O   UNK N   1      48.053  33.887  47.433  0.00  0.00    -0.356 OA
HETATM   24  H   UNK N   1      49.012  33.954  47.508  0.00  0.00     0.218 HD
ENDBRANCH   3  23
BRANCH   4  25
HETATM   25  O   UNK N   1      47.147  32.404  45.158  0.00  0.00    -0.358 OA
HETATM   26  H   UNK N   1      47.649  31.903  44.503  0.00  0.00     0.218 HD
ENDBRANCH   4  25
TORSDOF 6
ENDMDL
MODEL 8
REMARK VINA RESULT:      -6.2      3.952      5.929
REMARK  6 active torsions:
REMARK  status: ('A' for Active; 'I' for Inactive)
REMARK    1  A    between atoms: O_2  and  C_8 
REMARK    2  A    between atoms: O_3  and  C_9 
REMARK    3  A    between atoms: O_4  and  C_10 
REMARK    4  A    between atoms: O_5  and  C_11 
REMARK    5  A    between atoms: O_6  and  C_20 
REMARK    6  A    between atoms: C_12  and  C_19 
ROOT
HETATM    1  O   UNK N   1      39.497  47.578  45.248  0.00  0.00    -0.335 OA
HETATM    2  C   UNK N   1      39.387  48.653  44.431  0.00  0.00     0.112 A 
HETATM    3  C   UNK N   1      38.270  48.772  43.590  0.00  0.00     0.133 A 
HETATM    4  C   UNK N   1      38.178  49.872  42.699  0.00  0.00     0.101 A 
HETATM    5  C   UNK N   1      40.395  49.640  44.418  0.00  0.00    -0.019 A 
HETATM    6  C   UNK N   1      39.192  50.840  42.693  0.00  0.00     0.040 A 
HETATM    7  C   UNK N   1      40.292  50.725  43.542  0.00  0.00     0.013 A 
HETATM    8  C   UNK N   1      40.680  47.226  45.878  0.00  0.00     0.191 C 
HETATM    9  C   UNK N   1      41.348  48.492  46.454  0.00  0.00     0.156 C 
HETATM   10  C   UNK N   1      41.593  49.507  45.324  0.00  0.00     0.076 C 
ENDROOT
BRANCH   8  11
HETATM   11  C   UNK N   1      40.362  46.213  46.952  0.00  0.00    -0.024 A 
HETATM   12  C   UNK N   1      41.309  45.250  47.334  0.00  0.00     0.049 A 
HETATM   13  C   UNK N   1      41.005  44.311  48.328  0.00  0.00     0.099 A 
HETATM   14  C   UNK N   1      39.739  44.332  48.947  0.00  0.00     0.098 A 
HETATM   15  C   UNK N   1      38.794  45.291  48.563  0.00  0.00     0.040 A 
HETATM   16  C   UNK N   1      39.102  46.224  47.574  0.00  0.00     0.013 A 
BRANCH  13  17
HETATM   17  O   UNK N   1      41.935  43.398  48.679  0.00  0.00    -0.358 OA
HETATM   18  H   UNK N   1      42.878  43.614  48.726  0.00  0.00     0.218 HD
ENDBRANCH  13  17
BRANCH  14  19
HETATM   19  O   UNK N   1      39.438  43.429  49.905  0.00  0.00    -0.358 OA
HETATM   20  H   UNK N   1      38.857  42.675  49.727  0.00  0.00     0.218 HD
ENDBRANCH  14  19
ENDBRANCH   8  11
BRANCH   9  21
HETATM   21  O   UNK N   1      42.573  48.198  47.074  0.00  0.00    -0.392 OA
HETATM   22  H   UNK N   1      43.293  48.448  46.439  0.00  0.00     0.210 HD
ENDBRANCH   9  21
BRANCH   3  23
HETATM   23  O   UNK N   1      37.313  47.818  43.657  0.00  0.00    -0.356 OA
HETATM   24  H   UNK N   1      36.393  47.989  43.891  0.00  0.00     0.218 HD
ENDBRANCH   3  23
BRANCH   4  25
HETATM   25  O   UNK N   1      37.152  50.018  41.833  0.00  0.00    -0.358 OA
HETATM   26  H   UNK N   1      36.295  49.587  41.934  0.00  0.00     0.218 HD
ENDBRANCH   4  25
TORSDOF 6
ENDMDL
MODEL 9
REMARK VINA RESULT:      -6.1     11.582     12.827
REMARK  6 active torsions:
REMARK  status: ('A' for Active; 'I' for Inactive)
REMARK    1  A    between atoms: O_2  and  C_8 
REMARK    2  A    between atoms: O_3  and  C_9 
REMARK    3  A    between atoms: O_4  and  C_10 
REMARK    4  A    between atoms: O_5  and  C_11 
REMARK    5  A    between atoms: O_6  and  C_20 
REMARK    6  A    between atoms: C_12  and  C_19 
ROOT
HETATM    1  O   UNK N   1      47.984  32.876  49.522  0.00  0.00    -0.335 OA
HETATM    2  C   UNK N   1      47.710  32.604  48.223  0.00  0.00     0.112 A 
HETATM    3  C   UNK N   1      48.671  31.956  47.433  0.00  0.00     0.133 A 
HETATM    4  C   UNK N   1      48.404  31.716  46.062  0.00  0.00     0.101 A 
HETATM    5  C   UNK N   1      46.470  32.982  47.667  0.00  0.00    -0.019 A 
HETATM    6  C   UNK N   1      47.170  32.103  45.522  0.00  0.00     0.040 A 
HETATM    7  C   UNK N   1      46.212  32.733  46.315  0.00  0.00     0.013 A 
HETATM    8  C   UNK N   1      47.237  33.761  50.282  0.00  0.00     0.191 C 
HETATM    9  C   UNK N   1      45.736  33.518  50.022  0.00  0.00     0.156 C 
HETATM   10  C   UNK N   1      45.440  33.678  48.521  0.00  0.00     0.076 C 
ENDROOT
BRANCH   8  11
HETATM   11  C   UNK N   1      47.601  33.562  51.735  0.00  0.00    -0.024 A 
HETATM   12  C   UNK N   1      48.192  34.597  52.476  0.00  0.00     0.049 A 
HETATM   13  C   UNK N   1      48.530  34.403  53.822  0.00  0.00     0.099 A 
HETATM   14  C   UNK N   1      48.278  33.159  54.434  0.00  0.00     0.098 A 
HETATM   15  C   UNK N   1      47.691  32.126  53.693  0.00  0.00     0.040 A 
HETATM   16  C   UNK N   1      47.355  32.325  52.355  0.00  0.00     0.013 A 
BRANCH  13  17
HETATM   17  O   UNK N   1      49.095  35.416  54.512  0.00  0.00    -0.358 OA
HETATM   18  H   UNK N   1      49.951  35.794  54.265  0.00  0.00     0.218 HD
ENDBRANCH  13  17
BRANCH  14  19
HETATM   19  O   UNK N   1      48.602  32.964  55.730  0.00  0.00    -0.358 OA
HETATM   20  H   UNK N   1      48.388  32.138  56.188  0.00  0.00     0.218 HD
ENDBRANCH  14  19
ENDBRANCH   8  11
BRANCH   9  21
HETATM   21  O   UNK N   1      44.930  34.415  50.742  0.00  0.00    -0.392 OA
HETATM   22  H   UNK N   1      45.536  35.041  51.217  0.00  0.00     0.210 HD
ENDBRANCH   9  21
BRANCH   3  23
HETATM   23  O   UNK N   1      49.836  31.585  48.016  0.00  0.00    -0.356 OA
HETATM   24  H   UNK N   1      49.895  31.034  48.805  0.00  0.00     0.218 HD
ENDBRANCH   3  23
BRANCH   4  25
HETATM   25  O   UNK N   1      49.306  31.138  45.239  0.00  0.00    -0.358 OA
HETATM   26  H   UNK N   1      50.192  31.487  45.078  0.00  0.00     0.218 HD
ENDBRANCH   4  25
TORSDOF 6
ENDMDL
