MODEL 1
REMARK VINA RESULT:      -6.1      0.000      0.000
REMARK  10 active torsions:
REMARK  status: ('A' for Active; 'I' for Inactive)
REMARK    1  A    between atoms: O_1  and  C_7 
REMARK    2  A    between atoms: O_1  and  C_18 
REMARK    3  A    between atoms: O_2  and  C_7 
REMARK    4  A    between atoms: O_3  and  C_8 
REMARK    5  A    between atoms: O_4  and  C_9 
REMARK    6  A    between atoms: O_6  and  C_19 
REMARK    7  A    between atoms: C_11  and  C_16 
REMARK    8  A    between atoms: C_16  and  C_27 
REMARK    9  A    between atoms: C_19  and  C_31 
REMARK   10  A    between atoms: C_27  and  C_32 
ROOT
HETATM    1  C   UNK N   1      47.567  32.679  48.725  0.00  0.00     0.178 C 
HETATM    2  C   UNK N   1      53.467  32.638  52.320  0.00  0.00     0.124 C 
HETATM    3  C   UNK N   1      53.947  36.353  51.444  0.00  0.00     0.124 C 
HETATM    4  C   UNK N   1      53.962  33.993  51.777  0.00  0.00     0.030 C 
HETATM    5  C   UNK N   1      53.350  35.274  52.381  0.00  0.00     0.025 C 
HETATM    6  C   UNK N   1      53.730  34.182  50.246  0.00  0.00    -0.031 C 
HETATM    7  C   UNK N   1      50.356  31.901  49.893  0.00  0.00    -0.035 C 
HETATM    8  C   UNK N   1      51.829  32.356  50.352  0.00  0.00     0.001 C 
HETATM    9  C   UNK N   1      52.249  33.760  49.836  0.00  0.00    -0.001 C 
HETATM   10  C   UNK N   1      50.118  32.163  48.332  0.00  0.00     0.007 C 
HETATM   11  C   UNK N   1      48.611  31.929  47.804  0.00  0.00     0.014 C 
HETATM   12  C   UNK N   1      47.820  32.304  50.217  0.00  0.00     0.070 C 
HETATM   13  C   UNK N   1      53.881  35.726  50.041  0.00  0.00     0.042 C 
HETATM   14  C   UNK N   1      52.018  32.354  51.907  0.00  0.00     0.038 C 
HETATM   15  C   UNK N   1      49.246  32.661  50.680  0.00  0.00     0.015 C 
HETATM   16  C   UNK N   1      52.061  33.819  48.313  0.00  0.00     0.006 C 
HETATM   17  C   UNK N   1      50.613  33.591  47.948  0.00  0.00     0.007 C 
HETATM   18  C   UNK N   1      54.814  33.419  49.442  0.00  0.00     0.016 C 
HETATM   19  C   UNK N   1      50.291  30.377  50.229  0.00  0.00     0.016 C 
HETATM   20  C   UNK N   1      48.447  32.437  46.335  0.00  0.00     0.021 C 
HETATM   21  C   UNK N   1      48.252  30.415  47.683  0.00  0.00     0.021 C 
ENDROOT
BRANCH   5  22
HETATM   22  C   UNK N   1      53.530  35.503  53.924  0.00  0.00    -0.008 C 
HETATM   23  C   UNK N   1      53.506  36.980  54.371  0.00  0.00     0.011 C 
BRANCH  22  24
HETATM   24  C   UNK N   1      52.457  34.710  54.705  0.00  0.00     0.031 C 
BRANCH  24  25
HETATM   25  C   UNK N   1      51.060  35.031  54.235  0.00  0.00    -0.027 C 
HETATM   26  C   UNK N   1      49.997  34.200  54.294  0.00  0.00     0.006 C 
BRANCH  26  27
HETATM   27  C   UNK N   1      49.900  32.836  54.986  0.00  0.00     0.068 C 
HETATM   28  C   UNK N   1      49.521  31.657  54.065  0.00  0.00     0.050 C 
HETATM   29  C   UNK N   1      51.238  32.545  55.685  0.00  0.00     0.050 C 
BRANCH  27  30
HETATM   30  O   UNK N   1      48.932  32.933  56.002  0.00  0.00    -0.387 OA
HETATM   31  H   UNK N   1      48.109  32.471  55.685  0.00  0.00     0.211 HD
ENDBRANCH  27  30
ENDBRANCH  26  27
ENDBRANCH  24  25
ENDBRANCH  22  24
ENDBRANCH   5  22
BRANCH   3  32
HETATM   32  O   UNK N   1      55.277  36.683  51.775  0.00  0.00    -0.395 OA
HETATM   33  H   UNK N   1      55.864  36.582  50.984  0.00  0.00     0.210 HD
ENDBRANCH   3  32
BRANCH   2  34
HETATM   34  O   UNK N   1      54.300  31.611  51.846  0.00  0.00    -0.395 OA
HETATM   35  H   UNK N   1      54.849  31.992  51.112  0.00  0.00     0.210 HD
ENDBRANCH   2  34
BRANCH   1  36
HETATM   36  O   UNK N   1      46.286  32.293  48.337  0.00  0.00    -0.283 OA
BRANCH  36  37
HETATM   37  C   UNK N   1      45.248  33.111  48.002  0.00  0.00     0.257 C 
HETATM   38  O   UNK N   1      45.212  33.683  46.924  0.00  0.00    -0.266 OA
HETATM   39  C   UNK N   1      44.135  33.308  48.981  0.00  0.00     0.126 C 
ENDBRANCH  36  37
ENDBRANCH   1  36
BRANCH   1  40
HETATM   40  O   UNK N   1      47.706  34.071  48.534  0.00  0.00    -0.364 OA
HETATM   41  H   UNK N   1      47.157  34.555  49.203  0.00  0.00     0.213 HD
ENDBRANCH   1  40
TORSDOF 10
ENDMDL
MODEL 2
REMARK VINA RESULT:      -5.7     22.042     26.075
REMARK  10 active torsions:
REMARK  status: ('A' for Active; 'I' for Inactive)
REMARK    1  A    between atoms: O_1  and  C_7 
REMARK    2  A    between atoms: O_1  and  C_18 
REMARK    3  A    between atoms: O_2  and  C_7 
REMARK    4  A    between atoms: O_3  and  C_8 
REMARK    5  A    between atoms: O_4  and  C_9 
REMARK    6  A    between atoms: O_6  and  C_19 
REMARK    7  A    between atoms: C_11  and  C_16 
REMARK    8  A    between atoms: C_16  and  C_27 
REMARK    9  A    between atoms: C_19  and  C_31 
REMARK   10  A    between atoms: C_27  and  C_32 
ROOT
HETATM    1  C   UNK N   1      27.533  48.315  59.325  0.00  0.00     0.178 C 
HETATM    2  C   UNK N   1      31.479  42.863  57.763  0.00  0.00     0.124 C 
HETATM    3  C   UNK N   1      29.931  40.976  60.735  0.00  0.00     0.124 C 
HETATM    4  C   UNK N   1      31.216  42.124  59.090  0.00  0.00     0.030 C 
HETATM    5  C   UNK N   1      29.873  41.382  59.242  0.00  0.00     0.025 C 
HETATM    6  C   UNK N   1      31.248  43.051  60.345  0.00  0.00    -0.031 C 
HETATM    7  C   UNK N   1      29.943  46.485  58.554  0.00  0.00    -0.035 C 
HETATM    8  C   UNK N   1      30.757  45.116  58.779  0.00  0.00     0.001 C 
HETATM    9  C   UNK N   1      30.400  44.377  60.098  0.00  0.00    -0.001 C 
HETATM   10  C   UNK N   1      29.935  47.391  59.874  0.00  0.00     0.007 C 
HETATM   11  C   UNK N   1      28.984  48.694  59.825  0.00  0.00     0.014 C 
HETATM   12  C   UNK N   1      27.631  47.506  57.995  0.00  0.00     0.070 C 
HETATM   13  C   UNK N   1      30.532  42.200  61.446  0.00  0.00     0.042 C 
HETATM   14  C   UNK N   1      30.578  44.093  57.607  0.00  0.00     0.038 C 
HETATM   15  C   UNK N   1      28.462  46.217  58.150  0.00  0.00     0.015 C 
HETATM   16  C   UNK N   1      30.540  45.348  61.280  0.00  0.00     0.006 C 
HETATM   17  C   UNK N   1      29.597  46.517  61.120  0.00  0.00     0.007 C 
HETATM   18  C   UNK N   1      32.714  43.346  60.754  0.00  0.00     0.016 C 
HETATM   19  C   UNK N   1      30.688  47.198  57.381  0.00  0.00     0.016 C 
HETATM   20  C   UNK N   1      28.876  49.362  61.234  0.00  0.00     0.021 C 
HETATM   21  C   UNK N   1      29.587  49.838  58.951  0.00  0.00     0.021 C 
ENDROOT
BRANCH   5  22
HETATM   22  C   UNK N   1      29.557  40.238  58.213  0.00  0.00    -0.008 C 
HETATM   23  C   UNK N   1      28.982  38.946  58.830  0.00  0.00     0.011 C 
BRANCH  22  24
HETATM   24  C   UNK N   1      28.597  40.761  57.120  0.00  0.00     0.031 C 
BRANCH  24  25
HETATM   25  C   UNK N   1      28.617  39.893  55.885  0.00  0.00    -0.027 C 
HETATM   26  C   UNK N   1      28.948  40.300  54.641  0.00  0.00     0.006 C 
BRANCH  26  27
HETATM   27  C   UNK N   1      29.532  41.650  54.211  0.00  0.00     0.068 C 
HETATM   28  C   UNK N   1      31.043  41.828  54.472  0.00  0.00     0.050 C 
HETATM   29  C   UNK N   1      29.230  41.863  52.719  0.00  0.00     0.050 C 
BRANCH  27  30
HETATM   30  O   UNK N   1      28.842  42.661  54.906  0.00  0.00    -0.387 OA
HETATM   31  H   UNK N   1      28.399  42.242  55.693  0.00  0.00     0.211 HD
ENDBRANCH  27  30
ENDBRANCH  26  27
ENDBRANCH  24  25
ENDBRANCH  22  24
ENDBRANCH   5  22
BRANCH   3  32
HETATM   32  O   UNK N   1      30.729  39.835  60.957  0.00  0.00    -0.395 OA
HETATM   33  H   UNK N   1      30.955  39.753  61.917  0.00  0.00     0.210 HD
ENDBRANCH   3  32
BRANCH   2  34
HETATM   34  O   UNK N   1      32.826  43.258  57.705  0.00  0.00    -0.395 OA
HETATM   35  H   UNK N   1      33.343  42.622  58.266  0.00  0.00     0.210 HD
ENDBRANCH   2  34
BRANCH   1  36
HETATM   36  O   UNK N   1      26.817  49.493  59.126  0.00  0.00    -0.283 OA
BRANCH  36  37
HETATM   37  C   UNK N   1      25.625  49.631  58.480  0.00  0.00     0.257 C 
HETATM   38  O   UNK N   1      24.619  49.064  58.876  0.00  0.00    -0.266 OA
HETATM   39  C   UNK N   1      25.556  50.494  57.261  0.00  0.00     0.126 C 
ENDBRANCH  36  37
ENDBRANCH   1  36
BRANCH   1  40
HETATM   40  O   UNK N   1      26.890  47.550  60.323  0.00  0.00    -0.364 OA
HETATM   41  H   UNK N   1      26.623  46.671  59.949  0.00  0.00     0.213 HD
ENDBRANCH   1  40
TORSDOF 10
ENDMDL
MODEL 3
REMARK VINA RESULT:      -5.7     22.869     26.599
REMARK  10 active torsions:
REMARK  status: ('A' for Active; 'I' for Inactive)
REMARK    1  A    between atoms: O_1  and  C_7 
REMARK    2  A    between atoms: O_1  and  C_18 
REMARK    3  A    between atoms: O_2  and  C_7 
REMARK    4  A    between atoms: O_3  and  C_8 
REMARK    5  A    between atoms: O_4  and  C_9 
REMARK    6  A    between atoms: O_6  and  C_19 
REMARK    7  A    between atoms: C_11  and  C_16 
REMARK    8  A    between atoms: C_16  and  C_27 
REMARK    9  A    between atoms: C_19  and  C_31 
REMARK   10  A    between atoms: C_27  and  C_32 
ROOT
HETATM    1  C   UNK N   1      29.071  48.455  57.534  0.00  0.00     0.178 C 
HETATM    2  C   UNK N   1      29.617  41.898  59.642  0.00  0.00     0.124 C 
HETATM    3  C   UNK N   1      26.879  40.930  57.120  0.00  0.00     0.124 C 
HETATM    4  C   UNK N   1      28.323  41.428  58.949  0.00  0.00     0.030 C 
HETATM    5  C   UNK N   1      28.377  41.171  57.429  0.00  0.00     0.025 C 
HETATM    6  C   UNK N   1      27.132  42.425  59.094  0.00  0.00    -0.031 C 
HETATM    7  C   UNK N   1      29.302  45.883  59.290  0.00  0.00    -0.035 C 
HETATM    8  C   UNK N   1      28.864  44.360  59.560  0.00  0.00     0.001 C 
HETATM    9  C   UNK N   1      27.594  43.917  58.781  0.00  0.00    -0.001 C 
HETATM   10  C   UNK N   1      28.053  46.881  59.381  0.00  0.00     0.007 C 
HETATM   11  C   UNK N   1      28.339  48.405  58.934  0.00  0.00     0.014 C 
HETATM   12  C   UNK N   1      30.319  47.519  57.560  0.00  0.00     0.070 C 
HETATM   13  C   UNK N   1      26.135  41.969  57.977  0.00  0.00     0.042 C 
HETATM   14  C   UNK N   1      29.996  43.327  59.234  0.00  0.00     0.038 C 
HETATM   15  C   UNK N   1      29.951  46.057  57.884  0.00  0.00     0.015 C 
HETATM   16  C   UNK N   1      26.458  44.914  59.052  0.00  0.00     0.006 C 
HETATM   17  C   UNK N   1      26.845  46.298  58.585  0.00  0.00     0.007 C 
HETATM   18  C   UNK N   1      26.482  42.282  60.494  0.00  0.00     0.016 C 
HETATM   19  C   UNK N   1      30.357  46.193  60.399  0.00  0.00     0.016 C 
HETATM   20  C   UNK N   1      27.008  49.220  58.839  0.00  0.00     0.021 C 
HETATM   21  C   UNK N   1      29.147  49.198  60.008  0.00  0.00     0.021 C 
ENDROOT
BRANCH   5  22
HETATM   22  C   UNK N   1      29.385  40.083  56.914  0.00  0.00    -0.008 C 
HETATM   23  C   UNK N   1      29.249  38.698  57.581  0.00  0.00     0.011 C 
BRANCH  22  24
HETATM   24  C   UNK N   1      29.262  39.932  55.380  0.00  0.00     0.031 C 
BRANCH  24  25
HETATM   25  C   UNK N   1      30.231  40.825  54.643  0.00  0.00    -0.027 C 
HETATM   26  C   UNK N   1      29.900  41.764  53.730  0.00  0.00     0.006 C 
BRANCH  26  27
HETATM   27  C   UNK N   1      28.502  42.264  53.352  0.00  0.00     0.068 C 
HETATM   28  C   UNK N   1      28.439  43.153  52.093  0.00  0.00     0.050 C 
HETATM   29  C   UNK N   1      27.576  41.049  53.181  0.00  0.00     0.050 C 
BRANCH  27  30
HETATM   30  O   UNK N   1      27.997  43.001  54.440  0.00  0.00    -0.387 OA
HETATM   31  H   UNK N   1      27.739  42.355  55.152  0.00  0.00     0.211 HD
ENDBRANCH  27  30
ENDBRANCH  26  27
ENDBRANCH  24  25
ENDBRANCH  22  24
ENDBRANCH   5  22
BRANCH   3  32
HETATM   32  O   UNK N   1      26.459  39.626  57.452  0.00  0.00    -0.395 OA
HETATM   33  H   UNK N   1      26.104  39.164  56.652  0.00  0.00     0.210 HD
ENDBRANCH   3  32
BRANCH   2  34
HETATM   34  O   UNK N   1      29.452  41.836  61.036  0.00  0.00    -0.395 OA
HETATM   35  H   UNK N   1      30.104  42.469  61.437  0.00  0.00     0.210 HD
ENDBRANCH   2  34
BRANCH   1  36
HETATM   36  O   UNK N   1      29.456  49.771  57.288  0.00  0.00    -0.283 OA
BRANCH  36  37
HETATM   37  C   UNK N   1      29.277  50.478  56.136  0.00  0.00     0.257 C 
HETATM   38  O   UNK N   1      28.171  50.859  55.789  0.00  0.00    -0.266 OA
HETATM   39  C   UNK N   1      30.467  50.787  55.284  0.00  0.00     0.126 C 
ENDBRANCH  36  37
ENDBRANCH   1  36
BRANCH   1  40
HETATM   40  O   UNK N   1      28.167  48.045  56.529  0.00  0.00    -0.364 OA
HETATM   41  H   UNK N   1      27.271  47.900  56.928  0.00  0.00     0.213 HD
ENDBRANCH   1  40
TORSDOF 10
ENDMDL
MODEL 4
REMARK VINA RESULT:      -5.6     21.107     24.509
REMARK  10 active torsions:
REMARK  status: ('A' for Active; 'I' for Inactive)
REMARK    1  A    between atoms: O_1  and  C_7 
REMARK    2  A    between atoms: O_1  and  C_18 
REMARK    3  A    between atoms: O_2  and  C_7 
REMARK    4  A    between atoms: O_3  and  C_8 
REMARK    5  A    between atoms: O_4  and  C_9 
REMARK    6  A    between atoms: O_6  and  C_19 
REMARK    7  A    between atoms: C_11  and  C_16 
REMARK    8  A    between atoms: C_16  and  C_27 
REMARK    9  A    between atoms: C_19  and  C_31 
REMARK   10  A    between atoms: C_27  and  C_32 
ROOT
HETATM    1  C   UNK N   1      30.705  43.275  57.688  0.00  0.00     0.178 C 
HETATM    2  C   UNK N   1      30.841  47.264  63.328  0.00  0.00     0.124 C 
HETATM    3  C   UNK N   1      34.144  45.581  64.356  0.00  0.00     0.124 C 
HETATM    4  C   UNK N   1      31.953  46.461  64.031  0.00  0.00     0.030 C 
HETATM    5  C   UNK N   1      33.406  46.691  63.569  0.00  0.00     0.025 C 
HETATM    6  C   UNK N   1      31.788  44.914  63.909  0.00  0.00    -0.031 C 
HETATM    7  C   UNK N   1      29.910  44.826  60.279  0.00  0.00    -0.035 C 
HETATM    8  C   UNK N   1      30.284  45.287  61.774  0.00  0.00     0.001 C 
HETATM    9  C   UNK N   1      31.458  44.492  62.408  0.00  0.00    -0.001 C 
HETATM   10  C   UNK N   1      29.808  43.232  60.162  0.00  0.00     0.007 C 
HETATM   11  C   UNK N   1      29.634  42.649  58.667  0.00  0.00     0.014 C 
HETATM   12  C   UNK N   1      30.680  44.830  57.807  0.00  0.00     0.070 C 
HETATM   13  C   UNK N   1      33.206  44.364  64.280  0.00  0.00     0.042 C 
HETATM   14  C   UNK N   1      30.640  46.809  61.878  0.00  0.00     0.038 C 
HETATM   15  C   UNK N   1      30.967  45.314  59.243  0.00  0.00     0.015 C 
HETATM   16  C   UNK N   1      31.165  42.987  62.311  0.00  0.00     0.006 C 
HETATM   17  C   UNK N   1      31.029  42.566  60.867  0.00  0.00     0.007 C 
HETATM   18  C   UNK N   1      30.727  44.408  64.919  0.00  0.00     0.016 C 
HETATM   19  C   UNK N   1      28.534  45.504  59.989  0.00  0.00     0.016 C 
HETATM   20  C   UNK N   1      29.782  41.093  58.653  0.00  0.00     0.021 C 
HETATM   21  C   UNK N   1      28.190  42.858  58.113  0.00  0.00     0.021 C 
ENDROOT
BRANCH   5  22
HETATM   22  C   UNK N   1      33.984  48.146  63.695  0.00  0.00    -0.008 C 
HETATM   23  C   UNK N   1      33.378  48.992  64.836  0.00  0.00     0.011 C 
BRANCH  22  24
HETATM   24  C   UNK N   1      35.521  48.093  63.851  0.00  0.00     0.031 C 
BRANCH  24  25
HETATM   25  C   UNK N   1      36.230  48.221  62.526  0.00  0.00    -0.027 C 
HETATM   26  C   UNK N   1      37.168  47.374  62.048  0.00  0.00     0.006 C 
BRANCH  26  27
HETATM   27  C   UNK N   1      37.609  46.026  62.628  0.00  0.00     0.068 C 
HETATM   28  C   UNK N   1      37.685  45.966  64.169  0.00  0.00     0.050 C 
HETATM   29  C   UNK N   1      36.661  44.934  62.108  0.00  0.00     0.050 C 
BRANCH  27  30
HETATM   30  O   UNK N   1      38.884  45.728  62.110  0.00  0.00    -0.387 OA
HETATM   31  H   UNK N   1      39.561  46.124  62.722  0.00  0.00     0.211 HD
ENDBRANCH  27  30
ENDBRANCH  26  27
ENDBRANCH  24  25
ENDBRANCH  22  24
ENDBRANCH   5  22
BRANCH   3  32
HETATM   32  O   UNK N   1      34.383  45.935  65.699  0.00  0.00    -0.395 OA
HETATM   33  H   UNK N   1      33.532  46.146  66.158  0.00  0.00     0.210 HD
ENDBRANCH   3  32
BRANCH   2  34
HETATM   34  O   UNK N   1      29.637  47.118  64.037  0.00  0.00    -0.395 OA
HETATM   35  H   UNK N   1      28.920  47.525  63.484  0.00  0.00     0.210 HD
ENDBRANCH   2  34
BRANCH   1  36
HETATM   36  O   UNK N   1      30.392  42.882  56.388  0.00  0.00    -0.283 OA
BRANCH  36  37
HETATM   37  C   UNK N   1      31.231  42.311  55.479  0.00  0.00     0.257 C 
HETATM   38  O   UNK N   1      32.388  42.683  55.360  0.00  0.00    -0.266 OA
HETATM   39  C   UNK N   1      30.716  41.207  54.611  0.00  0.00     0.126 C 
ENDBRANCH  36  37
ENDBRANCH   1  36
BRANCH   1  40
HETATM   40  O   UNK N   1      31.982  42.774  58.025  0.00  0.00    -0.364 OA
HETATM   41  H   UNK N   1      32.246  42.072  57.376  0.00  0.00     0.213 HD
ENDBRANCH   1  40
TORSDOF 10
ENDMDL
MODEL 5
REMARK VINA RESULT:      -5.6     21.335     23.435
REMARK  10 active torsions:
REMARK  status: ('A' for Active; 'I' for Inactive)
REMARK    1  A    between atoms: O_1  and  C_7 
REMARK    2  A    between atoms: O_1  and  C_18 
REMARK    3  A    between atoms: O_2  and  C_7 
REMARK    4  A    between atoms: O_3  and  C_8 
REMARK    5  A    between atoms: O_4  and  C_9 
REMARK    6  A    between atoms: O_6  and  C_19 
REMARK    7  A    between atoms: C_11  and  C_16 
REMARK    8  A    between atoms: C_16  and  C_27 
REMARK    9  A    between atoms: C_19  and  C_31 
REMARK   10  A    between atoms: C_27  and  C_32 
ROOT
HETATM    1  C   UNK N   1      27.733  39.483  54.740  0.00  0.00     0.178 C 
HETATM    2  C   UNK N   1      32.294  43.612  57.885  0.00  0.00     0.124 C 
HETATM    3  C   UNK N   1      30.085  43.542  61.033  0.00  0.00     0.124 C 
HETATM    4  C   UNK N   1      31.367  43.956  59.068  0.00  0.00     0.030 C 
HETATM    5  C   UNK N   1      31.217  42.908  60.189  0.00  0.00     0.025 C 
HETATM    6  C   UNK N   1      29.890  44.238  58.651  0.00  0.00    -0.031 C 
HETATM    7  C   UNK N   1      29.741  41.787  55.384  0.00  0.00    -0.035 C 
HETATM    8  C   UNK N   1      30.300  42.869  56.433  0.00  0.00     0.001 C 
HETATM    9  C   UNK N   1      29.359  43.125  57.643  0.00  0.00    -0.001 C 
HETATM   10  C   UNK N   1      28.206  42.057  55.019  0.00  0.00     0.007 C 
HETATM   11  C   UNK N   1      27.485  40.920  54.129  0.00  0.00     0.014 C 
HETATM   12  C   UNK N   1      29.259  39.274  54.987  0.00  0.00     0.070 C 
HETATM   13  C   UNK N   1      29.100  44.109  59.996  0.00  0.00     0.042 C 
HETATM   14  C   UNK N   1      31.710  42.499  57.008  0.00  0.00     0.038 C 
HETATM   15  C   UNK N   1      29.852  40.334  55.937  0.00  0.00     0.015 C 
HETATM   16  C   UNK N   1      27.954  43.472  57.130  0.00  0.00     0.006 C 
HETATM   17  C   UNK N   1      27.388  42.329  56.319  0.00  0.00     0.007 C 
HETATM   18  C   UNK N   1      29.760  45.673  58.080  0.00  0.00     0.016 C 
HETATM   19  C   UNK N   1      30.657  41.944  54.129  0.00  0.00     0.016 C 
HETATM   20  C   UNK N   1      25.945  41.172  54.037  0.00  0.00     0.021 C 
HETATM   21  C   UNK N   1      27.928  40.967  52.633  0.00  0.00     0.021 C 
ENDROOT
BRANCH   5  22
HETATM   22  C   UNK N   1      32.517  42.482  60.961  0.00  0.00    -0.008 C 
HETATM   23  C   UNK N   1      33.395  41.440  60.236  0.00  0.00     0.011 C 
BRANCH  22  24
HETATM   24  C   UNK N   1      33.366  43.731  61.294  0.00  0.00     0.031 C 
BRANCH  24  25
HETATM   25  C   UNK N   1      34.779  43.610  60.776  0.00  0.00    -0.027 C 
HETATM   26  C   UNK N   1      35.872  44.184  61.325  0.00  0.00     0.006 C 
BRANCH  26  27
HETATM   27  C   UNK N   1      35.979  44.931  62.659  0.00  0.00     0.068 C 
HETATM   28  C   UNK N   1      35.289  44.243  63.856  0.00  0.00     0.050 C 
HETATM   29  C   UNK N   1      37.466  45.161  62.974  0.00  0.00     0.050 C 
BRANCH  27  30
HETATM   30  O   UNK N   1      35.404  46.204  62.489  0.00  0.00    -0.387 OA
HETATM   31  H   UNK N   1      34.460  46.157  62.801  0.00  0.00     0.211 HD
ENDBRANCH  27  30
ENDBRANCH  26  27
ENDBRANCH  24  25
ENDBRANCH  22  24
ENDBRANCH   5  22
BRANCH   3  32
HETATM   32  O   UNK N   1      30.550  44.566  61.883  0.00  0.00    -0.395 OA
HETATM   33  H   UNK N   1      29.979  45.370  61.798  0.00  0.00     0.210 HD
ENDBRANCH   3  32
BRANCH   2  34
HETATM   34  O   UNK N   1      32.504  44.762  57.105  0.00  0.00    -0.395 OA
HETATM   35  H   UNK N   1      31.952  45.488  57.497  0.00  0.00     0.210 HD
ENDBRANCH   2  34
BRANCH   1  36
HETATM   36  O   UNK N   1      27.253  38.536  53.839  0.00  0.00    -0.283 OA
BRANCH  36  37
HETATM   37  C   UNK N   1      27.724  37.271  53.647  0.00  0.00     0.257 C 
HETATM   38  O   UNK N   1      28.372  36.978  52.655  0.00  0.00    -0.266 OA
HETATM   39  C   UNK N   1      27.437  36.226  54.678  0.00  0.00     0.126 C 
ENDBRANCH  36  37
ENDBRANCH   1  36
BRANCH   1  40
HETATM   40  O   UNK N   1      27.016  39.371  55.952  0.00  0.00    -0.364 OA
HETATM   41  H   UNK N   1      27.652  39.281  56.708  0.00  0.00     0.213 HD
ENDBRANCH   1  40
TORSDOF 10
ENDMDL
MODEL 6
REMARK VINA RESULT:      -5.6     21.905     26.080
REMARK  10 active torsions:
REMARK  status: ('A' for Active; 'I' for Inactive)
REMARK    1  A    between atoms: O_1  and  C_7 
REMARK    2  A    between atoms: O_1  and  C_18 
REMARK    3  A    between atoms: O_2  and  C_7 
REMARK    4  A    between atoms: O_3  and  C_8 
REMARK    5  A    between atoms: O_4  and  C_9 
REMARK    6  A    between atoms: O_6  and  C_19 
REMARK    7  A    between atoms: C_11  and  C_16 
REMARK    8  A    between atoms: C_16  and  C_27 
REMARK    9  A    between atoms: C_19  and  C_31 
REMARK   10  A    between atoms: C_27  and  C_32 
ROOT
HETATM    1  C   UNK N   1      35.425  45.068  63.555  0.00  0.00     0.178 C 
HETATM    2  C   UNK N   1      28.790  45.397  61.656  0.00  0.00     0.124 C 
HETATM    3  C   UNK N   1      29.391  48.991  60.423  0.00  0.00     0.124 C 
HETATM    4  C   UNK N   1      28.788  46.924  61.445  0.00  0.00     0.030 C 
HETATM    5  C   UNK N   1      29.412  47.468  60.143  0.00  0.00     0.025 C 
HETATM    6  C   UNK N   1      29.547  47.716  62.554  0.00  0.00    -0.031 C 
HETATM    7  C   UNK N   1      32.310  44.858  63.507  0.00  0.00    -0.035 C 
HETATM    8  C   UNK N   1      30.893  45.523  63.138  0.00  0.00     0.001 C 
HETATM    9  C   UNK N   1      30.962  47.051  62.865  0.00  0.00    -0.001 C 
HETATM   10  C   UNK N   1      33.099  45.720  64.601  0.00  0.00     0.007 C 
HETATM   11  C   UNK N   1      34.615  45.254  64.900  0.00  0.00     0.014 C 
HETATM   12  C   UNK N   1      34.622  44.151  62.582  0.00  0.00     0.070 C 
HETATM   13  C   UNK N   1      29.789  49.118  61.903  0.00  0.00     0.042 C 
HETATM   14  C   UNK N   1      30.204  44.857  61.899  0.00  0.00     0.038 C 
HETATM   15  C   UNK N   1      33.227  44.719  62.255  0.00  0.00     0.015 C 
HETATM   16  C   UNK N   1      31.651  47.749  64.047  0.00  0.00     0.006 C 
HETATM   17  C   UNK N   1      33.060  47.232  64.219  0.00  0.00     0.007 C 
HETATM   18  C   UNK N   1      28.660  47.850  63.818  0.00  0.00     0.016 C 
HETATM   19  C   UNK N   1      31.949  43.441  64.056  0.00  0.00     0.016 C 
HETATM   20  C   UNK N   1      35.355  46.300  65.796  0.00  0.00     0.021 C 
HETATM   21  C   UNK N   1      34.678  43.958  65.767  0.00  0.00     0.021 C 
ENDROOT
BRANCH   5  22
HETATM   22  C   UNK N   1      28.783  46.992  58.785  0.00  0.00    -0.008 C 
HETATM   23  C   UNK N   1      28.814  48.038  57.650  0.00  0.00     0.011 C 
BRANCH  22  24
HETATM   24  C   UNK N   1      29.472  45.692  58.310  0.00  0.00     0.031 C 
BRANCH  24  25
HETATM   25  C   UNK N   1      30.811  45.962  57.669  0.00  0.00    -0.027 C 
HETATM   26  C   UNK N   1      31.788  45.051  57.469  0.00  0.00     0.006 C 
BRANCH  26  27
HETATM   27  C   UNK N   1      31.723  43.534  57.676  0.00  0.00     0.068 C 
HETATM   28  C   UNK N   1      31.539  43.076  59.138  0.00  0.00     0.050 C 
HETATM   29  C   UNK N   1      30.590  42.969  56.804  0.00  0.00     0.050 C 
BRANCH  27  30
HETATM   30  O   UNK N   1      32.920  42.979  57.185  0.00  0.00    -0.387 OA
HETATM   31  H   UNK N   1      32.706  42.488  56.346  0.00  0.00     0.211 HD
ENDBRANCH  27  30
ENDBRANCH  26  27
ENDBRANCH  24  25
ENDBRANCH  22  24
ENDBRANCH   5  22
BRANCH   3  32
HETATM   32  O   UNK N   1      28.123  49.565  60.202  0.00  0.00    -0.395 OA
HETATM   33  H   UNK N   1      27.791  49.996  61.029  0.00  0.00     0.210 HD
ENDBRANCH   3  32
BRANCH   2  34
HETATM   34  O   UNK N   1      27.970  45.075  62.751  0.00  0.00    -0.395 OA
HETATM   35  H   UNK N   1      28.552  45.049  63.555  0.00  0.00     0.210 HD
ENDBRANCH   2  34
BRANCH   1  36
HETATM   36  O   UNK N   1      36.656  44.492  63.862  0.00  0.00    -0.283 OA
BRANCH  36  37
HETATM   37  C   UNK N   1      37.880  44.876  63.401  0.00  0.00     0.257 C 
HETATM   38  O   UNK N   1      38.173  44.779  62.220  0.00  0.00    -0.266 OA
HETATM   39  C   UNK N   1      38.879  45.424  64.368  0.00  0.00     0.126 C 
ENDBRANCH  36  37
ENDBRANCH   1  36
BRANCH   1  40
HETATM   40  O   UNK N   1      35.643  46.336  62.973  0.00  0.00    -0.364 OA
HETATM   41  H   UNK N   1      36.596  46.424  62.714  0.00  0.00     0.213 HD
ENDBRANCH   1  40
TORSDOF 10
ENDMDL
MODEL 7
REMARK VINA RESULT:      -5.4     23.141     26.087
REMARK  10 active torsions:
REMARK  status: ('A' for Active; 'I' for Inactive)
REMARK    1  A    between atoms: O_1  and  C_7 
REMARK    2  A    between atoms: O_1  and  C_18 
REMARK    3  A    between atoms: O_2  and  C_7 
REMARK    4  A    between atoms: O_3  and  C_8 
REMARK    5  A    between atoms: O_4  and  C_9 
REMARK    6  A    between atoms: O_6  and  C_19 
REMARK    7  A    between atoms: C_11  and  C_16 
REMARK    8  A    between atoms: C_16  and  C_27 
REMARK    9  A    between atoms: C_19  and  C_31 
REMARK   10  A    between atoms: C_27  and  C_32 
ROOT
HETATM    1  C   UNK N   1      25.399  43.046  52.088  0.00  0.00     0.178 C 
HETATM    2  C   UNK N   1      27.588  43.258  58.638  0.00  0.00     0.124 C 
HETATM    3  C   UNK N   1      31.071  44.287  57.369  0.00  0.00     0.124 C 
HETATM    4  C   UNK N   1      29.085  43.331  58.275  0.00  0.00     0.030 C 
HETATM    5  C   UNK N   1      29.645  44.693  57.816  0.00  0.00     0.025 C 
HETATM    6  C   UNK N   1      29.500  42.373  57.116  0.00  0.00    -0.031 C 
HETATM    7  C   UNK N   1      25.954  42.361  55.084  0.00  0.00    -0.035 C 
HETATM    8  C   UNK N   1      26.987  42.321  56.315  0.00  0.00     0.001 C 
HETATM    9  C   UNK N   1      28.477  42.470  55.899  0.00  0.00    -0.001 C 
HETATM   10  C   UNK N   1      26.432  41.420  53.881  0.00  0.00     0.007 C 
HETATM   11  C   UNK N   1      25.577  41.535  52.517  0.00  0.00     0.014 C 
HETATM   12  C   UNK N   1      24.853  43.872  53.293  0.00  0.00     0.070 C 
HETATM   13  C   UNK N   1      30.882  42.941  56.650  0.00  0.00     0.042 C 
HETATM   14  C   UNK N   1      26.694  43.410  57.402  0.00  0.00     0.038 C 
HETATM   15  C   UNK N   1      25.782  43.805  54.522  0.00  0.00     0.015 C 
HETATM   16  C   UNK N   1      28.808  41.433  54.816  0.00  0.00     0.006 C 
HETATM   17  C   UNK N   1      27.948  41.650  53.593  0.00  0.00     0.007 C 
HETATM   18  C   UNK N   1      29.659  40.926  57.649  0.00  0.00     0.016 C 
HETATM   19  C   UNK N   1      24.601  41.866  55.687  0.00  0.00     0.016 C 
HETATM   20  C   UNK N   1      26.272  40.756  51.353  0.00  0.00     0.021 C 
HETATM   21  C   UNK N   1      24.192  40.824  52.623  0.00  0.00     0.021 C 
ENDROOT
BRANCH   5  22
HETATM   22  C   UNK N   1      29.537  45.896  58.820  0.00  0.00    -0.008 C 
HETATM   23  C   UNK N   1      30.129  45.631  60.221  0.00  0.00     0.011 C 
BRANCH  22  24
HETATM   24  C   UNK N   1      30.197  47.155  58.210  0.00  0.00     0.031 C 
BRANCH  24  25
HETATM   25  C   UNK N   1      29.725  48.422  58.879  0.00  0.00    -0.027 C 
HETATM   26  C   UNK N   1      29.193  49.494  58.252  0.00  0.00     0.006 C 
BRANCH  26  27
HETATM   27  C   UNK N   1      28.788  49.624  56.780  0.00  0.00     0.068 C 
HETATM   28  C   UNK N   1      27.702  50.680  56.486  0.00  0.00     0.050 C 
HETATM   29  C   UNK N   1      30.047  49.923  55.950  0.00  0.00     0.050 C 
BRANCH  27  30
HETATM   30  O   UNK N   1      28.315  48.371  56.349  0.00  0.00    -0.387 OA
HETATM   31  H   UNK N   1      27.354  48.304  56.602  0.00  0.00     0.211 HD
ENDBRANCH  27  30
ENDBRANCH  26  27
ENDBRANCH  24  25
ENDBRANCH  22  24
ENDBRANCH   5  22
BRANCH   3  32
HETATM   32  O   UNK N   1      31.960  44.147  58.454  0.00  0.00    -0.395 OA
HETATM   33  H   UNK N   1      31.458  44.039  59.300  0.00  0.00     0.210 HD
ENDBRANCH   3  32
BRANCH   2  34
HETATM   34  O   UNK N   1      27.317  42.031  59.265  0.00  0.00    -0.395 OA
HETATM   35  H   UNK N   1      27.686  41.316  58.683  0.00  0.00     0.210 HD
ENDBRANCH   2  34
BRANCH   1  36
HETATM   36  O   UNK N   1      24.505  43.095  51.021  0.00  0.00    -0.283 OA
BRANCH  36  37
HETATM   37  C   UNK N   1      24.677  43.744  49.834  0.00  0.00     0.257 C 
HETATM   38  O   UNK N   1      25.441  43.320  48.983  0.00  0.00    -0.266 OA
HETATM   39  C   UNK N   1      23.910  45.003  49.579  0.00  0.00     0.126 C 
ENDBRANCH  36  37
ENDBRANCH   1  36
BRANCH   1  40
HETATM   40  O   UNK N   1      26.647  43.553  51.666  0.00  0.00    -0.364 OA
HETATM   41  H   UNK N   1      27.225  43.715  52.455  0.00  0.00     0.213 HD
ENDBRANCH   1  40
TORSDOF 10
ENDMDL
MODEL 8
REMARK VINA RESULT:      -5.3     21.971     25.486
REMARK  10 active torsions:
REMARK  status: ('A' for Active; 'I' for Inactive)
REMARK    1  A    between atoms: O_1  and  C_7 
REMARK    2  A    between atoms: O_1  and  C_18 
REMARK    3  A    between atoms: O_2  and  C_7 
REMARK    4  A    between atoms: O_3  and  C_8 
REMARK    5  A    between atoms: O_4  and  C_9 
REMARK    6  A    between atoms: O_6  and  C_19 
REMARK    7  A    between atoms: C_11  and  C_16 
REMARK    8  A    between atoms: C_16  and  C_27 
REMARK    9  A    between atoms: C_19  and  C_31 
REMARK   10  A    between atoms: C_27  and  C_32 
ROOT
HETATM    1  C   UNK N   1      25.012  43.970  52.354  0.00  0.00     0.178 C 
HETATM    2  C   UNK N   1      28.548  41.096  57.549  0.00  0.00     0.124 C 
HETATM    3  C   UNK N   1      31.577  43.268  56.599  0.00  0.00     0.124 C 
HETATM    4  C   UNK N   1      29.919  41.627  57.086  0.00  0.00     0.030 C 
HETATM    5  C   UNK N   1      30.254  43.102  57.386  0.00  0.00     0.025 C 
HETATM    6  C   UNK N   1      30.149  41.523  55.546  0.00  0.00    -0.031 C 
HETATM    7  C   UNK N   1      26.258  41.924  54.358  0.00  0.00    -0.035 C 
HETATM    8  C   UNK N   1      27.534  41.433  55.205  0.00  0.00     0.001 C 
HETATM    9  C   UNK N   1      28.881  42.055  54.741  0.00  0.00    -0.001 C 
HETATM   10  C   UNK N   1      26.539  41.869  52.783  0.00  0.00     0.007 C 
HETATM   11  C   UNK N   1      25.401  42.524  51.845  0.00  0.00     0.014 C 
HETATM   12  C   UNK N   1      24.677  43.916  53.877  0.00  0.00     0.070 C 
HETATM   13  C   UNK N   1      31.346  42.497  55.288  0.00  0.00     0.042 C 
HETATM   14  C   UNK N   1      27.397  41.708  56.741  0.00  0.00     0.038 C 
HETATM   15  C   UNK N   1      25.853  43.385  54.720  0.00  0.00     0.015 C 
HETATM   16  C   UNK N   1      29.052  41.829  53.232  0.00  0.00     0.006 C 
HETATM   17  C   UNK N   1      27.932  42.494  52.466  0.00  0.00     0.007 C 
HETATM   18  C   UNK N   1      30.536  40.072  55.161  0.00  0.00     0.016 C 
HETATM   19  C   UNK N   1      25.113  40.943  54.765  0.00  0.00     0.016 C 
HETATM   20  C   UNK N   1      25.887  42.624  50.362  0.00  0.00     0.021 C 
HETATM   21  C   UNK N   1      24.134  41.621  51.728  0.00  0.00     0.021 C 
ENDROOT
BRANCH   5  22
HETATM   22  C   UNK N   1      30.271  43.548  58.892  0.00  0.00    -0.008 C 
HETATM   23  C   UNK N   1      30.926  42.544  59.863  0.00  0.00     0.011 C 
BRANCH  22  24
HETATM   24  C   UNK N   1      30.962  44.925  59.028  0.00  0.00     0.031 C 
BRANCH  24  25
HETATM   25  C   UNK N   1      30.361  45.754  60.136  0.00  0.00    -0.027 C 
HETATM   26  C   UNK N   1      29.616  46.869  59.971  0.00  0.00     0.006 C 
BRANCH  26  27
HETATM   27  C   UNK N   1      29.066  47.455  58.666  0.00  0.00     0.068 C 
HETATM   28  C   UNK N   1      30.116  47.703  57.563  0.00  0.00     0.050 C 
HETATM   29  C   UNK N   1      27.962  46.525  58.138  0.00  0.00     0.050 C 
BRANCH  27  30
HETATM   30  O   UNK N   1      28.444  48.680  58.970  0.00  0.00    -0.387 OA
HETATM   31  H   UNK N   1      27.619  48.482  59.490  0.00  0.00     0.211 HD
ENDBRANCH  27  30
ENDBRANCH  26  27
ENDBRANCH  24  25
ENDBRANCH  22  24
ENDBRANCH   5  22
BRANCH   3  32
HETATM   32  O   UNK N   1      32.689  42.745  57.289  0.00  0.00    -0.395 OA
HETATM   33  H   UNK N   1      32.560  42.830  58.267  0.00  0.00     0.210 HD
ENDBRANCH   3  32
BRANCH   2  34
HETATM   34  O   UNK N   1      28.519  39.697  57.420  0.00  0.00    -0.395 OA
HETATM   35  H   UNK N   1      29.318  39.434  56.893  0.00  0.00     0.210 HD
ENDBRANCH   2  34
BRANCH   1  36
HETATM   36  O   UNK N   1      23.907  44.407  51.628  0.00  0.00    -0.283 OA
BRANCH  36  37
HETATM   37  C   UNK N   1      23.840  45.495  50.809  0.00  0.00     0.257 C 
HETATM   38  O   UNK N   1      24.002  46.625  51.241  0.00  0.00    -0.266 OA
HETATM   39  C   UNK N   1      23.561  45.291  49.354  0.00  0.00     0.126 C 
ENDBRANCH  36  37
ENDBRANCH   1  36
BRANCH   1  40
HETATM   40  O   UNK N   1      26.094  44.845  52.117  0.00  0.00    -0.364 OA
HETATM   41  H   UNK N   1      26.084  45.139  51.170  0.00  0.00     0.213 HD
ENDBRANCH   1  40
TORSDOF 10
ENDMDL
MODEL 9
REMARK VINA RESULT:      -5.3     21.896     25.444
REMARK  10 active torsions:
REMARK  status: ('A' for Active; 'I' for Inactive)
REMARK    1  A    between atoms: O_1  and  C_7 
REMARK    2  A    between atoms: O_1  and  C_18 
REMARK    3  A    between atoms: O_2  and  C_7 
REMARK    4  A    between atoms: O_3  and  C_8 
REMARK    5  A    between atoms: O_4  and  C_9 
REMARK    6  A    between atoms: O_6  and  C_19 
REMARK    7  A    between atoms: C_11  and  C_16 
REMARK    8  A    between atoms: C_16  and  C_27 
REMARK    9  A    between atoms: C_19  and  C_31 
REMARK   10  A    between atoms: C_27  and  C_32 
ROOT
HETATM    1  C   UNK N   1      35.590  46.351  64.142  0.00  0.00     0.178 C 
HETATM    2  C   UNK N   1      30.536  43.059  60.772  0.00  0.00     0.124 C 
HETATM    3  C   UNK N   1      30.102  46.157  58.534  0.00  0.00     0.124 C 
HETATM    4  C   UNK N   1      30.020  44.317  60.045  0.00  0.00     0.030 C 
HETATM    5  C   UNK N   1      30.812  44.811  58.818  0.00  0.00     0.025 C 
HETATM    6  C   UNK N   1      29.952  45.585  60.951  0.00  0.00    -0.031 C 
HETATM    7  C   UNK N   1      33.051  44.668  63.454  0.00  0.00    -0.035 C 
HETATM    8  C   UNK N   1      31.728  44.480  62.559  0.00  0.00     0.001 C 
HETATM    9  C   UNK N   1      31.294  45.760  61.792  0.00  0.00    -0.001 C 
HETATM   10  C   UNK N   1      32.987  46.008  64.327  0.00  0.00     0.007 C 
HETATM   11  C   UNK N   1      34.342  46.400  65.112  0.00  0.00     0.014 C 
HETATM   12  C   UNK N   1      35.620  44.983  63.394  0.00  0.00     0.070 C 
HETATM   13  C   UNK N   1      29.851  46.762  59.925  0.00  0.00     0.042 C 
HETATM   14  C   UNK N   1      31.855  43.326  61.507  0.00  0.00     0.038 C 
HETATM   15  C   UNK N   1      34.338  44.731  62.576  0.00  0.00     0.015 C 
HETATM   16  C   UNK N   1      31.176  46.930  62.781  0.00  0.00     0.006 C 
HETATM   17  C   UNK N   1      32.507  47.200  63.443  0.00  0.00     0.007 C 
HETATM   18  C   UNK N   1      28.688  45.535  61.847  0.00  0.00     0.016 C 
HETATM   19  C   UNK N   1      33.095  43.400  64.364  0.00  0.00     0.016 C 
HETATM   20  C   UNK N   1      34.237  47.831  65.731  0.00  0.00     0.021 C 
HETATM   21  C   UNK N   1      34.582  45.503  66.366  0.00  0.00     0.021 C 
ENDROOT
BRANCH   5  22
HETATM   22  C   UNK N   1      30.959  43.823  57.606  0.00  0.00    -0.008 C 
HETATM   23  C   UNK N   1      32.345  43.159  57.469  0.00  0.00     0.011 C 
BRANCH  22  24
HETATM   24  C   UNK N   1      29.867  42.730  57.679  0.00  0.00     0.031 C 
BRANCH  24  25
HETATM   25  C   UNK N   1      28.745  42.983  56.703  0.00  0.00    -0.027 C 
HETATM   26  C   UNK N   1      28.628  42.430  55.476  0.00  0.00     0.006 C 
BRANCH  26  27
HETATM   27  C   UNK N   1      29.478  41.316  54.855  0.00  0.00     0.068 C 
HETATM   28  C   UNK N   1      30.939  41.701  54.539  0.00  0.00     0.050 C 
HETATM   29  C   UNK N   1      29.449  40.097  55.792  0.00  0.00     0.050 C 
BRANCH  27  30
HETATM   30  O   UNK N   1      28.858  40.914  53.658  0.00  0.00    -0.387 OA
HETATM   31  H   UNK N   1      29.245  40.036  53.393  0.00  0.00     0.211 HD
ENDBRANCH  27  30
ENDBRANCH  26  27
ENDBRANCH  24  25
ENDBRANCH  22  24
ENDBRANCH   5  22
BRANCH   3  32
HETATM   32  O   UNK N   1      28.887  45.994  57.840  0.00  0.00    -0.395 OA
HETATM   33  H   UNK N   1      28.955  46.376  56.929  0.00  0.00     0.210 HD
ENDBRANCH   3  32
BRANCH   2  34
HETATM   34  O   UNK N   1      29.568  42.617  61.689  0.00  0.00    -0.395 OA
HETATM   35  H   UNK N   1      30.053  42.207  62.452  0.00  0.00     0.210 HD
ENDBRANCH   2  34
BRANCH   1  36
HETATM   36  O   UNK N   1      36.743  46.513  64.906  0.00  0.00    -0.283 OA
BRANCH  36  37
HETATM   37  C   UNK N   1      37.830  47.277  64.601  0.00  0.00     0.257 C 
HETATM   38  O   UNK N   1      38.409  47.160  63.533  0.00  0.00    -0.266 OA
HETATM   39  C   UNK N   1      38.318  48.276  65.601  0.00  0.00     0.126 C 
ENDBRANCH  36  37
ENDBRANCH   1  36
BRANCH   1  40
HETATM   40  O   UNK N   1      35.495  47.417  63.221  0.00  0.00    -0.364 OA
HETATM   41  H   UNK N   1      34.811  48.065  63.530  0.00  0.00     0.213 HD
ENDBRANCH   1  40
TORSDOF 10
ENDMDL
