MODEL 1
REMARK VINA RESULT:      -6.3      0.000      0.000
REMARK  6 active torsions:
REMARK  status: ('A' for Active; 'I' for Inactive)
REMARK    1  A    between atoms: O_2  and  C_7 
REMARK    2  A    between atoms: O_3  and  C_8 
REMARK    3  A    between atoms: O_5  and  C_20 
REMARK    4  A    between atoms: C_9  and  C_18 
REMARK    5  A    between atoms: C_11  and  C_23 
REMARK    6  A    between atoms: C_20  and  C_25 
ROOT
HETATM    1  O   UNK N   1      51.314  33.452  48.824  0.00  0.00    -0.339 OA
HETATM    2  O   UNK N   1      53.464  30.670  47.005  0.00  0.00    -0.292 OA
HETATM    3  C   UNK N   1      50.665  32.751  47.848  0.00  0.00     0.099 A 
HETATM    4  C   UNK N   1      50.729  31.034  46.112  0.00  0.00     0.087 A 
HETATM    5  C   UNK N   1      48.664  32.240  46.551  0.00  0.00     0.084 A 
HETATM    6  C   UNK N   1      51.380  31.788  47.104  0.00  0.00     0.077 A 
HETATM    7  C   UNK N   1      49.300  33.003  47.562  0.00  0.00     0.032 A 
HETATM    8  C   UNK N   1      49.377  31.267  45.844  0.00  0.00     0.075 A 
HETATM    9  C   UNK N   1      52.539  33.053  49.349  0.00  0.00     0.169 C 
HETATM   10  C   UNK N   1      52.827  31.635  47.395  0.00  0.00     0.167 C 
HETATM   11  C   UNK N   1      53.492  32.711  48.206  0.00  0.00     0.121 C 
ENDROOT
BRANCH   7  12
HETATM   12  C   UNK N   1      48.522  34.072  48.257  0.00  0.00     0.016 C 
HETATM   13  C   UNK N   1      47.664  33.843  49.271  0.00  0.00     0.011 C 
BRANCH  13  14
HETATM   14  C   UNK N   1      46.885  34.934  50.002  0.00  0.00     0.068 C 
HETATM   15  C   UNK N   1      45.351  34.838  49.853  0.00  0.00     0.050 C 
HETATM   16  C   UNK N   1      47.249  34.863  51.490  0.00  0.00     0.050 C 
BRANCH  14  17
HETATM   17  O   UNK N   1      47.301  36.185  49.510  0.00  0.00    -0.387 OA
HETATM   18  H   UNK N   1      48.201  36.380  49.883  0.00  0.00     0.211 HD
ENDBRANCH  14  17
ENDBRANCH  13  14
ENDBRANCH   7  12
BRANCH   5  19
HETATM   19  O   UNK N   1      47.347  32.402  46.282  0.00  0.00    -0.355 OA
HETATM   20  C   UNK N   1      46.431  31.411  46.579  0.00  0.00     0.210 C 
ENDBRANCH   5  19
BRANCH   9  21
HETATM   21  C   UNK N   1      53.102  34.128  50.245  0.00  0.00    -0.029 A 
HETATM   22  C   UNK N   1      53.043  33.973  51.641  0.00  0.00     0.010 A 
HETATM   23  C   UNK N   1      53.572  34.956  52.482  0.00  0.00     0.001 A 
HETATM   24  C   UNK N   1      54.147  36.107  51.939  0.00  0.00     0.000 A 
HETATM   25  C   UNK N   1      54.203  36.275  50.552  0.00  0.00     0.001 A 
HETATM   26  C   UNK N   1      53.692  35.285  49.705  0.00  0.00     0.010 A 
ENDBRANCH   9  21
BRANCH   4  27
HETATM   27  O   UNK N   1      51.401  30.093  45.415  0.00  0.00    -0.355 OA
HETATM   28  C   UNK N   1      51.239  29.940  44.056  0.00  0.00     0.210 C 
ENDBRANCH   4  27
TORSDOF 6
ENDMDL
MODEL 2
REMARK VINA RESULT:      -6.0      1.846      2.798
REMARK  6 active torsions:
REMARK  status: ('A' for Active; 'I' for Inactive)
REMARK    1  A    between atoms: O_2  and  C_7 
REMARK    2  A    between atoms: O_3  and  C_8 
REMARK    3  A    between atoms: O_5  and  C_20 
REMARK    4  A    between atoms: C_9  and  C_18 
REMARK    5  A    between atoms: C_11  and  C_23 
REMARK    6  A    between atoms: C_20  and  C_25 
ROOT
HETATM    1  O   UNK N   1      50.240  33.586  49.541  0.00  0.00    -0.339 OA
HETATM    2  O   UNK N   1      50.851  32.184  45.890  0.00  0.00    -0.292 OA
HETATM    3  C   UNK N   1      49.120  33.189  48.869  0.00  0.00     0.099 A 
HETATM    4  C   UNK N   1      48.110  32.299  46.830  0.00  0.00     0.087 A 
HETATM    5  C   UNK N   1      46.714  32.811  48.754  0.00  0.00     0.084 A 
HETATM    6  C   UNK N   1      49.244  32.740  47.536  0.00  0.00     0.077 A 
HETATM    7  C   UNK N   1      47.846  33.249  49.485  0.00  0.00     0.032 A 
HETATM    8  C   UNK N   1      46.856  32.340  47.445  0.00  0.00     0.075 A 
HETATM    9  C   UNK N   1      51.527  33.274  49.112  0.00  0.00     0.169 C 
HETATM   10  C   UNK N   1      50.594  32.783  46.921  0.00  0.00     0.167 C 
HETATM   11  C   UNK N   1      51.653  33.585  47.623  0.00  0.00     0.121 C 
ENDROOT
BRANCH   7  12
HETATM   12  C   UNK N   1      47.649  33.800  50.860  0.00  0.00     0.016 C 
HETATM   13  C   UNK N   1      47.764  33.070  51.988  0.00  0.00     0.011 C 
BRANCH  13  14
HETATM   14  C   UNK N   1      47.588  33.632  53.396  0.00  0.00     0.068 C 
HETATM   15  C   UNK N   1      47.560  32.568  54.515  0.00  0.00     0.050 C 
HETATM   16  C   UNK N   1      48.738  34.610  53.666  0.00  0.00     0.050 C 
BRANCH  14  17
HETATM   17  O   UNK N   1      46.381  34.354  53.442  0.00  0.00    -0.387 OA
HETATM   18  H   UNK N   1      46.025  34.418  52.516  0.00  0.00     0.211 HD
ENDBRANCH  14  17
ENDBRANCH  13  14
ENDBRANCH   7  12
BRANCH   5  19
HETATM   19  O   UNK N   1      45.485  32.795  49.319  0.00  0.00    -0.355 OA
HETATM   20  C   UNK N   1      44.504  33.683  48.920  0.00  0.00     0.210 C 
ENDBRANCH   5  19
BRANCH   9  21
HETATM   21  C   UNK N   1      52.550  34.023  49.930  0.00  0.00    -0.029 A 
HETATM   22  C   UNK N   1      52.749  33.683  51.279  0.00  0.00     0.010 A 
HETATM   23  C   UNK N   1      53.702  34.361  52.044  0.00  0.00     0.001 A 
HETATM   24  C   UNK N   1      54.450  35.394  51.476  0.00  0.00     0.000 A 
HETATM   25  C   UNK N   1      54.254  35.746  50.137  0.00  0.00     0.001 A 
HETATM   26  C   UNK N   1      53.315  35.058  49.361  0.00  0.00     0.010 A 
ENDBRANCH   9  21
BRANCH   4  27
HETATM   27  O   UNK N   1      48.226  31.845  45.564  0.00  0.00    -0.355 OA
HETATM   28  C   UNK N   1      47.881  30.557  45.220  0.00  0.00     0.210 C 
ENDBRANCH   4  27
TORSDOF 6
ENDMDL
MODEL 3
REMARK VINA RESULT:      -6.0      2.646      7.646
REMARK  6 active torsions:
REMARK  status: ('A' for Active; 'I' for Inactive)
REMARK    1  A    between atoms: O_2  and  C_7 
REMARK    2  A    between atoms: O_3  and  C_8 
REMARK    3  A    between atoms: O_5  and  C_20 
REMARK    4  A    between atoms: C_9  and  C_18 
REMARK    5  A    between atoms: C_11  and  C_23 
REMARK    6  A    between atoms: C_20  and  C_25 
ROOT
HETATM    1  O   UNK N   1      48.561  32.845  50.965  0.00  0.00    -0.339 OA
HETATM    2  O   UNK N   1      48.586  34.540  54.542  0.00  0.00    -0.292 OA
HETATM    3  C   UNK N   1      49.785  32.940  51.561  0.00  0.00     0.099 A 
HETATM    4  C   UNK N   1      51.135  33.682  53.458  0.00  0.00     0.087 A 
HETATM    5  C   UNK N   1      52.188  32.527  51.595  0.00  0.00     0.084 A 
HETATM    6  C   UNK N   1      49.891  33.593  52.808  0.00  0.00     0.077 A 
HETATM    7  C   UNK N   1      50.941  32.418  50.931  0.00  0.00     0.032 A 
HETATM    8  C   UNK N   1      52.272  33.148  52.844  0.00  0.00     0.075 A 
HETATM    9  C   UNK N   1      47.369  33.059  51.651  0.00  0.00     0.169 C 
HETATM   10  C   UNK N   1      48.657  34.194  53.374  0.00  0.00     0.167 C 
HETATM   11  C   UNK N   1      47.476  34.352  52.458  0.00  0.00     0.121 C 
ENDROOT
BRANCH   7  12
HETATM   12  C   UNK N   1      50.899  31.799  49.571  0.00  0.00     0.016 C 
HETATM   13  C   UNK N   1      50.951  32.500  48.421  0.00  0.00     0.011 C 
BRANCH  13  14
HETATM   14  C   UNK N   1      50.934  31.872  47.030  0.00  0.00     0.068 C 
HETATM   15  C   UNK N   1      49.571  31.946  46.307  0.00  0.00     0.050 C 
HETATM   16  C   UNK N   1      51.992  32.579  46.174  0.00  0.00     0.050 C 
BRANCH  14  17
HETATM   17  O   UNK N   1      51.300  30.518  47.147  0.00  0.00    -0.387 OA
HETATM   18  H   UNK N   1      50.663  29.978  46.608  0.00  0.00     0.211 HD
ENDBRANCH  14  17
ENDBRANCH  13  14
ENDBRANCH   7  12
BRANCH   5  19
HETATM   19  O   UNK N   1      53.310  31.992  51.060  0.00  0.00    -0.355 OA
HETATM   20  C   UNK N   1      54.413  32.777  50.784  0.00  0.00     0.210 C 
ENDBRANCH   5  19
BRANCH   9  21
HETATM   21  C   UNK N   1      46.207  33.095  50.689  0.00  0.00    -0.029 A 
HETATM   22  C   UNK N   1      45.703  31.893  50.162  0.00  0.00     0.010 A 
HETATM   23  C   UNK N   1      44.619  31.911  49.280  0.00  0.00     0.001 A 
HETATM   24  C   UNK N   1      44.043  33.126  48.903  0.00  0.00     0.000 A 
HETATM   25  C   UNK N   1      44.543  34.327  49.414  0.00  0.00     0.001 A 
HETATM   26  C   UNK N   1      45.615  34.314  50.313  0.00  0.00     0.010 A 
ENDBRANCH   9  21
BRANCH   4  27
HETATM   27  O   UNK N   1      51.238  34.282  54.662  0.00  0.00    -0.355 OA
HETATM   28  C   UNK N   1      51.985  35.424  54.844  0.00  0.00     0.210 C 
ENDBRANCH   4  27
TORSDOF 6
ENDMDL
MODEL 4
REMARK VINA RESULT:      -5.9      2.025      5.682
REMARK  6 active torsions:
REMARK  status: ('A' for Active; 'I' for Inactive)
REMARK    1  A    between atoms: O_2  and  C_7 
REMARK    2  A    between atoms: O_3  and  C_8 
REMARK    3  A    between atoms: O_5  and  C_20 
REMARK    4  A    between atoms: C_9  and  C_18 
REMARK    5  A    between atoms: C_11  and  C_23 
REMARK    6  A    between atoms: C_20  and  C_25 
ROOT
HETATM    1  O   UNK N   1      49.081  32.986  47.811  0.00  0.00    -0.339 OA
HETATM    2  O   UNK N   1      48.251  31.423  44.271  0.00  0.00    -0.292 OA
HETATM    3  C   UNK N   1      50.126  32.377  47.178  0.00  0.00     0.099 A 
HETATM    4  C   UNK N   1      50.963  31.125  45.255  0.00  0.00     0.087 A 
HETATM    5  C   UNK N   1      52.475  31.733  47.058  0.00  0.00     0.084 A 
HETATM    6  C   UNK N   1      49.898  31.735  45.942  0.00  0.00     0.077 A 
HETATM    7  C   UNK N   1      51.417  32.363  47.760  0.00  0.00     0.032 A 
HETATM    8  C   UNK N   1      52.241  31.128  45.821  0.00  0.00     0.075 A 
HETATM    9  C   UNK N   1      47.886  33.294  47.168  0.00  0.00     0.169 C 
HETATM   10  C   UNK N   1      48.506  31.712  45.428  0.00  0.00     0.167 C 
HETATM   11  C   UNK N   1      47.405  32.074  46.385  0.00  0.00     0.121 C 
ENDROOT
BRANCH   7  12
HETATM   12  C   UNK N   1      51.693  32.949  49.107  0.00  0.00     0.016 C 
HETATM   13  C   UNK N   1      51.662  32.244  50.257  0.00  0.00     0.011 C 
BRANCH  13  14
HETATM   14  C   UNK N   1      51.967  32.831  51.633  0.00  0.00     0.068 C 
HETATM   15  C   UNK N   1      50.719  33.176  52.476  0.00  0.00     0.050 C 
HETATM   16  C   UNK N   1      52.826  31.820  52.402  0.00  0.00     0.050 C 
BRANCH  14  17
HETATM   17  O   UNK N   1      52.723  34.005  51.460  0.00  0.00    -0.387 OA
HETATM   18  H   UNK N   1      53.535  33.775  50.934  0.00  0.00     0.211 HD
ENDBRANCH  14  17
ENDBRANCH  13  14
ENDBRANCH   7  12
BRANCH   5  19
HETATM   19  O   UNK N   1      53.737  31.745  47.547  0.00  0.00    -0.355 OA
HETATM   20  C   UNK N   1      54.789  31.224  46.817  0.00  0.00     0.210 C 
ENDBRANCH   5  19
BRANCH   9  21
HETATM   21  C   UNK N   1      46.856  33.759  48.168  0.00  0.00    -0.029 A 
HETATM   22  C   UNK N   1      47.215  34.693  49.155  0.00  0.00     0.010 A 
HETATM   23  C   UNK N   1      46.267  35.141  50.079  0.00  0.00     0.001 A 
HETATM   24  C   UNK N   1      44.961  34.650  50.037  0.00  0.00     0.000 A 
HETATM   25  C   UNK N   1      44.595  33.714  49.064  0.00  0.00     0.001 A 
HETATM   26  C   UNK N   1      45.535  33.276  48.124  0.00  0.00     0.010 A 
ENDBRANCH   9  21
BRANCH   4  27
HETATM   27  O   UNK N   1      50.756  30.531  44.060  0.00  0.00    -0.355 OA
HETATM   28  C   UNK N   1      51.547  30.804  42.966  0.00  0.00     0.210 C 
ENDBRANCH   4  27
TORSDOF 6
ENDMDL
MODEL 5
REMARK VINA RESULT:      -5.4      3.332      7.954
REMARK  6 active torsions:
REMARK  status: ('A' for Active; 'I' for Inactive)
REMARK    1  A    between atoms: O_2  and  C_7 
REMARK    2  A    between atoms: O_3  and  C_8 
REMARK    3  A    between atoms: O_5  and  C_20 
REMARK    4  A    between atoms: C_9  and  C_18 
REMARK    5  A    between atoms: C_11  and  C_23 
REMARK    6  A    between atoms: C_20  and  C_25 
ROOT
HETATM    1  O   UNK N   1      48.991  32.960  51.115  0.00  0.00    -0.339 OA
HETATM    2  O   UNK N   1      46.873  33.120  54.455  0.00  0.00    -0.292 OA
HETATM    3  C   UNK N   1      49.708  32.848  52.271  0.00  0.00     0.099 A 
HETATM    4  C   UNK N   1      49.747  32.825  54.714  0.00  0.00     0.087 A 
HETATM    5  C   UNK N   1      51.809  32.522  53.464  0.00  0.00     0.084 A 
HETATM    6  C   UNK N   1      49.037  32.964  53.507  0.00  0.00     0.077 A 
HETATM    7  C   UNK N   1      51.110  32.648  52.238  0.00  0.00     0.032 A 
HETATM    8  C   UNK N   1      51.127  32.607  54.680  0.00  0.00     0.075 A 
HETATM    9  C   UNK N   1      47.604  32.856  51.075  0.00  0.00     0.169 C 
HETATM   10  C   UNK N   1      47.583  33.260  53.473  0.00  0.00     0.167 C 
HETATM   11  C   UNK N   1      47.000  33.731  52.170  0.00  0.00     0.121 C 
ENDROOT
BRANCH   7  12
HETATM   12  C   UNK N   1      51.881  32.609  50.959  0.00  0.00     0.016 C 
HETATM   13  C   UNK N   1      52.120  33.690  50.189  0.00  0.00     0.011 C 
BRANCH  13  14
HETATM   14  C   UNK N   1      52.928  33.661  48.894  0.00  0.00     0.068 C 
HETATM   15  C   UNK N   1      53.694  32.343  48.643  0.00  0.00     0.050 C 
HETATM   16  C   UNK N   1      51.967  33.912  47.726  0.00  0.00     0.050 C 
BRANCH  14  17
HETATM   17  O   UNK N   1      53.860  34.715  48.926  0.00  0.00    -0.387 OA
HETATM   18  H   UNK N   1      53.373  35.564  48.748  0.00  0.00     0.211 HD
ENDBRANCH  14  17
ENDBRANCH  13  14
ENDBRANCH   7  12
BRANCH   5  19
HETATM   19  O   UNK N   1      53.139  32.270  53.482  0.00  0.00    -0.355 OA
HETATM   20  C   UNK N   1      53.767  31.834  54.634  0.00  0.00     0.210 C 
ENDBRANCH   5  19
BRANCH   9  21
HETATM   21  C   UNK N   1      47.087  33.232  49.708  0.00  0.00    -0.029 A 
HETATM   22  C   UNK N   1      47.908  33.961  48.830  0.00  0.00     0.010 A 
HETATM   23  C   UNK N   1      47.446  34.306  47.557  0.00  0.00     0.001 A 
HETATM   24  C   UNK N   1      46.158  33.942  47.157  0.00  0.00     0.000 A 
HETATM   25  C   UNK N   1      45.331  33.224  48.026  0.00  0.00     0.001 A 
HETATM   26  C   UNK N   1      45.795  32.860  49.294  0.00  0.00     0.010 A 
ENDBRANCH   9  21
BRANCH   4  27
HETATM   27  O   UNK N   1      49.106  32.909  55.899  0.00  0.00    -0.355 OA
HETATM   28  C   UNK N   1      49.047  31.844  56.770  0.00  0.00     0.210 C 
ENDBRANCH   4  27
TORSDOF 6
ENDMDL
MODEL 6
REMARK VINA RESULT:      -5.2      2.285      5.678
REMARK  6 active torsions:
REMARK  status: ('A' for Active; 'I' for Inactive)
REMARK    1  A    between atoms: O_2  and  C_7 
REMARK    2  A    between atoms: O_3  and  C_8 
REMARK    3  A    between atoms: O_5  and  C_20 
REMARK    4  A    between atoms: C_9  and  C_18 
REMARK    5  A    between atoms: C_11  and  C_23 
REMARK    6  A    between atoms: C_20  and  C_25 
ROOT
HETATM    1  O   UNK N   1      48.708  32.770  50.074  0.00  0.00    -0.339 OA
HETATM    2  O   UNK N   1      44.928  33.154  48.961  0.00  0.00    -0.292 OA
HETATM    3  C   UNK N   1      48.464  32.583  48.743  0.00  0.00     0.099 A 
HETATM    4  C   UNK N   1      46.858  32.474  46.906  0.00  0.00     0.087 A 
HETATM    5  C   UNK N   1      49.227  32.142  46.470  0.00  0.00     0.084 A 
HETATM    6  C   UNK N   1      47.134  32.635  48.276  0.00  0.00     0.077 A 
HETATM    7  C   UNK N   1      49.525  32.313  47.844  0.00  0.00     0.032 A 
HETATM    8  C   UNK N   1      47.907  32.227  46.016  0.00  0.00     0.075 A 
HETATM    9  C   UNK N   1      47.771  33.327  50.940  0.00  0.00     0.169 C 
HETATM   10  C   UNK N   1      46.061  32.836  49.283  0.00  0.00     0.167 C 
HETATM   11  C   UNK N   1      46.421  32.646  50.729  0.00  0.00     0.121 C 
ENDROOT
BRANCH   7  12
HETATM   12  C   UNK N   1      50.940  32.158  48.301  0.00  0.00     0.016 C 
HETATM   13  C   UNK N   1      51.766  33.191  48.560  0.00  0.00     0.011 C 
BRANCH  13  14
HETATM   14  C   UNK N   1      53.204  33.040  49.051  0.00  0.00     0.068 C 
HETATM   15  C   UNK N   1      54.183  32.465  48.004  0.00  0.00     0.050 C 
HETATM   16  C   UNK N   1      53.702  34.419  49.497  0.00  0.00     0.050 C 
BRANCH  14  17
HETATM   17  O   UNK N   1      53.205  32.191  50.173  0.00  0.00    -0.387 OA
HETATM   18  H   UNK N   1      53.186  31.251  49.849  0.00  0.00     0.211 HD
ENDBRANCH  14  17
ENDBRANCH  13  14
ENDBRANCH   7  12
BRANCH   5  19
HETATM   19  O   UNK N   1      50.212  31.941  45.564  0.00  0.00    -0.355 OA
HETATM   20  C   UNK N   1      50.086  30.984  44.574  0.00  0.00     0.210 C 
ENDBRANCH   5  19
BRANCH   9  21
HETATM   21  C   UNK N   1      48.241  33.208  52.369  0.00  0.00    -0.029 A 
HETATM   22  C   UNK N   1      47.303  33.008  53.396  0.00  0.00     0.010 A 
HETATM   23  C   UNK N   1      47.726  32.883  54.723  0.00  0.00     0.001 A 
HETATM   24  C   UNK N   1      49.084  32.975  55.036  0.00  0.00     0.000 A 
HETATM   25  C   UNK N   1      50.024  33.182  54.022  0.00  0.00     0.001 A 
HETATM   26  C   UNK N   1      49.608  33.288  52.691  0.00  0.00     0.010 A 
ENDBRANCH   9  21
BRANCH   4  27
HETATM   27  O   UNK N   1      45.590  32.548  46.449  0.00  0.00    -0.355 OA
HETATM   28  C   UNK N   1      45.176  33.562  45.615  0.00  0.00     0.210 C 
ENDBRANCH   4  27
TORSDOF 6
ENDMDL
MODEL 7
REMARK VINA RESULT:      -5.1     23.411     25.313
REMARK  6 active torsions:
REMARK  status: ('A' for Active; 'I' for Inactive)
REMARK    1  A    between atoms: O_2  and  C_7 
REMARK    2  A    between atoms: O_3  and  C_8 
REMARK    3  A    between atoms: O_5  and  C_20 
REMARK    4  A    between atoms: C_9  and  C_18 
REMARK    5  A    between atoms: C_11  and  C_23 
REMARK    6  A    between atoms: C_20  and  C_25 
ROOT
HETATM    1  O   UNK N   1      29.560  42.471  56.344  0.00  0.00    -0.339 OA
HETATM    2  O   UNK N   1      29.444  38.621  57.254  0.00  0.00    -0.292 OA
HETATM    3  C   UNK N   1      29.945  42.156  57.616  0.00  0.00     0.099 A 
HETATM    4  C   UNK N   1      30.282  40.456  59.337  0.00  0.00     0.087 A 
HETATM    5  C   UNK N   1      30.793  42.785  59.813  0.00  0.00     0.084 A 
HETATM    6  C   UNK N   1      29.867  40.813  58.042  0.00  0.00     0.077 A 
HETATM    7  C   UNK N   1      30.390  43.162  58.508  0.00  0.00     0.032 A 
HETATM    8  C   UNK N   1      30.741  41.447  60.211  0.00  0.00     0.075 A 
HETATM    9  C   UNK N   1      29.407  41.515  55.344  0.00  0.00     0.169 C 
HETATM   10  C   UNK N   1      29.311  39.822  57.087  0.00  0.00     0.167 C 
HETATM   11  C   UNK N   1      28.582  40.349  55.883  0.00  0.00     0.121 C 
ENDROOT
BRANCH   7  12
HETATM   12  C   UNK N   1      30.405  44.610  58.137  0.00  0.00     0.016 C 
HETATM   13  C   UNK N   1      29.418  45.477  58.441  0.00  0.00     0.011 C 
BRANCH  13  14
HETATM   14  C   UNK N   1      29.440  46.961  58.087  0.00  0.00     0.068 C 
HETATM   15  C   UNK N   1      29.426  47.913  59.304  0.00  0.00     0.050 C 
HETATM   16  C   UNK N   1      30.698  47.234  57.253  0.00  0.00     0.050 C 
BRANCH  14  17
HETATM   17  O   UNK N   1      28.316  47.247  57.289  0.00  0.00    -0.387 OA
HETATM   18  H   UNK N   1      27.687  46.480  57.356  0.00  0.00     0.211 HD
ENDBRANCH  14  17
ENDBRANCH  13  14
ENDBRANCH   7  12
BRANCH   5  19
HETATM   19  O   UNK N   1      31.281  43.701  60.682  0.00  0.00    -0.355 OA
HETATM   20  C   UNK N   1      31.976  43.314  61.812  0.00  0.00     0.210 C 
ENDBRANCH   5  19
BRANCH   9  21
HETATM   21  C   UNK N   1      28.774  42.131  54.121  0.00  0.00    -0.029 A 
HETATM   22  C   UNK N   1      29.471  42.129  52.900  0.00  0.00     0.010 A 
HETATM   23  C   UNK N   1      28.890  42.685  51.757  0.00  0.00     0.001 A 
HETATM   24  C   UNK N   1      27.620  43.262  51.826  0.00  0.00     0.000 A 
HETATM   25  C   UNK N   1      26.922  43.276  53.037  0.00  0.00     0.001 A 
HETATM   26  C   UNK N   1      27.490  42.704  54.180  0.00  0.00     0.010 A 
ENDBRANCH   9  21
BRANCH   4  27
HETATM   27  O   UNK N   1      30.235  39.169  59.742  0.00  0.00    -0.355 OA
HETATM   28  C   UNK N   1      31.332  38.537  60.283  0.00  0.00     0.210 C 
ENDBRANCH   4  27
TORSDOF 6
ENDMDL
MODEL 8
REMARK VINA RESULT:      -5.0     23.453     24.244
REMARK  6 active torsions:
REMARK  status: ('A' for Active; 'I' for Inactive)
REMARK    1  A    between atoms: O_2  and  C_7 
REMARK    2  A    between atoms: O_3  and  C_8 
REMARK    3  A    between atoms: O_5  and  C_20 
REMARK    4  A    between atoms: C_9  and  C_18 
REMARK    5  A    between atoms: C_11  and  C_23 
REMARK    6  A    between atoms: C_20  and  C_25 
ROOT
HETATM    1  O   UNK N   1      29.406  41.424  56.336  0.00  0.00    -0.339 OA
HETATM    2  O   UNK N   1      29.289  39.032  59.489  0.00  0.00    -0.292 OA
HETATM    3  C   UNK N   1      29.124  40.114  56.071  0.00  0.00     0.099 A 
HETATM    4  C   UNK N   1      28.817  37.834  56.890  0.00  0.00     0.087 A 
HETATM    5  C   UNK N   1      28.552  38.320  54.523  0.00  0.00     0.084 A 
HETATM    6  C   UNK N   1      29.131  39.183  57.131  0.00  0.00     0.077 A 
HETATM    7  C   UNK N   1      28.856  39.685  54.748  0.00  0.00     0.032 A 
HETATM    8  C   UNK N   1      28.532  37.415  55.587  0.00  0.00     0.075 A 
HETATM    9  C   UNK N   1      29.380  41.954  57.622  0.00  0.00     0.169 C 
HETATM   10  C   UNK N   1      29.505  39.682  58.478  0.00  0.00     0.167 C 
HETATM   11  C   UNK N   1      30.153  41.035  58.565  0.00  0.00     0.121 C 
ENDROOT
BRANCH   7  12
HETATM   12  C   UNK N   1      28.924  40.612  53.577  0.00  0.00     0.016 C 
HETATM   13  C   UNK N   1      27.868  40.925  52.800  0.00  0.00     0.011 C 
BRANCH  13  14
HETATM   14  C   UNK N   1      27.926  41.890  51.619  0.00  0.00     0.068 C 
HETATM   15  C   UNK N   1      26.581  42.567  51.275  0.00  0.00     0.050 C 
HETATM   16  C   UNK N   1      28.963  42.973  51.939  0.00  0.00     0.050 C 
BRANCH  14  17
HETATM   17  O   UNK N   1      28.369  41.183  50.485  0.00  0.00    -0.387 OA
HETATM   18  H   UNK N   1      29.079  40.550  50.774  0.00  0.00     0.211 HD
ENDBRANCH  14  17
ENDBRANCH  13  14
ENDBRANCH   7  12
BRANCH   5  19
HETATM   19  O   UNK N   1      28.232  37.873  53.286  0.00  0.00    -0.355 OA
HETATM   20  C   UNK N   1      27.514  36.704  53.113  0.00  0.00     0.210 C 
ENDBRANCH   5  19
BRANCH   9  21
HETATM   21  C   UNK N   1      29.938  43.356  57.624  0.00  0.00    -0.029 A 
HETATM   22  C   UNK N   1      31.277  43.573  57.255  0.00  0.00     0.010 A 
HETATM   23  C   UNK N   1      31.804  44.867  57.240  0.00  0.00     0.001 A 
HETATM   24  C   UNK N   1      31.006  45.952  57.611  0.00  0.00     0.000 A 
HETATM   25  C   UNK N   1      29.675  45.746  57.988  0.00  0.00     0.001 A 
HETATM   26  C   UNK N   1      29.138  44.455  57.986  0.00  0.00     0.010 A 
ENDBRANCH   9  21
BRANCH   4  27
HETATM   27  O   UNK N   1      28.796  36.943  57.905  0.00  0.00    -0.355 OA
HETATM   28  C   UNK N   1      28.887  35.587  57.684  0.00  0.00     0.210 C 
ENDBRANCH   4  27
TORSDOF 6
ENDMDL
MODEL 9
REMARK VINA RESULT:      -5.0     22.854     26.271
REMARK  6 active torsions:
REMARK  status: ('A' for Active; 'I' for Inactive)
REMARK    1  A    between atoms: O_2  and  C_7 
REMARK    2  A    between atoms: O_3  and  C_8 
REMARK    3  A    between atoms: O_5  and  C_20 
REMARK    4  A    between atoms: C_9  and  C_18 
REMARK    5  A    between atoms: C_11  and  C_23 
REMARK    6  A    between atoms: C_20  and  C_25 
ROOT
HETATM    1  O   UNK N   1      30.412  44.243  58.347  0.00  0.00    -0.339 OA
HETATM    2  O   UNK N   1      32.443  41.910  60.817  0.00  0.00    -0.292 OA
HETATM    3  C   UNK N   1      30.603  44.742  59.604  0.00  0.00     0.099 A 
HETATM    4  C   UNK N   1      31.491  44.444  61.860  0.00  0.00     0.087 A 
HETATM    5  C   UNK N   1      30.363  46.513  61.263  0.00  0.00     0.084 A 
HETATM    6  C   UNK N   1      31.258  43.944  60.566  0.00  0.00     0.077 A 
HETATM    7  C   UNK N   1      30.127  46.031  59.952  0.00  0.00     0.032 A 
HETATM    8  C   UNK N   1      31.041  45.723  62.196  0.00  0.00     0.075 A 
HETATM    9  C   UNK N   1      31.103  43.137  57.863  0.00  0.00     0.169 C 
HETATM   10  C   UNK N   1      31.653  42.571  60.163  0.00  0.00     0.167 C 
HETATM   11  C   UNK N   1      31.056  42.017  58.900  0.00  0.00     0.121 C 
ENDROOT
BRANCH   7  12
HETATM   12  C   UNK N   1      29.349  46.879  58.999  0.00  0.00     0.016 C 
HETATM   13  C   UNK N   1      29.851  47.961  58.370  0.00  0.00     0.011 C 
BRANCH  13  14
HETATM   14  C   UNK N   1      29.070  48.817  57.377  0.00  0.00     0.068 C 
HETATM   15  C   UNK N   1      28.159  49.884  58.024  0.00  0.00     0.050 C 
HETATM   16  C   UNK N   1      30.076  49.513  56.453  0.00  0.00     0.050 C 
BRANCH  14  17
HETATM   17  O   UNK N   1      28.268  47.969  56.590  0.00  0.00    -0.387 OA
HETATM   18  H   UNK N   1      27.899  47.259  57.180  0.00  0.00     0.211 HD
ENDBRANCH  14  17
ENDBRANCH  13  14
ENDBRANCH   7  12
BRANCH   5  19
HETATM   19  O   UNK N   1      29.980  47.760  61.625  0.00  0.00    -0.355 OA
HETATM   20  C   UNK N   1      30.290  48.267  62.872  0.00  0.00     0.210 C 
ENDBRANCH   5  19
BRANCH   9  21
HETATM   21  C   UNK N   1      30.530  42.698  56.538  0.00  0.00    -0.029 A 
HETATM   22  C   UNK N   1      31.389  42.238  55.525  0.00  0.00     0.010 A 
HETATM   23  C   UNK N   1      30.870  41.816  54.298  0.00  0.00     0.001 A 
HETATM   24  C   UNK N   1      29.494  41.866  54.066  0.00  0.00     0.000 A 
HETATM   25  C   UNK N   1      28.631  42.330  55.064  0.00  0.00     0.001 A 
HETATM   26  C   UNK N   1      29.144  42.735  56.301  0.00  0.00     0.010 A 
ENDBRANCH   9  21
BRANCH   4  27
HETATM   27  O   UNK N   1      32.141  43.695  62.776  0.00  0.00    -0.355 OA
HETATM   28  C   UNK N   1      31.557  43.344  63.973  0.00  0.00     0.210 C 
ENDBRANCH   4  27
TORSDOF 6
ENDMDL
