MODEL 1
REMARK VINA RESULT:      -7.4      0.000      0.000
REMARK  2 active torsions:
REMARK  status: ('A' for Active; 'I' for Inactive)
REMARK    1  A    between atoms: O_1  and  C_4 
REMARK    2  A    between atoms: O_2  and  C_5 
ROOT
HETATM    1  O   UNK N   1      53.058  33.301  52.778  0.00  0.00    -0.293 OA
HETATM    2  C   UNK N   1      46.405  32.545  46.409  0.00  0.00     0.176 C 
HETATM    3  C   UNK N   1      45.303  33.624  46.429  0.00  0.00     0.151 C 
HETATM    4  C   UNK N   1      49.061  32.699  49.960  0.00  0.00    -0.000 C 
HETATM    5  C   UNK N   1      47.705  33.444  50.067  0.00  0.00     0.003 C 
HETATM    6  C   UNK N   1      50.039  33.249  51.020  0.00  0.00     0.010 C 
HETATM    7  C   UNK N   1      46.667  32.849  49.027  0.00  0.00    -0.014 C 
HETATM    8  C   UNK N   1      49.503  33.163  52.468  0.00  0.00    -0.009 C 
HETATM    9  C   UNK N   1      51.907  33.297  52.389  0.00  0.00     0.156 C 
HETATM   10  C   UNK N   1      47.310  32.722  47.626  0.00  0.00    -0.044 C 
HETATM   11  C   UNK N   1      50.724  33.667  53.197  0.00  0.00    -0.008 C 
HETATM   12  C   UNK N   1      44.518  33.577  47.756  0.00  0.00     0.036 C 
HETATM   13  C   UNK N   1      51.493  32.740  51.063  0.00  0.00     0.089 C 
HETATM   14  C   UNK N   1      47.167  33.514  51.536  0.00  0.00     0.007 C 
HETATM   15  C   UNK N   1      49.649  32.917  48.553  0.00  0.00     0.033 C 
HETATM   16  C   UNK N   1      45.470  33.849  48.932  0.00  0.00     0.017 C 
HETATM   17  C   UNK N   1      48.226  34.037  52.531  0.00  0.00     0.015 C 
HETATM   18  C   UNK N   1      46.150  31.446  49.454  0.00  0.00     0.020 C 
HETATM   19  C   UNK N   1      49.233  31.707  52.943  0.00  0.00     0.021 C 
HETATM   20  C   UNK N   1      48.649  32.786  47.437  0.00  0.00    -0.020 C 
HETATM   21  C   UNK N   1      50.690  34.300  54.394  0.00  0.00    -0.020 C 
HETATM   22  C   UNK N   1      51.890  34.836  55.127  0.00  0.00     0.036 C 
ENDROOT
BRANCH   2  23
HETATM   23  O   UNK N   1      45.840  31.260  46.431  0.00  0.00    -0.389 OA
HETATM   24  H   UNK N   1      45.667  31.030  47.381  0.00  0.00     0.210 HD
ENDBRANCH   2  23
BRANCH   3  25
HETATM   25  O   UNK N   1      44.446  33.493  45.321  0.00  0.00    -0.393 OA
HETATM   26  H   UNK N   1      43.988  32.615  45.385  0.00  0.00     0.210 HD
ENDBRANCH   3  25
TORSDOF 2
ENDMDL
MODEL 2
REMARK VINA RESULT:      -6.2     23.353     25.306
REMARK  2 active torsions:
REMARK  status: ('A' for Active; 'I' for Inactive)
REMARK    1  A    between atoms: O_1  and  C_4 
REMARK    2  A    between atoms: O_2  and  C_5 
ROOT
HETATM    1  O   UNK N   1      32.870  43.057  57.398  0.00  0.00    -0.293 OA
HETATM    2  C   UNK N   1      28.158  50.980  58.052  0.00  0.00     0.176 C 
HETATM    3  C   UNK N   1      28.338  51.786  59.355  0.00  0.00     0.151 C 
HETATM    4  C   UNK N   1      29.929  46.916  58.256  0.00  0.00    -0.000 C 
HETATM    5  C   UNK N   1      29.691  47.645  59.605  0.00  0.00     0.003 C 
HETATM    6  C   UNK N   1      30.971  45.794  58.451  0.00  0.00     0.010 C 
HETATM    7  C   UNK N   1      28.579  48.761  59.438  0.00  0.00    -0.014 C 
HETATM    8  C   UNK N   1      30.586  44.769  59.544  0.00  0.00    -0.009 C 
HETATM    9  C   UNK N   1      32.161  43.869  57.959  0.00  0.00     0.156 C 
HETATM   10  C   UNK N   1      28.860  49.630  58.190  0.00  0.00    -0.044 C 
HETATM   11  C   UNK N   1      31.737  43.808  59.374  0.00  0.00    -0.008 C 
HETATM   12  C   UNK N   1      27.832  50.980  60.569  0.00  0.00     0.036 C 
HETATM   13  C   UNK N   1      31.456  44.976  57.239  0.00  0.00     0.089 C 
HETATM   14  C   UNK N   1      29.430  46.656  60.790  0.00  0.00     0.007 C 
HETATM   15  C   UNK N   1      30.451  47.929  57.219  0.00  0.00     0.033 C 
HETATM   16  C   UNK N   1      28.638  49.679  60.702  0.00  0.00     0.017 C 
HETATM   17  C   UNK N   1      30.498  45.544  60.882  0.00  0.00     0.015 C 
HETATM   18  C   UNK N   1      27.156  48.151  59.295  0.00  0.00     0.020 C 
HETATM   19  C   UNK N   1      29.273  43.997  59.234  0.00  0.00     0.021 C 
HETATM   20  C   UNK N   1      29.727  49.247  57.223  0.00  0.00    -0.020 C 
HETATM   21  C   UNK N   1      32.227  43.023  60.364  0.00  0.00    -0.020 C 
HETATM   22  C   UNK N   1      33.390  42.078  60.227  0.00  0.00     0.036 C 
ENDROOT
BRANCH   2  23
HETATM   23  O   UNK N   1      26.795  50.771  57.785  0.00  0.00    -0.389 OA
HETATM   24  H   UNK N   1      26.686  49.814  57.540  0.00  0.00     0.210 HD
ENDBRANCH   2  23
BRANCH   3  25
HETATM   25  O   UNK N   1      27.703  53.038  59.268  0.00  0.00    -0.393 OA
HETATM   26  H   UNK N   1      27.442  53.317  60.184  0.00  0.00     0.210 HD
ENDBRANCH   3  25
TORSDOF 2
ENDMDL
MODEL 3
REMARK VINA RESULT:      -5.9      1.755      2.270
REMARK  2 active torsions:
REMARK  status: ('A' for Active; 'I' for Inactive)
REMARK    1  A    between atoms: O_1  and  C_4 
REMARK    2  A    between atoms: O_2  and  C_5 
ROOT
HETATM    1  O   UNK N   1      54.836  31.752  50.020  0.00  0.00    -0.293 OA
HETATM    2  C   UNK N   1      46.583  32.255  45.894  0.00  0.00     0.176 C 
HETATM    3  C   UNK N   1      45.692  33.455  46.273  0.00  0.00     0.151 C 
HETATM    4  C   UNK N   1      50.150  31.837  48.500  0.00  0.00    -0.000 C 
HETATM    5  C   UNK N   1      48.999  32.733  49.027  0.00  0.00     0.003 C 
HETATM    6  C   UNK N   1      51.460  32.190  49.237  0.00  0.00     0.010 C 
HETATM    7  C   UNK N   1      47.633  32.342  48.324  0.00  0.00    -0.014 C 
HETATM    8  C   UNK N   1      51.361  32.070  50.776  0.00  0.00    -0.009 C 
HETATM    9  C   UNK N   1      53.633  31.916  49.990  0.00  0.00     0.156 C 
HETATM   10  C   UNK N   1      47.817  32.235  46.793  0.00  0.00    -0.044 C 
HETATM   11  C   UNK N   1      52.798  32.370  51.124  0.00  0.00    -0.008 C 
HETATM   12  C   UNK N   1      45.328  33.412  47.771  0.00  0.00     0.036 C 
HETATM   13  C   UNK N   1      52.779  31.506  48.831  0.00  0.00     0.089 C 
HETATM   14  C   UNK N   1      48.925  32.767  50.590  0.00  0.00     0.007 C 
HETATM   15  C   UNK N   1      50.328  32.079  46.988  0.00  0.00     0.033 C 
HETATM   16  C   UNK N   1      46.608  33.485  48.619  0.00  0.00     0.017 C 
HETATM   17  C   UNK N   1      50.289  33.086  51.242  0.00  0.00     0.015 C 
HETATM   18  C   UNK N   1      47.075  30.987  48.843  0.00  0.00     0.020 C 
HETATM   19  C   UNK N   1      51.044  30.628  51.266  0.00  0.00     0.021 C 
HETATM   20  C   UNK N   1      49.039  32.148  46.217  0.00  0.00    -0.020 C 
HETATM   21  C   UNK N   1      53.199  32.918  52.295  0.00  0.00    -0.020 C 
HETATM   22  C   UNK N   1      54.622  33.252  52.654  0.00  0.00     0.036 C 
ENDROOT
BRANCH   2  23
HETATM   23  O   UNK N   1      45.878  31.049  46.044  0.00  0.00    -0.389 OA
HETATM   24  H   UNK N   1      45.361  31.114  46.890  0.00  0.00     0.210 HD
ENDBRANCH   2  23
BRANCH   3  25
HETATM   25  O   UNK N   1      44.541  33.507  45.466  0.00  0.00    -0.393 OA
HETATM   26  H   UNK N   1      44.822  33.424  44.518  0.00  0.00     0.210 HD
ENDBRANCH   3  25
TORSDOF 2
ENDMDL
MODEL 4
REMARK VINA RESULT:      -5.5     22.507     24.816
REMARK  2 active torsions:
REMARK  status: ('A' for Active; 'I' for Inactive)
REMARK    1  A    between atoms: O_1  and  C_4 
REMARK    2  A    between atoms: O_2  and  C_5 
ROOT
HETATM    1  O   UNK N   1      29.045  50.357  55.898  0.00  0.00    -0.293 OA
HETATM    2  C   UNK N   1      32.407  42.535  59.492  0.00  0.00     0.176 C 
HETATM    3  C   UNK N   1      31.381  41.442  59.852  0.00  0.00     0.151 C 
HETATM    4  C   UNK N   1      30.530  46.423  58.467  0.00  0.00    -0.000 C 
HETATM    5  C   UNK N   1      29.647  45.397  59.223  0.00  0.00     0.003 C 
HETATM    6  C   UNK N   1      29.630  47.460  57.762  0.00  0.00     0.010 C 
HETATM    7  C   UNK N   1      30.555  44.359  60.004  0.00  0.00    -0.014 C 
HETATM    8  C   UNK N   1      28.664  48.199  58.718  0.00  0.00    -0.009 C 
HETATM    9  C   UNK N   1      29.076  49.440  56.694  0.00  0.00     0.156 C 
HETATM   10  C   UNK N   1      31.670  43.809  59.084  0.00  0.00    -0.044 C 
HETATM   11  C   UNK N   1      28.057  49.166  57.730  0.00  0.00    -0.008 C 
HETATM   12  C   UNK N   1      30.415  41.940  60.947  0.00  0.00     0.036 C 
HETATM   13  C   UNK N   1      30.260  48.539  56.861  0.00  0.00     0.089 C 
HETATM   14  C   UNK N   1      28.550  46.078  60.110  0.00  0.00     0.007 C 
HETATM   15  C   UNK N   1      31.381  45.682  57.418  0.00  0.00     0.033 C 
HETATM   16  C   UNK N   1      29.643  43.168  60.440  0.00  0.00     0.017 C 
HETATM   17  C   UNK N   1      27.728  47.130  59.333  0.00  0.00     0.015 C 
HETATM   18  C   UNK N   1      31.226  44.995  61.254  0.00  0.00     0.020 C 
HETATM   19  C   UNK N   1      29.391  49.031  59.812  0.00  0.00     0.021 C 
HETATM   20  C   UNK N   1      32.001  44.405  57.914  0.00  0.00    -0.020 C 
HETATM   21  C   UNK N   1      26.813  49.690  57.844  0.00  0.00    -0.020 C 
HETATM   22  C   UNK N   1      26.176  50.633  56.859  0.00  0.00     0.036 C 
ENDROOT
BRANCH   2  23
HETATM   23  O   UNK N   1      33.241  42.810  60.588  0.00  0.00    -0.389 OA
HETATM   24  H   UNK N   1      33.114  43.767  60.823  0.00  0.00     0.210 HD
ENDBRANCH   2  23
BRANCH   3  25
HETATM   25  O   UNK N   1      32.022  40.251  60.236  0.00  0.00    -0.393 OA
HETATM   26  H   UNK N   1      33.002  40.404  60.211  0.00  0.00     0.210 HD
ENDBRANCH   3  25
TORSDOF 2
ENDMDL
MODEL 5
REMARK VINA RESULT:      -5.5     20.374     22.586
REMARK  2 active torsions:
REMARK  status: ('A' for Active; 'I' for Inactive)
REMARK    1  A    between atoms: O_1  and  C_4 
REMARK    2  A    between atoms: O_2  and  C_5 
ROOT
HETATM    1  O   UNK N   1      32.621  42.853  56.826  0.00  0.00    -0.293 OA
HETATM    2  C   UNK N   1      26.241  41.426  50.294  0.00  0.00     0.176 C 
HETATM    3  C   UNK N   1      25.006  42.349  50.319  0.00  0.00     0.151 C 
HETATM    4  C   UNK N   1      28.789  41.818  53.906  0.00  0.00    -0.000 C 
HETATM    5  C   UNK N   1      27.345  42.376  54.003  0.00  0.00     0.003 C 
HETATM    6  C   UNK N   1      29.667  42.460  55.001  0.00  0.00     0.010 C 
HETATM    7  C   UNK N   1      26.414  41.682  52.925  0.00  0.00    -0.014 C 
HETATM    8  C   UNK N   1      29.121  42.261  56.434  0.00  0.00    -0.009 C 
HETATM    9  C   UNK N   1      31.487  42.711  56.411  0.00  0.00     0.156 C 
HETATM   10  C   UNK N   1      27.093  41.682  51.536  0.00  0.00    -0.044 C 
HETATM   11  C   UNK N   1      30.252  42.898  57.203  0.00  0.00    -0.008 C 
HETATM   12  C   UNK N   1      24.211  42.160  51.628  0.00  0.00     0.036 C 
HETATM   13  C   UNK N   1      31.174  42.144  55.062  0.00  0.00     0.089 C 
HETATM   14  C   UNK N   1      26.776  42.332  55.461  0.00  0.00     0.007 C 
HETATM   15  C   UNK N   1      29.369  42.154  52.518  0.00  0.00     0.033 C 
HETATM   16  C   UNK N   1      25.097  42.520  52.831  0.00  0.00     0.017 C 
HETATM   17  C   UNK N   1      27.740  42.958  56.494  0.00  0.00     0.015 C 
HETATM   18  C   UNK N   1      26.078  40.212  53.302  0.00  0.00     0.020 C 
HETATM   19  C   UNK N   1      29.036  40.769  56.863  0.00  0.00     0.021 C 
HETATM   20  C   UNK N   1      28.415  41.926  51.378  0.00  0.00    -0.020 C 
HETATM   21  C   UNK N   1      30.113  43.485  58.416  0.00  0.00    -0.020 C 
HETATM   22  C   UNK N   1      31.220  44.151  59.189  0.00  0.00     0.036 C 
ENDROOT
BRANCH   2  23
HETATM   23  O   UNK N   1      25.849  40.077  50.268  0.00  0.00    -0.389 OA
HETATM   24  H   UNK N   1      26.676  39.531  50.196  0.00  0.00     0.210 HD
ENDBRANCH   2  23
BRANCH   3  25
HETATM   25  O   UNK N   1      24.194  42.141  49.190  0.00  0.00    -0.393 OA
HETATM   26  H   UNK N   1      23.711  41.283  49.310  0.00  0.00     0.210 HD
ENDBRANCH   3  25
TORSDOF 2
ENDMDL
MODEL 6
REMARK VINA RESULT:      -5.5     23.353     25.405
REMARK  2 active torsions:
REMARK  status: ('A' for Active; 'I' for Inactive)
REMARK    1  A    between atoms: O_1  and  C_4 
REMARK    2  A    between atoms: O_2  and  C_5 
ROOT
HETATM    1  O   UNK N   1      30.145  50.760  64.099  0.00  0.00    -0.293 OA
HETATM    2  C   UNK N   1      37.074  44.680  63.447  0.00  0.00     0.176 C 
HETATM    3  C   UNK N   1      38.028  44.586  64.655  0.00  0.00     0.151 C 
HETATM    4  C   UNK N   1      34.289  48.126  63.686  0.00  0.00    -0.000 C 
HETATM    5  C   UNK N   1      35.534  48.166  64.610  0.00  0.00     0.003 C 
HETATM    6  C   UNK N   1      33.210  49.086  64.229  0.00  0.00     0.010 C 
HETATM    7  C   UNK N   1      36.677  47.232  64.034  0.00  0.00    -0.014 C 
HETATM    8  C   UNK N   1      33.697  50.545  64.393  0.00  0.00    -0.009 C 
HETATM    9  C   UNK N   1      31.301  50.399  64.199  0.00  0.00     0.156 C 
HETATM   10  C   UNK N   1      36.110  45.846  63.652  0.00  0.00    -0.044 C 
HETATM   11  C   UNK N   1      32.395  51.177  64.818  0.00  0.00    -0.008 C 
HETATM   12  C   UNK N   1      38.762  45.925  64.876  0.00  0.00     0.036 C 
HETATM   13  C   UNK N   1      31.833  49.163  63.542  0.00  0.00     0.089 C 
HETATM   14  C   UNK N   1      36.003  49.625  64.932  0.00  0.00     0.007 C 
HETATM   15  C   UNK N   1      33.731  46.691  63.650  0.00  0.00     0.033 C 
HETATM   16  C   UNK N   1      37.739  47.036  65.164  0.00  0.00     0.017 C 
HETATM   17  C   UNK N   1      34.849  50.524  65.428  0.00  0.00     0.015 C 
HETATM   18  C   UNK N   1      37.353  47.845  62.775  0.00  0.00     0.020 C 
HETATM   19  C   UNK N   1      34.134  51.207  63.055  0.00  0.00     0.021 C 
HETATM   20  C   UNK N   1      34.781  45.622  63.515  0.00  0.00    -0.020 C 
HETATM   21  C   UNK N   1      32.304  52.285  65.593  0.00  0.00    -0.020 C 
HETATM   22  C   UNK N   1      31.018  52.918  66.052  0.00  0.00     0.036 C 
ENDROOT
BRANCH   2  23
HETATM   23  O   UNK N   1      37.798  44.877  62.260  0.00  0.00    -0.389 OA
HETATM   24  H   UNK N   1      37.904  45.857  62.138  0.00  0.00     0.210 HD
ENDBRANCH   2  23
BRANCH   3  25
HETATM   25  O   UNK N   1      38.936  43.522  64.503  0.00  0.00    -0.393 OA
HETATM   26  H   UNK N   1      39.829  43.833  64.804  0.00  0.00     0.210 HD
ENDBRANCH   3  25
TORSDOF 2
ENDMDL
MODEL 7
REMARK VINA RESULT:      -5.5      1.481      2.197
REMARK  2 active torsions:
REMARK  status: ('A' for Active; 'I' for Inactive)
REMARK    1  A    between atoms: O_1  and  C_4 
REMARK    2  A    between atoms: O_2  and  C_5 
ROOT
HETATM    1  O   UNK N   1      54.567  34.306  53.275  0.00  0.00    -0.293 OA
HETATM    2  C   UNK N   1      46.905  32.019  48.643  0.00  0.00     0.176 C 
HETATM    3  C   UNK N   1      45.748  33.039  48.672  0.00  0.00     0.151 C 
HETATM    4  C   UNK N   1      50.166  32.995  51.489  0.00  0.00    -0.000 C 
HETATM    5  C   UNK N   1      48.802  33.698  51.719  0.00  0.00     0.003 C 
HETATM    6  C   UNK N   1      51.283  33.786  52.203  0.00  0.00     0.010 C 
HETATM    7  C   UNK N   1      47.634  32.865  51.044  0.00  0.00    -0.014 C 
HETATM    8  C   UNK N   1      51.039  33.982  53.717  0.00  0.00    -0.009 C 
HETATM    9  C   UNK N   1      53.367  34.182  53.133  0.00  0.00     0.156 C 
HETATM   10  C   UNK N   1      48.008  32.474  49.596  0.00  0.00    -0.044 C 
HETATM   11  C   UNK N   1      52.334  34.668  54.074  0.00  0.00    -0.008 C 
HETATM   12  C   UNK N   1      45.235  33.239  50.113  0.00  0.00     0.036 C 
HETATM   13  C   UNK N   1      52.752  33.349  52.052  0.00  0.00     0.089 C 
HETATM   14  C   UNK N   1      48.548  34.051  53.223  0.00  0.00     0.007 C 
HETATM   15  C   UNK N   1      50.459  32.939  49.978  0.00  0.00     0.033 C 
HETATM   16  C   UNK N   1      46.369  33.782  50.998  0.00  0.00     0.017 C 
HETATM   17  C   UNK N   1      49.735  34.805  53.864  0.00  0.00     0.015 C 
HETATM   18  C   UNK N   1      47.315  31.563  51.832  0.00  0.00     0.020 C 
HETATM   19  C   UNK N   1      50.974  32.647  54.512  0.00  0.00     0.021 C 
HETATM   20  C   UNK N   1      49.278  32.545  49.133  0.00  0.00    -0.020 C 
HETATM   21  C   UNK N   1      52.479  35.533  55.106  0.00  0.00    -0.020 C 
HETATM   22  C   UNK N   1      53.753  36.251  55.464  0.00  0.00     0.036 C 
ENDROOT
BRANCH   2  23
HETATM   23  O   UNK N   1      46.453  30.747  49.028  0.00  0.00    -0.389 OA
HETATM   24  H   UNK N   1      46.020  30.844  49.917  0.00  0.00     0.210 HD
ENDBRANCH   2  23
BRANCH   3  25
HETATM   25  O   UNK N   1      44.709  32.652  47.807  0.00  0.00    -0.393 OA
HETATM   26  H   UNK N   1      44.079  32.080  48.316  0.00  0.00     0.210 HD
ENDBRANCH   3  25
TORSDOF 2
ENDMDL
MODEL 8
REMARK VINA RESULT:      -5.5     26.741     30.211
REMARK  2 active torsions:
REMARK  status: ('A' for Active; 'I' for Inactive)
REMARK    1  A    between atoms: O_1  and  C_4 
REMARK    2  A    between atoms: O_2  and  C_5 
ROOT
HETATM    1  O   UNK N   1      32.707  50.544  43.007  0.00  0.00    -0.293 OA
HETATM    2  C   UNK N   1      28.166  58.422  41.362  0.00  0.00     0.176 C 
HETATM    3  C   UNK N   1      26.681  58.295  40.963  0.00  0.00     0.151 C 
HETATM    4  C   UNK N   1      30.303  54.534  41.401  0.00  0.00    -0.000 C 
HETATM    5  C   UNK N   1      28.954  54.584  40.637  0.00  0.00     0.003 C 
HETATM    6  C   UNK N   1      30.649  53.070  41.746  0.00  0.00     0.010 C 
HETATM    7  C   UNK N   1      28.614  56.075  40.220  0.00  0.00    -0.014 C 
HETATM    8  C   UNK N   1      30.705  52.136  40.515  0.00  0.00    -0.009 C 
HETATM    9  C   UNK N   1      31.967  51.273  42.377  0.00  0.00     0.156 C 
HETATM   10  C   UNK N   1      28.797  57.033  41.419  0.00  0.00    -0.044 C 
HETATM   11  C   UNK N   1      31.159  50.873  41.204  0.00  0.00    -0.008 C 
HETATM   12  C   UNK N   1      26.540  57.529  39.631  0.00  0.00     0.036 C 
HETATM   13  C   UNK N   1      31.898  52.753  42.591  0.00  0.00     0.089 C 
HETATM   14  C   UNK N   1      28.890  53.560  39.454  0.00  0.00     0.007 C 
HETATM   15  C   UNK N   1      30.180  55.355  42.699  0.00  0.00     0.033 C 
HETATM   16  C   UNK N   1      27.113  56.111  39.784  0.00  0.00     0.017 C 
HETATM   17  C   UNK N   1      29.291  52.132  39.883  0.00  0.00     0.015 C 
HETATM   18  C   UNK N   1      29.514  56.576  39.055  0.00  0.00     0.020 C 
HETATM   19  C   UNK N   1      31.799  52.534  39.484  0.00  0.00     0.021 C 
HETATM   20  C   UNK N   1      29.479  56.675  42.533  0.00  0.00    -0.020 C 
HETATM   21  C   UNK N   1      30.884  49.622  40.762  0.00  0.00    -0.020 C 
HETATM   22  C   UNK N   1      31.302  48.348  41.446  0.00  0.00     0.036 C 
ENDROOT
BRANCH   2  23
HETATM   23  O   UNK N   1      28.862  59.212  40.433  0.00  0.00    -0.389 OA
HETATM   24  H   UNK N   1      28.265  59.339  39.649  0.00  0.00     0.210 HD
ENDBRANCH   2  23
BRANCH   3  25
HETATM   25  O   UNK N   1      26.064  59.557  40.897  0.00  0.00    -0.393 OA
HETATM   26  H   UNK N   1      26.768  60.239  40.744  0.00  0.00     0.210 HD
ENDBRANCH   3  25
TORSDOF 2
ENDMDL
MODEL 9
REMARK VINA RESULT:      -5.3     22.411     24.603
REMARK  2 active torsions:
REMARK  status: ('A' for Active; 'I' for Inactive)
REMARK    1  A    between atoms: O_1  and  C_4 
REMARK    2  A    between atoms: O_2  and  C_5 
ROOT
HETATM    1  O   UNK N   1      27.664  50.085  61.109  0.00  0.00    -0.293 OA
HETATM    2  C   UNK N   1      32.334  42.129  60.568  0.00  0.00     0.176 C 
HETATM    3  C   UNK N   1      33.631  42.144  59.734  0.00  0.00     0.151 C 
HETATM    4  C   UNK N   1      29.916  45.821  60.100  0.00  0.00    -0.000 C 
HETATM    5  C   UNK N   1      31.002  45.553  59.025  0.00  0.00     0.003 C 
HETATM    6  C   UNK N   1      29.536  47.317  60.092  0.00  0.00     0.010 C 
HETATM    7  C   UNK N   1      31.360  44.010  58.977  0.00  0.00    -0.014 C 
HETATM    8  C   UNK N   1      29.052  47.829  58.715  0.00  0.00    -0.009 C 
HETATM    9  C   UNK N   1      28.271  49.206  60.530  0.00  0.00     0.156 C 
HETATM   10  C   UNK N   1      31.609  43.463  60.402  0.00  0.00    -0.044 C 
HETATM   11  C   UNK N   1      28.682  49.237  59.110  0.00  0.00    -0.008 C 
HETATM   12  C   UNK N   1      33.326  42.468  58.257  0.00  0.00     0.036 C 
HETATM   13  C   UNK N   1      28.542  47.864  61.134  0.00  0.00     0.089 C 
HETATM   14  C   UNK N   1      30.637  46.167  57.631  0.00  0.00     0.007 C 
HETATM   15  C   UNK N   1      30.471  45.438  61.486  0.00  0.00     0.033 C 
HETATM   16  C   UNK N   1      32.679  43.858  58.153  0.00  0.00     0.017 C 
HETATM   17  C   UNK N   1      30.230  47.654  57.726  0.00  0.00     0.015 C 
HETATM   18  C   UNK N   1      30.229  43.167  58.323  0.00  0.00     0.020 C 
HETATM   19  C   UNK N   1      27.762  47.122  58.210  0.00  0.00     0.021 C 
HETATM   20  C   UNK N   1      31.227  44.137  61.512  0.00  0.00    -0.020 C 
HETATM   21  C   UNK N   1      28.700  50.295  58.264  0.00  0.00    -0.020 C 
HETATM   22  C   UNK N   1      28.362  51.713  58.640  0.00  0.00     0.036 C 
ENDROOT
BRANCH   2  23
HETATM   23  O   UNK N   1      31.491  41.086  60.153  0.00  0.00    -0.389 OA
HETATM   24  H   UNK N   1      31.410  40.451  60.913  0.00  0.00     0.210 HD
ENDBRANCH   2  23
BRANCH   3  25
HETATM   25  O   UNK N   1      34.329  40.929  59.860  0.00  0.00    -0.393 OA
HETATM   26  H   UNK N   1      35.069  40.927  59.200  0.00  0.00     0.210 HD
ENDBRANCH   3  25
TORSDOF 2
ENDMDL
