MODEL 1
REMARK VINA RESULT:      -6.6      0.000      0.000
REMARK  5 active torsions:
REMARK  status: ('A' for Active; 'I' for Inactive)
REMARK    1  A    between atoms: O_1  and  C_5 
REMARK    2  A    between atoms: O_2  and  C_16 
REMARK    3  A    between atoms: C_14  and  C_21 
REMARK    4  A    between atoms: C_15  and  C_22 
REMARK    5  A    between atoms: C_16  and  C_22 
ROOT
HETATM    1  N   UNK N   1      48.082  31.372  46.163  0.00  0.00    -0.357 N 
HETATM    2  N   UNK N   1      49.107  33.375  49.169  0.00  0.00     0.099 N 
HETATM    3  C   UNK N   1      51.006  31.279  43.268  0.00  0.00     0.066 A 
HETATM    4  C   UNK N   1      48.940  31.284  45.126  0.00  0.00     0.043 A 
HETATM    5  C   UNK N   1      48.750  32.015  47.149  0.00  0.00     0.050 A 
HETATM    6  C   UNK N   1      50.150  31.849  45.449  0.00  0.00     0.002 A 
HETATM    7  C   UNK N   1      50.036  32.311  46.745  0.00  0.00    -0.019 A 
HETATM    8  C   UNK N   1      51.211  31.861  44.542  0.00  0.00     0.051 A 
HETATM    9  C   UNK N   1      49.750  30.712  42.943  0.00  0.00     0.039 A 
HETATM   10  C   UNK N   1      48.702  30.711  43.881  0.00  0.00     0.033 A 
HETATM   11  C   UNK N   1      48.218  32.375  48.514  0.00  0.00     0.273 C 
HETATM   12  C   UNK N   1      47.253  34.161  50.620  0.00  0.00     0.040 C 
HETATM   13  C   UNK N   1      46.260  33.244  49.852  0.00  0.00    -0.001 C 
HETATM   14  C   UNK N   1      48.684  33.580  50.569  0.00  0.00     0.282 C 
HETATM   15  C   UNK N   1      50.529  32.973  49.090  0.00  0.00     0.278 C 
HETATM   16  C   UNK N   1      51.031  32.998  47.627  0.00  0.00     0.072 C 
HETATM   17  C   UNK N   1      46.807  32.964  48.432  0.00  0.00     0.047 C 
HETATM   18  H   UNK N   1      47.098  31.024  46.185  0.00  0.00     0.166 HD
ENDROOT
BRANCH  13  19
HETATM   19  C   UNK N   1      44.851  33.893  49.789  0.00  0.00     0.031 C 
BRANCH  19  20
HETATM   20  C   UNK N   1      44.050  33.535  48.527  0.00  0.00     0.164 C 
BRANCH  20  21
HETATM   21  O   UNK N   1      43.357  32.331  48.711  0.00  0.00    -0.401 OA
HETATM   22  H   UNK N   1      42.487  32.424  48.244  0.00  0.00     0.209 HD
ENDBRANCH  20  21
ENDBRANCH  19  20
ENDBRANCH  13  19
BRANCH  12  23
HETATM   23  C   UNK N   1      46.841  34.301  52.074  0.00  0.00    -0.030 C 
HETATM   24  C   UNK N   1      47.686  34.726  53.019  0.00  0.00     0.007 C 
ENDBRANCH  12  23
BRANCH   3  25
HETATM   25  O   UNK N   1      51.999  31.253  42.356  0.00  0.00    -0.361 OA
HETATM   26  H   UNK N   1      52.410  30.424  42.074  0.00  0.00     0.217 HD
ENDBRANCH   3  25
TORSDOF 5
ENDMDL
MODEL 2
REMARK VINA RESULT:      -6.0     14.278     16.317
REMARK  5 active torsions:
REMARK  status: ('A' for Active; 'I' for Inactive)
REMARK    1  A    between atoms: O_1  and  C_5 
REMARK    2  A    between atoms: O_2  and  C_16 
REMARK    3  A    between atoms: C_14  and  C_21 
REMARK    4  A    between atoms: C_15  and  C_22 
REMARK    5  A    between atoms: C_16  and  C_22 
ROOT
HETATM    1  N   UNK N   1      41.631  45.069  44.573  0.00  0.00    -0.357 N 
HETATM    2  N   UNK N   1      39.825  47.056  47.199  0.00  0.00     0.099 N 
HETATM    3  C   UNK N   1      43.249  41.595  46.071  0.00  0.00     0.066 A 
HETATM    4  C   UNK N   1      42.233  43.919  44.938  0.00  0.00     0.043 A 
HETATM    5  C   UNK N   1      40.947  45.495  45.661  0.00  0.00     0.050 A 
HETATM    6  C   UNK N   1      41.925  43.602  46.239  0.00  0.00     0.002 A 
HETATM    7  C   UNK N   1      41.095  44.604  46.703  0.00  0.00    -0.019 A 
HETATM    8  C   UNK N   1      42.414  42.441  46.839  0.00  0.00     0.051 A 
HETATM    9  C   UNK N   1      43.571  41.939  44.736  0.00  0.00     0.039 A 
HETATM   10  C   UNK N   1      43.057  43.115  44.158  0.00  0.00     0.033 A 
HETATM   11  C   UNK N   1      40.117  46.752  45.771  0.00  0.00     0.273 C 
HETATM   12  C   UNK N   1      39.473  49.457  46.678  0.00  0.00     0.040 C 
HETATM   13  C   UNK N   1      39.927  49.207  45.212  0.00  0.00    -0.001 C 
HETATM   14  C   UNK N   1      38.865  48.174  47.287  0.00  0.00     0.282 C 
HETATM   15  C   UNK N   1      39.329  45.862  47.919  0.00  0.00     0.278 C 
HETATM   16  C   UNK N   1      40.435  44.785  48.034  0.00  0.00     0.072 C 
HETATM   17  C   UNK N   1      40.837  47.957  45.157  0.00  0.00     0.047 C 
HETATM   18  H   UNK N   1      41.698  45.536  43.642  0.00  0.00     0.166 HD
ENDROOT
BRANCH  13  19
HETATM   19  C   UNK N   1      40.658  50.454  44.645  0.00  0.00     0.031 C 
BRANCH  19  20
HETATM   20  C   UNK N   1      39.999  51.053  43.392  0.00  0.00     0.164 C 
BRANCH  20  21
HETATM   21  O   UNK N   1      38.972  50.218  42.932  0.00  0.00    -0.401 OA
HETATM   22  H   UNK N   1      38.363  50.059  43.699  0.00  0.00     0.209 HD
ENDBRANCH  20  21
ENDBRANCH  19  20
ENDBRANCH  13  19
BRANCH  12  23
HETATM   23  C   UNK N   1      38.433  50.560  46.738  0.00  0.00    -0.030 C 
HETATM   24  C   UNK N   1      38.118  51.184  47.878  0.00  0.00     0.007 C 
ENDBRANCH  12  23
BRANCH   3  25
HETATM   25  O   UNK N   1      43.742  40.455  46.596  0.00  0.00    -0.361 OA
HETATM   26  H   UNK N   1      44.399  39.920  46.129  0.00  0.00     0.217 HD
ENDBRANCH   3  25
TORSDOF 5
ENDMDL
MODEL 3
REMARK VINA RESULT:      -6.0     13.919     16.905
REMARK  5 active torsions:
REMARK  status: ('A' for Active; 'I' for Inactive)
REMARK    1  A    between atoms: O_1  and  C_5 
REMARK    2  A    between atoms: O_2  and  C_16 
REMARK    3  A    between atoms: C_14  and  C_21 
REMARK    4  A    between atoms: C_15  and  C_22 
REMARK    5  A    between atoms: C_16  and  C_22 
ROOT
HETATM    1  N   UNK N   1      42.122  44.865  49.553  0.00  0.00    -0.357 N 
HETATM    2  N   UNK N   1      39.711  46.754  47.380  0.00  0.00     0.099 N 
HETATM    3  C   UNK N   1      40.259  43.010  52.718  0.00  0.00     0.066 A 
HETATM    4  C   UNK N   1      41.645  44.232  50.643  0.00  0.00     0.043 A 
HETATM    5  C   UNK N   1      41.040  45.331  48.886  0.00  0.00     0.050 A 
HETATM    6  C   UNK N   1      40.271  44.278  50.668  0.00  0.00     0.002 A 
HETATM    7  C   UNK N   1      39.880  44.973  49.541  0.00  0.00    -0.019 A 
HETATM    8  C   UNK N   1      39.542  43.671  51.692  0.00  0.00     0.051 A 
HETATM    9  C   UNK N   1      41.674  42.981  52.689  0.00  0.00     0.039 A 
HETATM   10  C   UNK N   1      42.379  43.598  51.640  0.00  0.00     0.033 A 
HETATM   11  C   UNK N   1      41.043  46.126  47.603  0.00  0.00     0.273 C 
HETATM   12  C   UNK N   1      40.712  48.505  45.933  0.00  0.00     0.040 C 
HETATM   13  C   UNK N   1      42.134  47.974  46.271  0.00  0.00    -0.001 C 
HETATM   14  C   UNK N   1      39.667  47.373  46.039  0.00  0.00     0.282 C 
HETATM   15  C   UNK N   1      38.613  45.779  47.560  0.00  0.00     0.278 C 
HETATM   16  C   UNK N   1      38.515  45.320  49.034  0.00  0.00     0.072 C 
HETATM   17  C   UNK N   1      42.101  47.234  47.629  0.00  0.00     0.047 C 
HETATM   18  H   UNK N   1      43.126  44.979  49.292  0.00  0.00     0.166 HD
ENDROOT
BRANCH  13  19
HETATM   19  C   UNK N   1      43.162  49.137  46.295  0.00  0.00     0.031 C 
BRANCH  19  20
HETATM   20  C   UNK N   1      44.454  48.818  47.066  0.00  0.00     0.164 C 
BRANCH  20  21
HETATM   21  O   UNK N   1      45.476  49.703  46.696  0.00  0.00    -0.401 OA
HETATM   22  H   UNK N   1      45.473  50.440  47.359  0.00  0.00     0.209 HD
ENDBRANCH  20  21
ENDBRANCH  19  20
ENDBRANCH  13  19
BRANCH  12  23
HETATM   23  C   UNK N   1      40.670  49.070  44.526  0.00  0.00    -0.030 C 
HETATM   24  C   UNK N   1      40.040  50.213  44.233  0.00  0.00     0.007 C 
ENDBRANCH  12  23
BRANCH   3  25
HETATM   25  O   UNK N   1      39.607  42.397  53.727  0.00  0.00    -0.361 OA
HETATM   26  H   UNK N   1      38.717  42.036  53.614  0.00  0.00     0.217 HD
ENDBRANCH   3  25
TORSDOF 5
ENDMDL
MODEL 4
REMARK VINA RESULT:      -6.0      3.168      5.655
REMARK  5 active torsions:
REMARK  status: ('A' for Active; 'I' for Inactive)
REMARK    1  A    between atoms: O_1  and  C_5 
REMARK    2  A    between atoms: O_2  and  C_16 
REMARK    3  A    between atoms: C_14  and  C_21 
REMARK    4  A    between atoms: C_15  and  C_22 
REMARK    5  A    between atoms: C_16  and  C_22 
ROOT
HETATM    1  N   UNK N   1      47.037  32.729  50.192  0.00  0.00    -0.357 N 
HETATM    2  N   UNK N   1      50.776  32.761  49.836  0.00  0.00     0.099 N 
HETATM    3  C   UNK N   1      45.116  33.446  46.624  0.00  0.00     0.066 A 
HETATM    4  C   UNK N   1      46.286  32.979  49.101  0.00  0.00     0.043 A 
HETATM    5  C   UNK N   1      48.317  32.659  49.757  0.00  0.00     0.050 A 
HETATM    6  C   UNK N   1      47.072  33.052  47.976  0.00  0.00     0.002 A 
HETATM    7  C   UNK N   1      48.373  32.840  48.391  0.00  0.00    -0.019 A 
HETATM    8  C   UNK N   1      46.519  33.281  46.716  0.00  0.00     0.051 A 
HETATM    9  C   UNK N   1      44.317  33.383  47.791  0.00  0.00     0.039 A 
HETATM   10  C   UNK N   1      44.906  33.145  49.047  0.00  0.00     0.033 A 
HETATM   11  C   UNK N   1      49.545  32.414  50.600  0.00  0.00     0.273 C 
HETATM   12  C   UNK N   1      52.052  33.111  51.936  0.00  0.00     0.040 C 
HETATM   13  C   UNK N   1      50.751  32.911  52.763  0.00  0.00    -0.001 C 
HETATM   14  C   UNK N   1      51.972  32.345  50.597  0.00  0.00     0.282 C 
HETATM   15  C   UNK N   1      50.763  32.163  48.483  0.00  0.00     0.278 C 
HETATM   16  C   UNK N   1      49.649  32.790  47.611  0.00  0.00     0.072 C 
HETATM   17  C   UNK N   1      49.522  33.247  51.885  0.00  0.00     0.047 C 
HETATM   18  H   UNK N   1      46.693  32.627  51.172  0.00  0.00     0.166 HD
ENDROOT
BRANCH  13  19
HETATM   19  C   UNK N   1      50.776  33.785  54.046  0.00  0.00     0.031 C 
BRANCH  19  20
HETATM   20  C   UNK N   1      49.591  34.757  54.167  0.00  0.00     0.164 C 
BRANCH  20  21
HETATM   21  O   UNK N   1      49.958  35.887  54.910  0.00  0.00    -0.401 OA
HETATM   22  H   UNK N   1      49.148  36.189  55.395  0.00  0.00     0.209 HD
ENDBRANCH  20  21
ENDBRANCH  19  20
ENDBRANCH  13  19
BRANCH  12  23
HETATM   23  C   UNK N   1      53.260  32.611  52.706  0.00  0.00    -0.030 C 
HETATM   24  C   UNK N   1      54.394  33.316  52.794  0.00  0.00     0.007 C 
ENDBRANCH  12  23
BRANCH   3  25
HETATM   25  O   UNK N   1      44.525  33.660  45.431  0.00  0.00    -0.361 OA
HETATM   26  H   UNK N   1      43.835  34.327  45.315  0.00  0.00     0.217 HD
ENDBRANCH   3  25
TORSDOF 5
ENDMDL
MODEL 5
REMARK VINA RESULT:      -5.9      1.884      7.121
REMARK  5 active torsions:
REMARK  status: ('A' for Active; 'I' for Inactive)
REMARK    1  A    between atoms: O_1  and  C_5 
REMARK    2  A    between atoms: O_2  and  C_16 
REMARK    3  A    between atoms: C_14  and  C_21 
REMARK    4  A    between atoms: C_15  and  C_22 
REMARK    5  A    between atoms: C_16  and  C_22 
ROOT
HETATM    1  N   UNK N   1      47.851  33.260  47.286  0.00  0.00    -0.357 N 
HETATM    2  N   UNK N   1      51.287  31.745  47.226  0.00  0.00     0.099 N 
HETATM    3  C   UNK N   1      46.507  33.948  51.114  0.00  0.00     0.066 A 
HETATM    4  C   UNK N   1      47.280  33.511  48.481  0.00  0.00     0.043 A 
HETATM    5  C   UNK N   1      49.117  32.861  47.551  0.00  0.00     0.050 A 
HETATM    6  C   UNK N   1      48.174  33.292  49.501  0.00  0.00     0.002 A 
HETATM    7  C   UNK N   1      49.354  32.884  48.910  0.00  0.00    -0.019 A 
HETATM    8  C   UNK N   1      47.822  33.505  50.835  0.00  0.00     0.051 A 
HETATM    9  C   UNK N   1      45.590  34.157  50.055  0.00  0.00     0.039 A 
HETATM   10  C   UNK N   1      45.978  33.937  48.721  0.00  0.00     0.033 A 
HETATM   11  C   UNK N   1      50.164  32.448  46.545  0.00  0.00     0.273 C 
HETATM   12  C   UNK N   1      51.914  30.587  45.122  0.00  0.00     0.040 C 
HETATM   13  C   UNK N   1      50.659  31.177  44.420  0.00  0.00    -0.001 C 
HETATM   14  C   UNK N   1      52.385  31.511  46.266  0.00  0.00     0.282 C 
HETATM   15  C   UNK N   1      51.758  32.494  48.412  0.00  0.00     0.278 C 
HETATM   16  C   UNK N   1      50.674  32.522  49.516  0.00  0.00     0.072 C 
HETATM   17  C   UNK N   1      49.583  31.514  45.479  0.00  0.00     0.047 C 
HETATM   18  H   UNK N   1      47.395  33.344  46.351  0.00  0.00     0.166 HD
ENDROOT
BRANCH  13  19
HETATM   19  C   UNK N   1      50.107  30.186  43.360  0.00  0.00     0.031 C 
BRANCH  19  20
HETATM   20  C   UNK N   1      50.171  30.711  41.916  0.00  0.00     0.164 C 
BRANCH  20  21
HETATM   21  O   UNK N   1      49.292  31.790  41.747  0.00  0.00    -0.401 OA
HETATM   22  H   UNK N   1      49.532  32.466  42.432  0.00  0.00     0.209 HD
ENDBRANCH  20  21
ENDBRANCH  19  20
ENDBRANCH  13  19
BRANCH  12  23
HETATM   23  C   UNK N   1      53.054  30.421  44.135  0.00  0.00    -0.030 C 
HETATM   24  C   UNK N   1      53.654  31.466  43.554  0.00  0.00     0.007 C 
ENDBRANCH  12  23
BRANCH   3  25
HETATM   25  O   UNK N   1      46.115  34.181  52.383  0.00  0.00    -0.361 OA
HETATM   26  H   UNK N   1      46.706  34.035  53.134  0.00  0.00     0.217 HD
ENDBRANCH   3  25
TORSDOF 5
ENDMDL
MODEL 6
REMARK VINA RESULT:      -5.9      3.856      7.027
REMARK  5 active torsions:
REMARK  status: ('A' for Active; 'I' for Inactive)
REMARK    1  A    between atoms: O_1  and  C_5 
REMARK    2  A    between atoms: O_2  and  C_16 
REMARK    3  A    between atoms: C_14  and  C_21 
REMARK    4  A    between atoms: C_15  and  C_22 
REMARK    5  A    between atoms: C_16  and  C_22 
ROOT
HETATM    1  N   UNK N   1      50.639  32.778  51.597  0.00  0.00    -0.357 N 
HETATM    2  N   UNK N   1      47.206  34.298  51.662  0.00  0.00     0.099 N 
HETATM    3  C   UNK N   1      52.914  33.902  54.837  0.00  0.00     0.066 A 
HETATM    4  C   UNK N   1      51.498  33.088  52.589  0.00  0.00     0.043 A 
HETATM    5  C   UNK N   1      49.454  33.334  51.940  0.00  0.00     0.050 A 
HETATM    6  C   UNK N   1      50.867  33.821  53.566  0.00  0.00     0.002 A 
HETATM    7  C   UNK N   1      49.556  33.974  53.158  0.00  0.00    -0.019 A 
HETATM    8  C   UNK N   1      51.545  34.243  54.710  0.00  0.00     0.051 A 
HETATM    9  C   UNK N   1      53.556  33.159  53.818  0.00  0.00     0.039 A 
HETATM   10  C   UNK N   1      52.843  32.744  52.679  0.00  0.00     0.033 A 
HETATM   11  C   UNK N   1      48.171  33.287  51.147  0.00  0.00     0.273 C 
HETATM   12  C   UNK N   1      46.016  34.359  49.484  0.00  0.00     0.040 C 
HETATM   13  C   UNK N   1      47.097  33.427  48.865  0.00  0.00    -0.001 C 
HETATM   14  C   UNK N   1      45.895  34.119  51.005  0.00  0.00     0.282 C 
HETATM   15  C   UNK N   1      47.084  34.234  53.135  0.00  0.00     0.278 C 
HETATM   16  C   UNK N   1      48.404  34.663  53.819  0.00  0.00     0.072 C 
HETATM   17  C   UNK N   1      48.416  33.565  49.661  0.00  0.00     0.047 C 
HETATM   18  H   UNK N   1      50.859  32.231  50.735  0.00  0.00     0.166 HD
ENDROOT
BRANCH  13  19
HETATM   19  C   UNK N   1      47.313  33.759  47.364  0.00  0.00     0.031 C 
BRANCH  19  20
HETATM   20  C   UNK N   1      46.976  32.602  46.410  0.00  0.00     0.164 C 
BRANCH  20  21
HETATM   21  O   UNK N   1      45.995  32.996  45.489  0.00  0.00    -0.401 OA
HETATM   22  H   UNK N   1      46.066  32.383  44.713  0.00  0.00     0.209 HD
ENDBRANCH  20  21
ENDBRANCH  19  20
ENDBRANCH  13  19
BRANCH  12  23
HETATM   23  C   UNK N   1      44.662  34.108  48.847  0.00  0.00    -0.030 C 
HETATM   24  C   UNK N   1      44.047  32.923  48.916  0.00  0.00     0.007 C 
ENDBRANCH  12  23
BRANCH   3  25
HETATM   25  O   UNK N   1      53.616  34.274  55.926  0.00  0.00    -0.361 OA
HETATM   26  H   UNK N   1      53.890  35.191  56.068  0.00  0.00     0.217 HD
ENDBRANCH   3  25
TORSDOF 5
ENDMDL
MODEL 7
REMARK VINA RESULT:      -5.8      2.714      7.121
REMARK  5 active torsions:
REMARK  status: ('A' for Active; 'I' for Inactive)
REMARK    1  A    between atoms: O_1  and  C_5 
REMARK    2  A    between atoms: O_2  and  C_16 
REMARK    3  A    between atoms: C_14  and  C_21 
REMARK    4  A    between atoms: C_15  and  C_22 
REMARK    5  A    between atoms: C_16  and  C_22 
ROOT
HETATM    1  N   UNK N   1      47.726  33.731  50.901  0.00  0.00    -0.357 N 
HETATM    2  N   UNK N   1      49.635  31.414  48.644  0.00  0.00     0.099 N 
HETATM    3  C   UNK N   1      48.340  32.901  54.884  0.00  0.00     0.066 A 
HETATM    4  C   UNK N   1      47.817  33.550  52.234  0.00  0.00     0.043 A 
HETATM    5  C   UNK N   1      48.610  32.871  50.344  0.00  0.00     0.050 A 
HETATM    6  C   UNK N   1      48.761  32.596  52.530  0.00  0.00     0.002 A 
HETATM    7  C   UNK N   1      49.277  32.164  51.324  0.00  0.00    -0.019 A 
HETATM    8  C   UNK N   1      49.052  32.248  53.850  0.00  0.00     0.051 A 
HETATM    9  C   UNK N   1      47.360  33.872  54.566  0.00  0.00     0.039 A 
HETATM   10  C   UNK N   1      47.094  34.205  53.225  0.00  0.00     0.033 A 
HETATM   11  C   UNK N   1      48.876  32.676  48.871  0.00  0.00     0.273 C 
HETATM   12  C   UNK N   1      48.811  31.268  46.308  0.00  0.00     0.040 C 
HETATM   13  C   UNK N   1      47.883  32.491  46.556  0.00  0.00    -0.001 C 
HETATM   14  C   UNK N   1      50.049  31.326  47.229  0.00  0.00     0.282 C 
HETATM   15  C   UNK N   1      50.797  31.307  49.554  0.00  0.00     0.278 C 
HETATM   16  C   UNK N   1      50.338  31.153  51.024  0.00  0.00     0.072 C 
HETATM   17  C   UNK N   1      47.574  32.608  48.067  0.00  0.00     0.047 C 
HETATM   18  H   UNK N   1      47.088  34.394  50.407  0.00  0.00     0.166 HD
ENDROOT
BRANCH  13  19
HETATM   19  C   UNK N   1      46.576  32.366  45.728  0.00  0.00     0.031 C 
BRANCH  19  20
HETATM   20  C   UNK N   1      45.469  33.345  46.149  0.00  0.00     0.164 C 
BRANCH  20  21
HETATM   21  O   UNK N   1      44.695  33.716  45.041  0.00  0.00    -0.401 OA
HETATM   22  H   UNK N   1      44.094  34.446  45.340  0.00  0.00     0.209 HD
ENDBRANCH  20  21
ENDBRANCH  19  20
ENDBRANCH  13  19
BRANCH  12  23
HETATM   23  C   UNK N   1      49.284  31.237  44.866  0.00  0.00    -0.030 C 
HETATM   24  C   UNK N   1      49.071  30.186  44.067  0.00  0.00     0.007 C 
ENDBRANCH  12  23
BRANCH   3  25
HETATM   25  O   UNK N   1      48.587  32.612  56.177  0.00  0.00    -0.361 OA
HETATM   26  H   UNK N   1      47.917  32.210  56.748  0.00  0.00     0.217 HD
ENDBRANCH   3  25
TORSDOF 5
ENDMDL
MODEL 8
REMARK VINA RESULT:      -5.8      3.883      6.229
REMARK  5 active torsions:
REMARK  status: ('A' for Active; 'I' for Inactive)
REMARK    1  A    between atoms: O_1  and  C_5 
REMARK    2  A    between atoms: O_2  and  C_16 
REMARK    3  A    between atoms: C_14  and  C_21 
REMARK    4  A    between atoms: C_15  and  C_22 
REMARK    5  A    between atoms: C_16  and  C_22 
ROOT
HETATM    1  N   UNK N   1      47.790  34.167  50.612  0.00  0.00    -0.357 N 
HETATM    2  N   UNK N   1      48.081  31.397  53.132  0.00  0.00     0.099 N 
HETATM    3  C   UNK N   1      46.101  32.903  47.079  0.00  0.00     0.066 A 
HETATM    4  C   UNK N   1      47.278  33.881  49.399  0.00  0.00     0.043 A 
HETATM    5  C   UNK N   1      47.646  33.044  51.355  0.00  0.00     0.050 A 
HETATM    6  C   UNK N   1      46.795  32.595  49.367  0.00  0.00     0.002 A 
HETATM    7  C   UNK N   1      47.021  32.058  50.620  0.00  0.00    -0.019 A 
HETATM    8  C   UNK N   1      46.194  32.072  48.221  0.00  0.00     0.051 A 
HETATM    9  C   UNK N   1      46.614  34.222  47.119  0.00  0.00     0.039 A 
HETATM   10  C   UNK N   1      47.210  34.721  48.292  0.00  0.00     0.033 A 
HETATM   11  C   UNK N   1      48.080  32.847  52.787  0.00  0.00     0.273 C 
HETATM   12  C   UNK N   1      49.720  31.772  54.957  0.00  0.00     0.040 C 
HETATM   13  C   UNK N   1      49.866  33.259  54.524  0.00  0.00    -0.001 C 
HETATM   14  C   UNK N   1      48.326  31.228  54.578  0.00  0.00     0.282 C 
HETATM   15  C   UNK N   1      46.822  30.739  52.717  0.00  0.00     0.278 C 
HETATM   16  C   UNK N   1      46.696  30.707  51.175  0.00  0.00     0.072 C 
HETATM   17  C   UNK N   1      49.486  33.403  53.032  0.00  0.00     0.047 C 
HETATM   18  H   UNK N   1      48.223  35.071  50.905  0.00  0.00     0.166 HD
ENDROOT
BRANCH  13  19
HETATM   19  C   UNK N   1      51.310  33.767  54.784  0.00  0.00     0.031 C 
BRANCH  19  20
HETATM   20  C   UNK N   1      51.428  35.295  54.895  0.00  0.00     0.164 C 
BRANCH  20  21
HETATM   21  O   UNK N   1      50.158  35.878  55.004  0.00  0.00    -0.401 OA
HETATM   22  H   UNK N   1      49.497  35.171  54.789  0.00  0.00     0.209 HD
ENDBRANCH  20  21
ENDBRANCH  19  20
ENDBRANCH  13  19
BRANCH  12  23
HETATM   23  C   UNK N   1      49.903  31.629  56.457  0.00  0.00    -0.030 C 
HETATM   24  C   UNK N   1      48.869  31.592  57.303  0.00  0.00     0.007 C 
ENDBRANCH  12  23
BRANCH   3  25
HETATM   25  O   UNK N   1      45.521  32.455  45.948  0.00  0.00    -0.361 OA
HETATM   26  H   UNK N   1      44.575  32.564  45.781  0.00  0.00     0.217 HD
ENDBRANCH   3  25
TORSDOF 5
ENDMDL
MODEL 9
REMARK VINA RESULT:      -5.6      1.712      8.006
REMARK  5 active torsions:
REMARK  status: ('A' for Active; 'I' for Inactive)
REMARK    1  A    between atoms: O_1  and  C_5 
REMARK    2  A    between atoms: O_2  and  C_16 
REMARK    3  A    between atoms: C_14  and  C_21 
REMARK    4  A    between atoms: C_15  and  C_22 
REMARK    5  A    between atoms: C_16  and  C_22 
ROOT
HETATM    1  N   UNK N   1      49.701  32.594  47.856  0.00  0.00    -0.357 N 
HETATM    2  N   UNK N   1      48.849  30.913  44.607  0.00  0.00     0.099 N 
HETATM    3  C   UNK N   1      46.355  33.561  50.047  0.00  0.00     0.066 A 
HETATM    4  C   UNK N   1      48.693  32.989  48.659  0.00  0.00     0.043 A 
HETATM    5  C   UNK N   1      49.126  31.901  46.845  0.00  0.00     0.050 A 
HETATM    6  C   UNK N   1      47.486  32.541  48.178  0.00  0.00     0.002 A 
HETATM    7  C   UNK N   1      47.759  31.838  47.021  0.00  0.00    -0.019 A 
HETATM    8  C   UNK N   1      46.292  32.806  48.851  0.00  0.00     0.051 A 
HETATM    9  C   UNK N   1      47.603  34.029  50.525  0.00  0.00     0.039 A 
HETATM   10  C   UNK N   1      48.789  33.740  49.825  0.00  0.00     0.033 A 
HETATM   11  C   UNK N   1      49.830  31.262  45.673  0.00  0.00     0.273 C 
HETATM   12  C   UNK N   1      50.624  30.962  42.874  0.00  0.00     0.040 C 
HETATM   13  C   UNK N   1      51.642  31.482  43.928  0.00  0.00    -0.001 C 
HETATM   14  C   UNK N   1      49.516  30.126  43.551  0.00  0.00     0.282 C 
HETATM   15  C   UNK N   1      47.680  30.193  45.159  0.00  0.00     0.278 C 
HETATM   16  C   UNK N   1      46.847  31.114  46.082  0.00  0.00     0.072 C 
HETATM   17  C   UNK N   1      50.885  32.196  45.071  0.00  0.00     0.047 C 
HETATM   18  H   UNK N   1      50.716  32.799  47.988  0.00  0.00     0.166 HD
ENDROOT
BRANCH  13  19
HETATM   19  C   UNK N   1      52.679  32.430  43.267  0.00  0.00     0.031 C 
BRANCH  19  20
HETATM   20  C   UNK N   1      54.115  31.882  43.257  0.00  0.00     0.164 C 
BRANCH  20  21
HETATM   21  O   UNK N   1      54.951  32.709  42.494  0.00  0.00    -0.401 OA
HETATM   22  H   UNK N   1      55.569  33.156  43.127  0.00  0.00     0.209 HD
ENDBRANCH  20  21
ENDBRANCH  19  20
ENDBRANCH  13  19
BRANCH  12  23
HETATM   23  C   UNK N   1      51.318  30.096  41.839  0.00  0.00    -0.030 C 
HETATM   24  C   UNK N   1      51.207  30.324  40.526  0.00  0.00     0.007 C 
ENDBRANCH  12  23
BRANCH   3  25
HETATM   25  O   UNK N   1      45.235  33.838  50.744  0.00  0.00    -0.361 OA
HETATM   26  H   UNK N   1      44.847  33.202  51.360  0.00  0.00     0.217 HD
ENDBRANCH   3  25
TORSDOF 5
ENDMDL
