MODEL 1
REMARK VINA RESULT:      -4.3      0.000      0.000
REMARK  9 active torsions:
REMARK  status: ('A' for Active; 'I' for Inactive)
REMARK    1  A    between atoms: O_3  and  C_15 
REMARK    2  A    between atoms: O_3  and  C_23 
REMARK    3  A    between atoms: O_4  and  C_16 
REMARK    4  A    between atoms: O_4  and  C_24 
REMARK    5  A    between atoms: O_9  and  C_25 
REMARK    6  A    between atoms: C_12  and  C_18 
REMARK    7  A    between atoms: C_20  and  C_21 
REMARK    8  A    between atoms: C_22  and  C_32 
REMARK    9  A    between atoms: C_25  and  C_32 
ROOT
HETATM    1  O   UNK N   1      32.506  44.547  57.357  0.00  0.00    -0.363 OA
HETATM    2  C   UNK N   1      31.353  43.738  57.469  0.00  0.00     0.121 A 
HETATM    3  C   UNK N   1      29.436  42.849  58.802  0.00  0.00     0.174 C 
HETATM    4  C   UNK N   1      29.198  41.792  57.685  0.00  0.00     0.171 C 
HETATM    5  C   UNK N   1      31.242  45.179  57.236  0.00  0.00     0.163 A 
HETATM    6  C   UNK N   1      31.051  44.750  59.631  0.00  0.00     0.037 C 
HETATM    7  C   UNK N   1      30.910  43.388  58.883  0.00  0.00     0.031 C 
HETATM    8  C   UNK N   1      29.590  42.330  56.245  0.00  0.00     0.061 C 
HETATM    9  C   UNK N   1      31.078  42.762  56.357  0.00  0.00    -0.044 C 
HETATM   10  C   UNK N   1      30.758  45.806  58.541  0.00  0.00     0.046 C 
HETATM   11  C   UNK N   1      31.863  42.321  59.477  0.00  0.00     0.022 C 
HETATM   12  C   UNK N   1      32.126  42.309  55.636  0.00  0.00     0.018 C 
ENDROOT
BRANCH   8  13
HETATM   13  C   UNK N   1      29.095  41.402  55.023  0.00  0.00    -0.011 C 
HETATM   14  C   UNK N   1      27.540  40.976  55.219  0.00  0.00     0.023 C 
HETATM   15  C   UNK N   1      27.144  39.598  54.534  0.00  0.00     0.022 C 
HETATM   16  C   UNK N   1      28.143  38.568  55.029  0.00  0.00     0.157 C 
HETATM   17  C   UNK N   1      25.715  39.121  54.913  0.00  0.00     0.024 C 
HETATM   18  C   UNK N   1      27.213  39.610  52.993  0.00  0.00     0.024 C 
HETATM   19  O   UNK N   1      27.789  37.448  55.372  0.00  0.00    -0.292 OA
HETATM   20  C   UNK N   1      29.568  38.896  55.036  0.00  0.00     0.048 C 
HETATM   21  C   UNK N   1      30.003  40.161  54.986  0.00  0.00    -0.013 C 
HETATM   22  C   UNK N   1      29.233  42.222  53.696  0.00  0.00     0.021 C 
BRANCH  14  23
HETATM   23  C   UNK N   1      26.554  42.174  54.967  0.00  0.00     0.117 C 
BRANCH  23  24
HETATM   24  C   UNK N   1      25.773  42.581  56.185  0.00  0.00     0.258 C 
HETATM   25  O   UNK N   1      25.201  43.656  56.215  0.00  0.00    -0.265 OA
BRANCH  24  26
HETATM   26  O   UNK N   1      25.705  41.720  57.236  0.00  0.00    -0.326 OA
HETATM   27  C   UNK N   1      24.542  41.465  57.929  0.00  0.00     0.213 C 
ENDBRANCH  24  26
ENDBRANCH  23  24
ENDBRANCH  14  23
ENDBRANCH   8  13
BRANCH   4  28
HETATM   28  O   UNK N   1      29.881  40.626  57.989  0.00  0.00    -0.313 OA
BRANCH  28  29
HETATM   29  C   UNK N   1      29.347  39.579  58.679  0.00  0.00     0.255 C 
HETATM   30  O   UNK N   1      30.058  38.812  59.310  0.00  0.00    -0.266 OA
HETATM   31  C   UNK N   1      27.874  39.354  58.632  0.00  0.00     0.126 C 
ENDBRANCH  28  29
ENDBRANCH   4  28
BRANCH   3  32
HETATM   32  O   UNK N   1      28.523  43.869  58.581  0.00  0.00    -0.313 OA
BRANCH  32  33
HETATM   33  C   UNK N   1      27.335  43.971  59.243  0.00  0.00     0.255 C 
HETATM   34  O   UNK N   1      26.537  44.857  58.978  0.00  0.00    -0.266 OA
HETATM   35  C   UNK N   1      27.017  42.997  60.327  0.00  0.00     0.126 C 
ENDBRANCH  32  33
ENDBRANCH   3  32
BRANCH   6  36
HETATM   36  C   UNK N   1      30.246  44.915  60.904  0.00  0.00    -0.029 A 
HETATM   37  C   UNK N   1      30.192  44.041  61.973  0.00  0.00     0.148 A 
HETATM   38  O   UNK N   1      29.379  44.524  62.886  0.00  0.00    -0.334 OA
HETATM   39  C   UNK N   1      28.898  45.676  62.475  0.00  0.00     0.142 A 
HETATM   40  C   UNK N   1      29.417  45.971  61.234  0.00  0.00     0.034 A 
ENDBRANCH   6  36
TORSDOF 9
ENDMDL
MODEL 2
REMARK VINA RESULT:      -4.3      4.163      7.152
REMARK  9 active torsions:
REMARK  status: ('A' for Active; 'I' for Inactive)
REMARK    1  A    between atoms: O_3  and  C_15 
REMARK    2  A    between atoms: O_3  and  C_23 
REMARK    3  A    between atoms: O_4  and  C_16 
REMARK    4  A    between atoms: O_4  and  C_24 
REMARK    5  A    between atoms: O_9  and  C_25 
REMARK    6  A    between atoms: C_12  and  C_18 
REMARK    7  A    between atoms: C_20  and  C_21 
REMARK    8  A    between atoms: C_22  and  C_32 
REMARK    9  A    between atoms: C_25  and  C_32 
ROOT
HETATM    1  O   UNK N   1      29.455  42.689  52.967  0.00  0.00    -0.363 OA
HETATM    2  C   UNK N   1      28.599  41.648  53.392  0.00  0.00     0.121 A 
HETATM    3  C   UNK N   1      26.318  40.649  53.600  0.00  0.00     0.174 C 
HETATM    4  C   UNK N   1      26.905  39.612  54.601  0.00  0.00     0.171 C 
HETATM    5  C   UNK N   1      29.037  41.742  51.998  0.00  0.00     0.163 A 
HETATM    6  C   UNK N   1      26.857  42.818  52.215  0.00  0.00     0.037 C 
HETATM    7  C   UNK N   1      27.122  41.997  53.515  0.00  0.00     0.031 C 
HETATM    8  C   UNK N   1      28.416  39.248  54.284  0.00  0.00     0.061 C 
HETATM    9  C   UNK N   1      29.179  40.602  54.304  0.00  0.00    -0.044 C 
HETATM   10  C   UNK N   1      27.833  42.208  51.184  0.00  0.00     0.046 C 
HETATM   11  C   UNK N   1      26.897  42.862  54.781  0.00  0.00     0.022 C 
HETATM   12  C   UNK N   1      30.224  40.949  55.087  0.00  0.00     0.018 C 
ENDROOT
BRANCH   8  13
HETATM   13  C   UNK N   1      28.984  37.974  55.093  0.00  0.00    -0.011 C 
HETATM   14  C   UNK N   1      27.924  36.745  55.045  0.00  0.00     0.023 C 
HETATM   15  C   UNK N   1      28.008  35.755  56.285  0.00  0.00     0.022 C 
HETATM   16  C   UNK N   1      27.914  36.616  57.531  0.00  0.00     0.157 C 
HETATM   17  C   UNK N   1      26.852  34.718  56.313  0.00  0.00     0.024 C 
HETATM   18  C   UNK N   1      29.324  34.954  56.372  0.00  0.00     0.024 C 
HETATM   19  O   UNK N   1      27.220  36.287  58.484  0.00  0.00    -0.292 OA
HETATM   20  C   UNK N   1      28.718  37.833  57.625  0.00  0.00     0.048 C 
HETATM   21  C   UNK N   1      29.241  38.421  56.542  0.00  0.00    -0.013 C 
HETATM   22  C   UNK N   1      30.320  37.518  54.415  0.00  0.00     0.021 C 
BRANCH  14  23
HETATM   23  C   UNK N   1      27.857  36.065  53.630  0.00  0.00     0.117 C 
BRANCH  23  24
HETATM   24  C   UNK N   1      26.526  36.215  52.948  0.00  0.00     0.258 C 
HETATM   25  O   UNK N   1      25.539  36.524  53.591  0.00  0.00    -0.265 OA
BRANCH  24  26
HETATM   26  O   UNK N   1      26.455  36.017  51.604  0.00  0.00    -0.326 OA
HETATM   27  C   UNK N   1      26.861  34.853  50.990  0.00  0.00     0.213 C 
ENDBRANCH  24  26
ENDBRANCH  23  24
ENDBRANCH  14  23
ENDBRANCH   8  13
BRANCH   4  28
HETATM   28  O   UNK N   1      26.760  40.078  55.897  0.00  0.00    -0.313 OA
BRANCH  28  29
HETATM   29  C   UNK N   1      25.684  39.821  56.692  0.00  0.00     0.255 C 
HETATM   30  O   UNK N   1      25.339  40.607  57.560  0.00  0.00    -0.266 OA
HETATM   31  C   UNK N   1      24.939  38.541  56.514  0.00  0.00     0.126 C 
ENDBRANCH  28  29
ENDBRANCH   4  28
BRANCH   3  32
HETATM   32  O   UNK N   1      26.245  40.012  52.369  0.00  0.00    -0.313 OA
BRANCH  32  33
HETATM   33  C   UNK N   1      25.099  39.462  51.875  0.00  0.00     0.255 C 
HETATM   34  O   UNK N   1      25.079  38.923  50.779  0.00  0.00    -0.266 OA
HETATM   35  C   UNK N   1      23.845  39.544  52.678  0.00  0.00     0.126 C 
ENDBRANCH  32  33
ENDBRANCH   3  32
BRANCH   6  36
HETATM   36  C   UNK N   1      25.418  42.909  51.748  0.00  0.00    -0.029 A 
HETATM   37  C   UNK N   1      24.317  43.250  52.510  0.00  0.00     0.148 A 
HETATM   38  O   UNK N   1      23.241  43.210  51.756  0.00  0.00    -0.334 OA
HETATM   39  C   UNK N   1      23.578  42.865  50.534  0.00  0.00     0.142 A 
HETATM   40  C   UNK N   1      24.939  42.669  50.474  0.00  0.00     0.034 A 
ENDBRANCH   6  36
TORSDOF 9
ENDMDL
MODEL 3
REMARK VINA RESULT:      -4.1      2.030      4.172
REMARK  9 active torsions:
REMARK  status: ('A' for Active; 'I' for Inactive)
REMARK    1  A    between atoms: O_3  and  C_15 
REMARK    2  A    between atoms: O_3  and  C_23 
REMARK    3  A    between atoms: O_4  and  C_16 
REMARK    4  A    between atoms: O_4  and  C_24 
REMARK    5  A    between atoms: O_9  and  C_25 
REMARK    6  A    between atoms: C_12  and  C_18 
REMARK    7  A    between atoms: C_20  and  C_21 
REMARK    8  A    between atoms: C_22  and  C_32 
REMARK    9  A    between atoms: C_25  and  C_32 
ROOT
HETATM    1  O   UNK N   1      31.111  38.740  61.344  0.00  0.00    -0.363 OA
HETATM    2  C   UNK N   1      30.375  39.244  60.248  0.00  0.00     0.121 A 
HETATM    3  C   UNK N   1      29.263  41.137  59.055  0.00  0.00     0.174 C 
HETATM    4  C   UNK N   1      28.583  40.097  58.118  0.00  0.00     0.171 C 
HETATM    5  C   UNK N   1      31.828  39.415  60.324  0.00  0.00     0.163 A 
HETATM    6  C   UNK N   1      30.749  41.419  61.206  0.00  0.00     0.037 C 
HETATM    7  C   UNK N   1      29.666  40.573  60.467  0.00  0.00     0.031 C 
HETATM    8  C   UNK N   1      29.483  38.812  57.880  0.00  0.00     0.061 C 
HETATM    9  C   UNK N   1      29.774  38.245  59.297  0.00  0.00    -0.044 C 
HETATM   10  C   UNK N   1      32.086  40.885  60.645  0.00  0.00     0.046 C 
HETATM   11  C   UNK N   1      28.418  40.356  61.358  0.00  0.00     0.022 C 
HETATM   12  C   UNK N   1      29.481  37.014  59.769  0.00  0.00     0.018 C 
ENDROOT
BRANCH   8  13
HETATM   13  C   UNK N   1      28.972  37.844  56.697  0.00  0.00    -0.011 C 
HETATM   14  C   UNK N   1      28.611  38.703  55.367  0.00  0.00     0.023 C 
HETATM   15  C   UNK N   1      27.512  38.039  54.432  0.00  0.00     0.022 C 
HETATM   16  C   UNK N   1      26.321  37.731  55.321  0.00  0.00     0.157 C 
HETATM   17  C   UNK N   1      27.043  38.976  53.286  0.00  0.00     0.024 C 
HETATM   18  C   UNK N   1      27.953  36.716  53.770  0.00  0.00     0.024 C 
HETATM   19  O   UNK N   1      25.175  37.959  54.955  0.00  0.00    -0.292 OA
HETATM   20  C   UNK N   1      26.538  37.086  56.615  0.00  0.00     0.048 C 
HETATM   21  C   UNK N   1      27.734  37.091  57.216  0.00  0.00    -0.013 C 
HETATM   22  C   UNK N   1      30.121  36.837  56.355  0.00  0.00     0.021 C 
BRANCH  14  23
HETATM   23  C   UNK N   1      29.894  39.243  54.637  0.00  0.00     0.117 C 
BRANCH  23  24
HETATM   24  C   UNK N   1      30.001  40.742  54.632  0.00  0.00     0.258 C 
HETATM   25  O   UNK N   1      31.062  41.281  54.371  0.00  0.00    -0.265 OA
BRANCH  24  26
HETATM   26  O   UNK N   1      28.889  41.478  54.905  0.00  0.00    -0.326 OA
HETATM   27  C   UNK N   1      28.364  42.405  54.031  0.00  0.00     0.213 C 
ENDBRANCH  24  26
ENDBRANCH  23  24
ENDBRANCH  14  23
ENDBRANCH   8  13
BRANCH   4  28
HETATM   28  O   UNK N   1      27.339  39.754  58.622  0.00  0.00    -0.313 OA
BRANCH  28  29
HETATM   29  C   UNK N   1      26.173  40.368  58.277  0.00  0.00     0.255 C 
HETATM   30  O   UNK N   1      25.207  40.352  59.023  0.00  0.00    -0.266 OA
HETATM   31  C   UNK N   1      26.072  41.042  56.950  0.00  0.00     0.126 C 
ENDBRANCH  28  29
ENDBRANCH   4  28
BRANCH   3  32
HETATM   32  O   UNK N   1      30.358  41.635  58.365  0.00  0.00    -0.313 OA
BRANCH  32  33
HETATM   33  C   UNK N   1      30.338  42.809  57.670  0.00  0.00     0.255 C 
HETATM   34  O   UNK N   1      31.313  43.186  57.039  0.00  0.00    -0.266 OA
HETATM   35  C   UNK N   1      29.112  43.657  57.705  0.00  0.00     0.126 C 
ENDBRANCH  32  33
ENDBRANCH   3  32
BRANCH   6  36
HETATM   36  C   UNK N   1      30.595  42.926  61.147  0.00  0.00    -0.029 A 
HETATM   37  C   UNK N   1      31.557  43.846  60.777  0.00  0.00     0.148 A 
HETATM   38  O   UNK N   1      31.051  45.057  60.859  0.00  0.00    -0.334 OA
HETATM   39  C   UNK N   1      29.802  44.981  61.260  0.00  0.00     0.142 A 
HETATM   40  C   UNK N   1      29.464  43.659  61.450  0.00  0.00     0.034 A 
ENDBRANCH   6  36
TORSDOF 9
ENDMDL
MODEL 4
REMARK VINA RESULT:      -3.9      2.096      6.852
REMARK  9 active torsions:
REMARK  status: ('A' for Active; 'I' for Inactive)
REMARK    1  A    between atoms: O_3  and  C_15 
REMARK    2  A    between atoms: O_3  and  C_23 
REMARK    3  A    between atoms: O_4  and  C_16 
REMARK    4  A    between atoms: O_4  and  C_24 
REMARK    5  A    between atoms: O_9  and  C_25 
REMARK    6  A    between atoms: C_12  and  C_18 
REMARK    7  A    between atoms: C_20  and  C_21 
REMARK    8  A    between atoms: C_22  and  C_32 
REMARK    9  A    between atoms: C_25  and  C_32 
ROOT
HETATM    1  O   UNK N   1      27.067  40.652  59.968  0.00  0.00    -0.363 OA
HETATM    2  C   UNK N   1      28.032  41.385  59.242  0.00  0.00     0.121 A 
HETATM    3  C   UNK N   1      29.676  41.565  57.368  0.00  0.00     0.174 C 
HETATM    4  C   UNK N   1      30.232  42.858  58.030  0.00  0.00     0.171 C 
HETATM    5  C   UNK N   1      26.654  41.268  58.759  0.00  0.00     0.163 A 
HETATM    6  C   UNK N   1      28.015  39.550  57.684  0.00  0.00     0.037 C 
HETATM    7  C   UNK N   1      28.977  40.572  58.367  0.00  0.00     0.031 C 
HETATM    8  C   UNK N   1      29.114  43.672  58.809  0.00  0.00     0.061 C 
HETATM    9  C   UNK N   1      28.522  42.674  59.842  0.00  0.00    -0.044 C 
HETATM   10  C   UNK N   1      26.680  40.319  57.564  0.00  0.00     0.046 C 
HETATM   11  C   UNK N   1      30.020  39.852  59.259  0.00  0.00     0.022 C 
HETATM   12  C   UNK N   1      28.477  42.807  61.186  0.00  0.00     0.018 C 
ENDROOT
BRANCH   8  13
HETATM   13  C   UNK N   1      29.555  45.156  59.260  0.00  0.00    -0.011 C 
HETATM   14  C   UNK N   1      28.274  46.154  59.277  0.00  0.00     0.023 C 
HETATM   15  C   UNK N   1      28.628  47.683  59.028  0.00  0.00     0.022 C 
HETATM   16  C   UNK N   1      29.444  47.733  57.749  0.00  0.00     0.157 C 
HETATM   17  C   UNK N   1      27.370  48.575  58.845  0.00  0.00     0.024 C 
HETATM   18  C   UNK N   1      29.473  48.332  60.144  0.00  0.00     0.024 C 
HETATM   19  O   UNK N   1      29.244  48.588  56.897  0.00  0.00    -0.292 OA
HETATM   20  C   UNK N   1      30.537  46.781  57.557  0.00  0.00     0.048 C 
HETATM   21  C   UNK N   1      30.619  45.646  58.264  0.00  0.00    -0.013 C 
HETATM   22  C   UNK N   1      30.153  45.073  60.704  0.00  0.00     0.021 C 
BRANCH  14  23
HETATM   23  C   UNK N   1      27.304  45.864  60.479  0.00  0.00     0.117 C 
BRANCH  23  24
HETATM   24  C   UNK N   1      25.972  45.307  60.062  0.00  0.00     0.258 C 
HETATM   25  O   UNK N   1      25.250  44.764  60.879  0.00  0.00    -0.265 OA
BRANCH  24  26
HETATM   26  O   UNK N   1      25.587  45.438  58.763  0.00  0.00    -0.326 OA
HETATM   27  C   UNK N   1      24.829  44.497  58.102  0.00  0.00     0.213 C 
ENDBRANCH  24  26
ENDBRANCH  23  24
ENDBRANCH  14  23
ENDBRANCH   8  13
BRANCH   4  28
HETATM   28  O   UNK N   1      31.294  42.542  58.860  0.00  0.00    -0.313 OA
BRANCH  28  29
HETATM   29  C   UNK N   1      32.592  42.871  58.609  0.00  0.00     0.255 C 
HETATM   30  O   UNK N   1      32.985  43.061  57.468  0.00  0.00    -0.266 OA
HETATM   31  C   UNK N   1      33.550  42.967  59.748  0.00  0.00     0.126 C 
ENDBRANCH  28  29
ENDBRANCH   4  28
BRANCH   3  32
HETATM   32  O   UNK N   1      28.815  41.975  56.360  0.00  0.00    -0.313 OA
BRANCH  32  33
HETATM   33  C   UNK N   1      29.198  42.123  55.059  0.00  0.00     0.255 C 
HETATM   34  O   UNK N   1      28.460  42.648  54.239  0.00  0.00    -0.266 OA
HETATM   35  C   UNK N   1      30.530  41.611  54.628  0.00  0.00     0.126 C 
ENDBRANCH  32  33
ENDBRANCH   3  32
BRANCH   6  36
HETATM   36  C   UNK N   1      28.499  38.915  56.396  0.00  0.00    -0.029 A 
HETATM   37  C   UNK N   1      27.848  38.908  55.177  0.00  0.00     0.148 A 
HETATM   38  O   UNK N   1      28.576  38.252  54.301  0.00  0.00    -0.334 OA
HETATM   39  C   UNK N   1      29.678  37.831  54.881  0.00  0.00     0.142 A 
HETATM   40  C   UNK N   1      29.681  38.227  56.199  0.00  0.00     0.034 A 
ENDBRANCH   6  36
TORSDOF 9
ENDMDL
MODEL 5
REMARK VINA RESULT:      -3.9      3.029      6.779
REMARK  9 active torsions:
REMARK  status: ('A' for Active; 'I' for Inactive)
REMARK    1  A    between atoms: O_3  and  C_15 
REMARK    2  A    between atoms: O_3  and  C_23 
REMARK    3  A    between atoms: O_4  and  C_16 
REMARK    4  A    between atoms: O_4  and  C_24 
REMARK    5  A    between atoms: O_9  and  C_25 
REMARK    6  A    between atoms: C_12  and  C_18 
REMARK    7  A    between atoms: C_20  and  C_21 
REMARK    8  A    between atoms: C_22  and  C_32 
REMARK    9  A    between atoms: C_25  and  C_32 
ROOT
HETATM    1  O   UNK N   1      30.290  42.734  56.001  0.00  0.00    -0.363 OA
HETATM    2  C   UNK N   1      29.414  41.630  56.099  0.00  0.00     0.121 A 
HETATM    3  C   UNK N   1      27.540  40.248  55.192  0.00  0.00     0.174 C 
HETATM    4  C   UNK N   1      27.453  39.530  56.570  0.00  0.00     0.171 C 
HETATM    5  C   UNK N   1      30.604  41.574  55.247  0.00  0.00     0.163 A 
HETATM    6  C   UNK N   1      28.686  42.219  53.882  0.00  0.00     0.037 C 
HETATM    7  C   UNK N   1      28.150  41.695  55.251  0.00  0.00     0.031 C 
HETATM    8  C   UNK N   1      28.862  39.424  57.291  0.00  0.00     0.061 C 
HETATM    9  C   UNK N   1      29.377  40.886  57.406  0.00  0.00    -0.044 C 
HETATM   10  C   UNK N   1      30.120  41.650  53.801  0.00  0.00     0.046 C 
HETATM   11  C   UNK N   1      27.152  42.697  55.884  0.00  0.00     0.022 C 
HETATM   12  C   UNK N   1      29.707  41.559  58.530  0.00  0.00     0.018 C 
ENDROOT
BRANCH   8  13
HETATM   13  C   UNK N   1      28.892  38.440  58.568  0.00  0.00    -0.011 C 
HETATM   14  C   UNK N   1      28.188  37.020  58.215  0.00  0.00     0.023 C 
HETATM   15  C   UNK N   1      27.551  36.273  59.464  0.00  0.00     0.022 C 
HETATM   16  C   UNK N   1      26.636  37.274  60.144  0.00  0.00     0.157 C 
HETATM   17  C   UNK N   1      26.712  35.029  59.064  0.00  0.00     0.024 C 
HETATM   18  C   UNK N   1      28.578  35.796  60.512  0.00  0.00     0.024 C 
HETATM   19  O   UNK N   1      25.525  36.954  60.546  0.00  0.00    -0.292 OA
HETATM   20  C   UNK N   1      27.112  38.635  60.384  0.00  0.00     0.048 C 
HETATM   21  C   UNK N   1      28.152  39.149  59.716  0.00  0.00    -0.013 C 
HETATM   22  C   UNK N   1      30.387  38.184  58.956  0.00  0.00     0.021 C 
BRANCH  14  23
HETATM   23  C   UNK N   1      29.071  36.134  57.265  0.00  0.00     0.117 C 
BRANCH  23  24
HETATM   24  C   UNK N   1      28.397  35.777  55.970  0.00  0.00     0.258 C 
HETATM   25  O   UNK N   1      29.012  35.185  55.101  0.00  0.00    -0.265 OA
BRANCH  24  26
HETATM   26  O   UNK N   1      27.089  36.113  55.800  0.00  0.00    -0.326 OA
HETATM   27  C   UNK N   1      26.180  35.304  55.155  0.00  0.00     0.213 C 
ENDBRANCH  24  26
ENDBRANCH  23  24
ENDBRANCH  14  23
ENDBRANCH   8  13
BRANCH   4  28
HETATM   28  O   UNK N   1      26.523  40.167  57.374  0.00  0.00    -0.313 OA
BRANCH  28  29
HETATM   29  C   UNK N   1      25.201  39.842  57.428  0.00  0.00     0.255 C 
HETATM   30  O   UNK N   1      24.357  40.677  57.712  0.00  0.00    -0.266 OA
HETATM   31  C   UNK N   1      24.788  38.433  57.165  0.00  0.00     0.126 C 
ENDBRANCH  28  29
ENDBRANCH   4  28
BRANCH   3  32
HETATM   32  O   UNK N   1      28.267  39.413  54.356  0.00  0.00    -0.313 OA
BRANCH  32  33
HETATM   33  C   UNK N   1      27.692  38.509  53.512  0.00  0.00     0.255 C 
HETATM   34  O   UNK N   1      28.359  37.646  52.962  0.00  0.00    -0.266 OA
HETATM   35  C   UNK N   1      26.230  38.593  53.239  0.00  0.00     0.126 C 
ENDBRANCH  32  33
ENDBRANCH   3  32
BRANCH   6  36
HETATM   36  C   UNK N   1      27.826  41.944  52.664  0.00  0.00    -0.029 A 
HETATM   37  C   UNK N   1      28.226  41.352  51.481  0.00  0.00     0.148 A 
HETATM   38  O   UNK N   1      27.201  41.293  50.660  0.00  0.00    -0.334 OA
HETATM   39  C   UNK N   1      26.145  41.813  51.244  0.00  0.00     0.142 A 
HETATM   40  C   UNK N   1      26.484  42.233  52.510  0.00  0.00     0.034 A 
ENDBRANCH   6  36
TORSDOF 9
ENDMDL
MODEL 6
REMARK VINA RESULT:      -3.9      2.497      5.014
REMARK  9 active torsions:
REMARK  status: ('A' for Active; 'I' for Inactive)
REMARK    1  A    between atoms: O_3  and  C_15 
REMARK    2  A    between atoms: O_3  and  C_23 
REMARK    3  A    between atoms: O_4  and  C_16 
REMARK    4  A    between atoms: O_4  and  C_24 
REMARK    5  A    between atoms: O_9  and  C_25 
REMARK    6  A    between atoms: C_12  and  C_18 
REMARK    7  A    between atoms: C_20  and  C_21 
REMARK    8  A    between atoms: C_22  and  C_32 
REMARK    9  A    between atoms: C_25  and  C_32 
ROOT
HETATM    1  O   UNK N   1      27.456  42.634  54.117  0.00  0.00    -0.363 OA
HETATM    2  C   UNK N   1      27.791  41.426  54.768  0.00  0.00     0.121 A 
HETATM    3  C   UNK N   1      29.169  40.146  56.413  0.00  0.00     0.174 C 
HETATM    4  C   UNK N   1      28.615  38.830  55.796  0.00  0.00     0.171 C 
HETATM    5  C   UNK N   1      26.935  42.421  55.419  0.00  0.00     0.163 A 
HETATM    6  C   UNK N   1      29.239  42.761  56.150  0.00  0.00     0.037 C 
HETATM    7  C   UNK N   1      29.159  41.377  55.435  0.00  0.00     0.031 C 
HETATM    8  C   UNK N   1      27.135  38.991  55.247  0.00  0.00     0.061 C 
HETATM    9  C   UNK N   1      27.201  40.155  54.220  0.00  0.00    -0.044 C 
HETATM   10  C   UNK N   1      27.771  43.078  56.514  0.00  0.00     0.046 C 
HETATM   11  C   UNK N   1      30.260  41.239  54.353  0.00  0.00     0.022 C 
HETATM   12  C   UNK N   1      26.869  40.121  52.911  0.00  0.00     0.018 C 
ENDROOT
BRANCH   8  13
HETATM   13  C   UNK N   1      26.403  37.604  54.870  0.00  0.00    -0.011 C 
HETATM   14  C   UNK N   1      26.589  36.515  56.060  0.00  0.00     0.023 C 
HETATM   15  C   UNK N   1      26.545  35.002  55.579  0.00  0.00     0.022 C 
HETATM   16  C   UNK N   1      27.556  34.878  54.453  0.00  0.00     0.157 C 
HETATM   17  C   UNK N   1      26.931  33.997  56.699  0.00  0.00     0.024 C 
HETATM   18  C   UNK N   1      25.177  34.547  55.028  0.00  0.00     0.024 C 
HETATM   19  O   UNK N   1      28.316  33.923  54.378  0.00  0.00    -0.292 OA
HETATM   20  C   UNK N   1      27.579  35.888  53.395  0.00  0.00     0.048 C 
HETATM   21  C   UNK N   1      27.023  37.095  53.557  0.00  0.00    -0.013 C 
HETATM   22  C   UNK N   1      24.876  37.892  54.679  0.00  0.00     0.021 C 
BRANCH  14  23
HETATM   23  C   UNK N   1      25.722  36.856  57.325  0.00  0.00     0.117 C 
BRANCH  23  24
HETATM   24  C   UNK N   1      26.528  37.032  58.581  0.00  0.00     0.258 C 
HETATM   25  O   UNK N   1      25.989  37.396  59.611  0.00  0.00    -0.265 OA
BRANCH  24  26
HETATM   26  O   UNK N   1      27.861  36.760  58.546  0.00  0.00    -0.326 OA
HETATM   27  C   UNK N   1      28.524  36.100  59.558  0.00  0.00     0.213 C 
ENDBRANCH  24  26
ENDBRANCH  23  24
ENDBRANCH  14  23
ENDBRANCH   8  13
BRANCH   4  28
HETATM   28  O   UNK N   1      29.472  38.377  54.807  0.00  0.00    -0.313 OA
BRANCH  28  29
HETATM   29  C   UNK N   1      30.416  37.412  54.989  0.00  0.00     0.255 C 
HETATM   30  O   UNK N   1      31.372  37.315  54.236  0.00  0.00    -0.266 OA
HETATM   31  C   UNK N   1      30.256  36.442  56.111  0.00  0.00     0.126 C 
ENDBRANCH  28  29
ENDBRANCH   4  28
BRANCH   3  32
HETATM   32  O   UNK N   1      28.425  40.389  57.559  0.00  0.00    -0.313 OA
BRANCH  32  33
HETATM   33  C   UNK N   1      28.804  39.976  58.802  0.00  0.00     0.255 C 
HETATM   34  O   UNK N   1      28.030  40.022  59.746  0.00  0.00    -0.266 OA
HETATM   35  C   UNK N   1      30.194  39.482  59.015  0.00  0.00     0.126 C 
ENDBRANCH  32  33
ENDBRANCH   3  32
BRANCH   6  36
HETATM   36  C   UNK N   1      30.216  42.877  57.303  0.00  0.00    -0.029 A 
HETATM   37  C   UNK N   1      29.920  43.198  58.614  0.00  0.00     0.148 A 
HETATM   38  O   UNK N   1      31.031  43.209  59.318  0.00  0.00    -0.334 OA
HETATM   39  C   UNK N   1      32.044  42.906  58.537  0.00  0.00     0.142 A 
HETATM   40  C   UNK N   1      31.584  42.683  57.258  0.00  0.00     0.034 A 
ENDBRANCH   6  36
TORSDOF 9
ENDMDL
MODEL 7
REMARK VINA RESULT:      -3.8     18.718     22.271
REMARK  9 active torsions:
REMARK  status: ('A' for Active; 'I' for Inactive)
REMARK    1  A    between atoms: O_3  and  C_15 
REMARK    2  A    between atoms: O_3  and  C_23 
REMARK    3  A    between atoms: O_4  and  C_16 
REMARK    4  A    between atoms: O_4  and  C_24 
REMARK    5  A    between atoms: O_9  and  C_25 
REMARK    6  A    between atoms: C_12  and  C_18 
REMARK    7  A    between atoms: C_20  and  C_21 
REMARK    8  A    between atoms: C_22  and  C_32 
REMARK    9  A    between atoms: C_25  and  C_32 
ROOT
HETATM    1  O   UNK N   1      47.596  54.367  61.068  0.00  0.00    -0.363 OA
HETATM    2  C   UNK N   1      47.887  52.998  61.259  0.00  0.00     0.121 A 
HETATM    3  C   UNK N   1      47.243  50.726  62.078  0.00  0.00     0.174 C 
HETATM    4  C   UNK N   1      48.723  50.283  61.898  0.00  0.00     0.171 C 
HETATM    5  C   UNK N   1      47.049  53.441  60.144  0.00  0.00     0.163 A 
HETATM    6  C   UNK N   1      45.608  52.784  62.001  0.00  0.00     0.037 C 
HETATM    7  C   UNK N   1      47.050  52.270  62.303  0.00  0.00     0.031 C 
HETATM    8  C   UNK N   1      49.442  51.033  60.698  0.00  0.00     0.061 C 
HETATM    9  C   UNK N   1      49.302  52.548  61.018  0.00  0.00    -0.044 C 
HETATM   10  C   UNK N   1      45.615  53.038  60.477  0.00  0.00     0.046 C 
HETATM   11  C   UNK N   1      47.509  52.689  63.722  0.00  0.00     0.022 C 
HETATM   12  C   UNK N   1      50.292  53.453  61.173  0.00  0.00     0.018 C 
ENDROOT
BRANCH   8  13
HETATM   13  C   UNK N   1      50.868  50.412  60.274  0.00  0.00    -0.011 C 
HETATM   14  C   UNK N   1      51.125  50.600  58.682  0.00  0.00     0.023 C 
HETATM   15  C   UNK N   1      52.076  49.504  58.036  0.00  0.00     0.022 C 
HETATM   16  C   UNK N   1      51.502  48.153  58.422  0.00  0.00     0.157 C 
HETATM   17  C   UNK N   1      52.135  49.589  56.486  0.00  0.00     0.024 C 
HETATM   18  C   UNK N   1      53.535  49.550  58.537  0.00  0.00     0.024 C 
HETATM   19  O   UNK N   1      51.422  47.238  57.614  0.00  0.00    -0.292 OA
HETATM   20  C   UNK N   1      51.097  47.916  59.807  0.00  0.00     0.048 C 
HETATM   21  C   UNK N   1      50.856  48.922  60.657  0.00  0.00    -0.013 C 
HETATM   22  C   UNK N   1      51.988  51.171  61.063  0.00  0.00     0.021 C 
BRANCH  14  23
HETATM   23  C   UNK N   1      51.439  52.091  58.298  0.00  0.00     0.117 C 
BRANCH  23  24
HETATM   24  C   UNK N   1      50.509  52.658  57.262  0.00  0.00     0.258 C 
HETATM   25  O   UNK N   1      50.755  52.523  56.077  0.00  0.00    -0.265 OA
BRANCH  24  26
HETATM   26  O   UNK N   1      49.385  53.303  57.677  0.00  0.00    -0.326 OA
HETATM   27  C   UNK N   1      49.039  54.567  57.249  0.00  0.00     0.213 C 
ENDBRANCH  24  26
ENDBRANCH  23  24
ENDBRANCH  14  23
ENDBRANCH   8  13
BRANCH   4  28
HETATM   28  O   UNK N   1      49.413  50.456  63.085  0.00  0.00    -0.313 OA
BRANCH  28  29
HETATM   29  C   UNK N   1      49.562  49.493  64.037  0.00  0.00     0.255 C 
HETATM   30  O   UNK N   1      48.600  49.058  64.650  0.00  0.00    -0.266 OA
HETATM   31  C   UNK N   1      50.930  48.987  64.351  0.00  0.00     0.126 C 
ENDBRANCH  28  29
ENDBRANCH   4  28
BRANCH   3  32
HETATM   32  O   UNK N   1      46.557  50.276  60.959  0.00  0.00    -0.313 OA
BRANCH  32  33
HETATM   33  C   UNK N   1      46.267  48.963  60.734  0.00  0.00     0.255 C 
HETATM   34  O   UNK N   1      45.631  48.308  61.545  0.00  0.00    -0.266 OA
HETATM   35  C   UNK N   1      46.757  48.311  59.486  0.00  0.00     0.126 C 
ENDBRANCH  32  33
ENDBRANCH   3  32
BRANCH   6  36
HETATM   36  C   UNK N   1      44.461  51.924  62.493  0.00  0.00    -0.029 A 
HETATM   37  C   UNK N   1      44.149  51.628  63.807  0.00  0.00     0.148 A 
HETATM   38  O   UNK N   1      43.091  50.847  63.834  0.00  0.00    -0.334 OA
HETATM   39  C   UNK N   1      42.688  50.617  62.604  0.00  0.00     0.142 A 
HETATM   40  C   UNK N   1      43.514  51.277  61.722  0.00  0.00     0.034 A 
ENDBRANCH   6  36
TORSDOF 9
ENDMDL
MODEL 8
REMARK VINA RESULT:      -3.7     23.175     26.203
REMARK  9 active torsions:
REMARK  status: ('A' for Active; 'I' for Inactive)
REMARK    1  A    between atoms: O_3  and  C_15 
REMARK    2  A    between atoms: O_3  and  C_23 
REMARK    3  A    between atoms: O_4  and  C_16 
REMARK    4  A    between atoms: O_4  and  C_24 
REMARK    5  A    between atoms: O_9  and  C_25 
REMARK    6  A    between atoms: C_12  and  C_18 
REMARK    7  A    between atoms: C_20  and  C_21 
REMARK    8  A    between atoms: C_22  and  C_32 
REMARK    9  A    between atoms: C_25  and  C_32 
ROOT
HETATM    1  O   UNK N   1      52.035  53.968  53.121  0.00  0.00    -0.363 OA
HETATM    2  C   UNK N   1      51.774  54.377  54.448  0.00  0.00     0.121 A 
HETATM    3  C   UNK N   1      51.025  56.106  56.089  0.00  0.00     0.174 C 
HETATM    4  C   UNK N   1      51.590  55.213  57.231  0.00  0.00     0.171 C 
HETATM    5  C   UNK N   1      50.688  53.946  53.565  0.00  0.00     0.163 A 
HETATM    6  C   UNK N   1      50.856  56.379  53.479  0.00  0.00     0.037 C 
HETATM    7  C   UNK N   1      51.704  55.879  54.689  0.00  0.00     0.031 C 
HETATM    8  C   UNK N   1      51.491  53.664  56.898  0.00  0.00     0.061 C 
HETATM    9  C   UNK N   1      52.255  53.482  55.557  0.00  0.00    -0.044 C 
HETATM   10  C   UNK N   1      49.907  55.198  53.175  0.00  0.00     0.046 C 
HETATM   11  C   UNK N   1      53.133  56.476  54.659  0.00  0.00     0.022 C 
HETATM   12  C   UNK N   1      53.320  52.687  55.316  0.00  0.00     0.018 C 
ENDROOT
BRANCH   8  13
HETATM   13  C   UNK N   1      51.781  52.688  58.148  0.00  0.00    -0.011 C 
HETATM   14  C   UNK N   1      50.975  53.189  59.466  0.00  0.00     0.023 C 
HETATM   15  C   UNK N   1      51.655  52.788  60.844  0.00  0.00     0.022 C 
HETATM   16  C   UNK N   1      53.093  53.268  60.770  0.00  0.00     0.157 C 
HETATM   17  C   UNK N   1      50.975  53.454  62.072  0.00  0.00     0.024 C 
HETATM   18  C   UNK N   1      51.684  51.271  61.123  0.00  0.00     0.024 C 
HETATM   19  O   UNK N   1      53.630  53.825  61.718  0.00  0.00    -0.292 OA
HETATM   20  C   UNK N   1      53.877  53.001  59.566  0.00  0.00     0.048 C 
HETATM   21  C   UNK N   1      53.299  52.694  58.398  0.00  0.00    -0.013 C 
HETATM   22  C   UNK N   1      51.293  51.249  57.770  0.00  0.00     0.021 C 
BRANCH  14  23
HETATM   23  C   UNK N   1      49.430  52.919  59.361  0.00  0.00     0.117 C 
BRANCH  23  24
HETATM   24  C   UNK N   1      48.587  54.151  59.536  0.00  0.00     0.258 C 
HETATM   25  O   UNK N   1      47.374  54.080  59.459  0.00  0.00    -0.265 OA
BRANCH  24  26
HETATM   26  O   UNK N   1      49.206  55.334  59.798  0.00  0.00    -0.326 OA
HETATM   27  C   UNK N   1      48.667  56.304  60.615  0.00  0.00     0.213 C 
ENDBRANCH  24  26
ENDBRANCH  23  24
ENDBRANCH  14  23
ENDBRANCH   8  13
BRANCH   4  28
HETATM   28  O   UNK N   1      52.893  55.584  57.516  0.00  0.00    -0.313 OA
BRANCH  28  29
HETATM   29  C   UNK N   1      53.240  56.549  58.413  0.00  0.00     0.255 C 
HETATM   30  O   UNK N   1      54.209  57.267  58.224  0.00  0.00    -0.266 OA
HETATM   31  C   UNK N   1      52.435  56.705  59.659  0.00  0.00     0.126 C 
ENDBRANCH  28  29
ENDBRANCH   4  28
BRANCH   3  32
HETATM   32  O   UNK N   1      49.658  55.873  56.044  0.00  0.00    -0.313 OA
BRANCH  32  33
HETATM   33  C   UNK N   1      48.745  56.627  56.722  0.00  0.00     0.255 C 
HETATM   34  O   UNK N   1      47.598  56.237  56.882  0.00  0.00    -0.266 OA
HETATM   35  C   UNK N   1      49.149  57.959  57.254  0.00  0.00     0.126 C 
ENDBRANCH  32  33
ENDBRANCH   3  32
BRANCH   6  36
HETATM   36  C   UNK N   1      50.168  57.720  53.638  0.00  0.00    -0.029 A 
HETATM   37  C   UNK N   1      50.759  58.925  53.968  0.00  0.00     0.148 A 
HETATM   38  O   UNK N   1      49.836  59.859  54.019  0.00  0.00    -0.334 OA
HETATM   39  C   UNK N   1      48.666  59.332  53.734  0.00  0.00     0.142 A 
HETATM   40  C   UNK N   1      48.821  57.988  53.481  0.00  0.00     0.034 A 
ENDBRANCH   6  36
TORSDOF 9
ENDMDL
MODEL 9
REMARK VINA RESULT:      -3.7     18.884     22.110
REMARK  9 active torsions:
REMARK  status: ('A' for Active; 'I' for Inactive)
REMARK    1  A    between atoms: O_3  and  C_15 
REMARK    2  A    between atoms: O_3  and  C_23 
REMARK    3  A    between atoms: O_4  and  C_16 
REMARK    4  A    between atoms: O_4  and  C_24 
REMARK    5  A    between atoms: O_9  and  C_25 
REMARK    6  A    between atoms: C_12  and  C_18 
REMARK    7  A    between atoms: C_20  and  C_21 
REMARK    8  A    between atoms: C_22  and  C_32 
REMARK    9  A    between atoms: C_25  and  C_32 
ROOT
HETATM    1  O   UNK N   1      27.534  53.221  37.482  0.00  0.00    -0.363 OA
HETATM    2  C   UNK N   1      27.730  54.150  38.528  0.00  0.00     0.121 A 
HETATM    3  C   UNK N   1      26.931  56.061  39.925  0.00  0.00     0.174 C 
HETATM    4  C   UNK N   1      28.379  56.217  40.473  0.00  0.00     0.171 C 
HETATM    5  C   UNK N   1      26.929  52.942  38.734  0.00  0.00     0.163 A 
HETATM    6  C   UNK N   1      25.439  54.791  38.171  0.00  0.00     0.037 C 
HETATM    7  C   UNK N   1      26.842  55.386  38.508  0.00  0.00     0.031 C 
HETATM    8  C   UNK N   1      29.152  54.834  40.554  0.00  0.00     0.061 C 
HETATM    9  C   UNK N   1      29.113  54.256  39.111  0.00  0.00    -0.044 C 
HETATM   10  C   UNK N   1      25.469  53.383  38.806  0.00  0.00     0.046 C 
HETATM   11  C   UNK N   1      27.322  56.354  37.397  0.00  0.00     0.022 C 
HETATM   12  C   UNK N   1      30.161  53.924  38.327  0.00  0.00     0.018 C 
ENDROOT
BRANCH   8  13
HETATM   13  C   UNK N   1      30.534  54.883  41.381  0.00  0.00    -0.011 C 
HETATM   14  C   UNK N   1      30.920  53.409  41.943  0.00  0.00     0.023 C 
HETATM   15  C   UNK N   1      31.799  53.419  43.266  0.00  0.00     0.022 C 
HETATM   16  C   UNK N   1      31.066  54.298  44.264  0.00  0.00     0.157 C 
HETATM   17  C   UNK N   1      31.974  52.007  43.889  0.00  0.00     0.024 C 
HETATM   18  C   UNK N   1      33.216  54.002  43.086  0.00  0.00     0.024 C 
HETATM   19  O   UNK N   1      30.951  53.972  45.438  0.00  0.00    -0.292 OA
HETATM   20  C   UNK N   1      30.543  55.592  43.831  0.00  0.00     0.048 C 
HETATM   21  C   UNK N   1      30.346  55.880  42.538  0.00  0.00    -0.013 C 
HETATM   22  C   UNK N   1      31.667  55.371  40.417  0.00  0.00     0.021 C 
BRANCH  14  23
HETATM   23  C   UNK N   1      31.408  52.443  40.804  0.00  0.00     0.117 C 
BRANCH  23  24
HETATM   24  C   UNK N   1      30.648  51.148  40.742  0.00  0.00     0.258 C 
HETATM   25  O   UNK N   1      29.463  51.145  40.459  0.00  0.00    -0.265 OA
BRANCH  24  26
HETATM   26  O   UNK N   1      31.314  49.987  40.988  0.00  0.00    -0.326 OA
HETATM   27  C   UNK N   1      30.686  48.765  41.097  0.00  0.00     0.213 C 
ENDBRANCH  24  26
ENDBRANCH  23  24
ENDBRANCH  14  23
ENDBRANCH   8  13
BRANCH   4  28
HETATM   28  O   UNK N   1      29.074  57.138  39.707  0.00  0.00    -0.313 OA
BRANCH  28  29
HETATM   29  C   UNK N   1      29.027  58.487  39.893  0.00  0.00     0.255 C 
HETATM   30  O   UNK N   1      28.679  58.964  40.962  0.00  0.00    -0.266 OA
HETATM   31  C   UNK N   1      29.377  59.389  38.758  0.00  0.00     0.126 C 
ENDBRANCH  28  29
ENDBRANCH   4  28
BRANCH   3  32
HETATM   32  O   UNK N   1      26.221  55.352  40.882  0.00  0.00    -0.313 OA
BRANCH  32  33
HETATM   33  C   UNK N   1      26.057  55.780  42.167  0.00  0.00     0.255 C 
HETATM   34  O   UNK N   1      26.465  55.119  43.109  0.00  0.00    -0.266 OA
HETATM   35  C   UNK N   1      25.344  57.064  42.423  0.00  0.00     0.126 C 
ENDBRANCH  32  33
ENDBRANCH   3  32
BRANCH   6  36
HETATM   36  C   UNK N   1      24.234  55.630  38.550  0.00  0.00    -0.029 A 
HETATM   37  C   UNK N   1      23.878  56.858  38.025  0.00  0.00     0.148 A 
HETATM   38  O   UNK N   1      22.778  57.275  38.610  0.00  0.00    -0.334 OA
HETATM   39  C   UNK N   1      22.388  56.382  39.492  0.00  0.00     0.142 A 
HETATM   40  C   UNK N   1      23.268  55.323  39.489  0.00  0.00     0.034 A 
ENDBRANCH   6  36
TORSDOF 9
ENDMDL
