MODEL 1
REMARK VINA RESULT:      -5.2      0.000      0.000
REMARK  4 active torsions:
REMARK  status: ('A' for Active; 'I' for Inactive)
REMARK    1  A    between atoms: O_2  and  C_10 
REMARK    2  A    between atoms: O_2  and  C_17 
REMARK    3  A    between atoms: O_3  and  C_11 
REMARK    4  A    between atoms: C_8  and  C_12 
ROOT
HETATM    1  O   UNK N   1      27.409  34.729  55.096  0.00  0.00    -0.292 OA
HETATM    2  C   UNK N   1      26.574  41.798  53.010  0.00  0.00     0.102 C 
HETATM    3  C   UNK N   1      29.627  40.054  54.600  0.00  0.00     0.131 C 
HETATM    4  C   UNK N   1      26.678  43.119  52.196  0.00  0.00     0.064 C 
HETATM    5  C   UNK N   1      28.339  40.917  54.829  0.00  0.00     0.013 C 
HETATM    6  C   UNK N   1      27.327  38.807  56.185  0.00  0.00    -0.017 C 
HETATM    7  C   UNK N   1      27.127  39.933  55.088  0.00  0.00     0.013 C 
HETATM    8  C   UNK N   1      28.687  38.027  55.965  0.00  0.00     0.016 C 
HETATM    9  C   UNK N   1      27.437  35.920  55.369  0.00  0.00     0.157 C 
HETATM   10  C   UNK N   1      27.979  41.731  53.562  0.00  0.00    -0.037 C 
HETATM   11  C   UNK N   1      29.860  39.030  55.744  0.00  0.00     0.039 C 
HETATM   12  C   UNK N   1      26.132  37.854  56.168  0.00  0.00    -0.013 C 
HETATM   13  C   UNK N   1      28.650  36.760  55.003  0.00  0.00     0.022 C 
HETATM   14  C   UNK N   1      25.618  41.888  54.219  0.00  0.00     0.045 C 
HETATM   15  C   UNK N   1      28.128  43.140  51.696  0.00  0.00     0.040 C 
HETATM   16  C   UNK N   1      25.740  40.664  55.155  0.00  0.00     0.010 C 
HETATM   17  C   UNK N   1      28.578  41.959  55.958  0.00  0.00     0.023 C 
HETATM   18  C   UNK N   1      27.318  39.368  57.637  0.00  0.00     0.020 C 
HETATM   19  C   UNK N   1      26.200  36.558  55.844  0.00  0.00     0.048 C 
HETATM   20  C   UNK N   1      28.815  42.494  52.852  0.00  0.00    -0.019 C 
HETATM   21  C   UNK N   1      29.927  35.899  55.237  0.00  0.00     0.024 C 
HETATM   22  C   UNK N   1      28.564  37.021  53.484  0.00  0.00     0.024 C 
ENDROOT
BRANCH   4  23
HETATM   23  C   UNK N   1      25.624  43.383  51.148  0.00  0.00    -0.026 A 
HETATM   24  C   UNK N   1      24.398  43.999  51.324  0.00  0.00     0.148 A 
HETATM   25  O   UNK N   1      23.781  44.065  50.165  0.00  0.00    -0.334 OA
HETATM   26  C   UNK N   1      24.540  43.522  49.238  0.00  0.00     0.142 A 
HETATM   27  C   UNK N   1      25.715  43.076  49.808  0.00  0.00     0.034 A 
ENDBRANCH   4  23
BRANCH   2  28
HETATM   28  O   UNK N   1      26.357  40.701  52.179  0.00  0.00    -0.305 OA
BRANCH  28  29
HETATM   29  C   UNK N   1      25.187  40.005  52.073  0.00  0.00     0.255 C 
HETATM   30  O   UNK N   1      24.160  40.545  51.710  0.00  0.00    -0.266 OA
HETATM   31  C   UNK N   1      25.196  38.535  52.342  0.00  0.00     0.126 C 
ENDBRANCH  28  29
ENDBRANCH   2  28
BRANCH   3  32
HETATM   32  O   UNK N   1      30.758  40.886  54.502  0.00  0.00    -0.394 OA
HETATM   33  H   UNK N   1      31.036  41.119  55.426  0.00  0.00     0.210 HD
ENDBRANCH   3  32
TORSDOF 4
ENDMDL
MODEL 2
REMARK VINA RESULT:      -4.7      7.836     11.276
REMARK  4 active torsions:
REMARK  status: ('A' for Active; 'I' for Inactive)
REMARK    1  A    between atoms: O_2  and  C_10 
REMARK    2  A    between atoms: O_2  and  C_17 
REMARK    3  A    between atoms: O_3  and  C_11 
REMARK    4  A    between atoms: C_8  and  C_12 
ROOT
HETATM    1  O   UNK N   1      26.914  50.724  63.856  0.00  0.00    -0.292 OA
HETATM    2  C   UNK N   1      29.070  45.917  58.634  0.00  0.00     0.102 C 
HETATM    3  C   UNK N   1      29.512  49.748  58.774  0.00  0.00     0.131 C 
HETATM    4  C   UNK N   1      29.960  44.990  57.758  0.00  0.00     0.064 C 
HETATM    5  C   UNK N   1      28.660  48.541  58.251  0.00  0.00     0.013 C 
HETATM    6  C   UNK N   1      26.664  49.429  59.845  0.00  0.00    -0.017 C 
HETATM    7  C   UNK N   1      27.548  48.219  59.330  0.00  0.00     0.013 C 
HETATM    8  C   UNK N   1      27.567  50.657  60.273  0.00  0.00     0.016 C 
HETATM    9  C   UNK N   1      26.908  50.361  62.689  0.00  0.00     0.157 C 
HETATM   10  C   UNK N   1      29.524  47.263  58.118  0.00  0.00    -0.037 C 
HETATM   11  C   UNK N   1      28.628  50.962  59.173  0.00  0.00     0.039 C 
HETATM   12  C   UNK N   1      25.777  48.964  61.000  0.00  0.00    -0.013 C 
HETATM   13  C   UNK N   1      28.081  50.691  61.779  0.00  0.00     0.022 C 
HETATM   14  C   UNK N   1      27.562  45.801  58.326  0.00  0.00     0.045 C 
HETATM   15  C   UNK N   1      31.257  45.786  57.564  0.00  0.00     0.040 C 
HETATM   16  C   UNK N   1      26.736  46.914  59.012  0.00  0.00     0.010 C 
HETATM   17  C   UNK N   1      28.112  48.841  56.827  0.00  0.00     0.023 C 
HETATM   18  C   UNK N   1      25.639  49.926  58.784  0.00  0.00     0.020 C 
HETATM   19  C   UNK N   1      25.866  49.418  62.256  0.00  0.00     0.048 C 
HETATM   20  C   UNK N   1      30.709  47.173  57.508  0.00  0.00    -0.019 C 
HETATM   21  C   UNK N   1      28.574  52.129  62.122  0.00  0.00     0.024 C 
HETATM   22  C   UNK N   1      29.223  49.728  62.164  0.00  0.00     0.024 C 
ENDROOT
BRANCH   4  23
HETATM   23  C   UNK N   1      30.135  43.559  58.203  0.00  0.00    -0.026 A 
HETATM   24  C   UNK N   1      29.331  42.476  57.894  0.00  0.00     0.148 A 
HETATM   25  O   UNK N   1      29.833  41.396  58.450  0.00  0.00    -0.334 OA
HETATM   26  C   UNK N   1      30.925  41.715  59.110  0.00  0.00     0.142 A 
HETATM   27  C   UNK N   1      31.158  43.070  58.986  0.00  0.00     0.034 A 
ENDBRANCH   4  23
BRANCH   2  28
HETATM   28  O   UNK N   1      29.397  45.812  59.985  0.00  0.00    -0.305 OA
BRANCH  28  29
HETATM   29  C   UNK N   1      28.628  45.214  60.943  0.00  0.00     0.255 C 
HETATM   30  O   UNK N   1      28.318  44.041  60.863  0.00  0.00    -0.266 OA
HETATM   31  C   UNK N   1      28.227  46.008  62.143  0.00  0.00     0.126 C 
ENDBRANCH  28  29
ENDBRANCH   2  28
BRANCH   3  32
HETATM   32  O   UNK N   1      30.427  50.160  57.787  0.00  0.00    -0.394 OA
HETATM   33  H   UNK N   1      31.112  50.722  58.234  0.00  0.00     0.210 HD
ENDBRANCH   3  32
TORSDOF 4
ENDMDL
MODEL 3
REMARK VINA RESULT:      -4.5     21.391     24.886
REMARK  4 active torsions:
REMARK  status: ('A' for Active; 'I' for Inactive)
REMARK    1  A    between atoms: O_2  and  C_10 
REMARK    2  A    between atoms: O_2  and  C_17 
REMARK    3  A    between atoms: O_3  and  C_11 
REMARK    4  A    between atoms: C_8  and  C_12 
ROOT
HETATM    1  O   UNK N   1      44.956  59.485  60.610  0.00  0.00    -0.292 OA
HETATM    2  C   UNK N   1      44.603  52.408  62.803  0.00  0.00     0.102 C 
HETATM    3  C   UNK N   1      41.994  55.226  63.181  0.00  0.00     0.131 C 
HETATM    4  C   UNK N   1      44.237  50.898  62.862  0.00  0.00     0.064 C 
HETATM    5  C   UNK N   1      43.168  54.426  63.840  0.00  0.00     0.013 C 
HETATM    6  C   UNK N   1      44.592  56.725  63.783  0.00  0.00    -0.017 C 
HETATM    7  C   UNK N   1      44.524  55.167  63.497  0.00  0.00     0.013 C 
HETATM    8  C   UNK N   1      43.335  57.474  63.178  0.00  0.00     0.016 C 
HETATM    9  C   UNK N   1      44.794  58.663  61.500  0.00  0.00     0.157 C 
HETATM   10  C   UNK N   1      43.283  53.004  63.237  0.00  0.00    -0.037 C 
HETATM   11  C   UNK N   1      42.021  56.731  63.564  0.00  0.00     0.039 C 
HETATM   12  C   UNK N   1      45.898  57.293  63.228  0.00  0.00    -0.013 C 
HETATM   13  C   UNK N   1      43.446  57.980  61.674  0.00  0.00     0.022 C 
HETATM   14  C   UNK N   1      45.655  52.833  63.849  0.00  0.00     0.045 C 
HETATM   15  C   UNK N   1      42.754  50.853  62.472  0.00  0.00     0.040 C 
HETATM   16  C   UNK N   1      45.798  54.370  63.946  0.00  0.00     0.010 C 
HETATM   17  C   UNK N   1      42.906  54.230  65.359  0.00  0.00     0.023 C 
HETATM   18  C   UNK N   1      44.672  57.058  65.301  0.00  0.00     0.020 C 
HETATM   19  C   UNK N   1      45.975  58.190  62.238  0.00  0.00     0.048 C 
HETATM   20  C   UNK N   1      42.283  52.132  63.078  0.00  0.00    -0.019 C 
HETATM   21  C   UNK N   1      42.329  59.031  61.400  0.00  0.00     0.024 C 
HETATM   22  C   UNK N   1      43.341  56.921  60.556  0.00  0.00     0.024 C 
ENDROOT
BRANCH   4  23
HETATM   23  C   UNK N   1      45.133  49.929  62.130  0.00  0.00    -0.026 A 
HETATM   24  C   UNK N   1      46.275  49.312  62.608  0.00  0.00     0.148 A 
HETATM   25  O   UNK N   1      46.756  48.519  61.676  0.00  0.00    -0.334 OA
HETATM   26  C   UNK N   1      45.988  48.585  60.611  0.00  0.00     0.142 A 
HETATM   27  C   UNK N   1      44.949  49.463  60.847  0.00  0.00     0.034 A 
ENDBRANCH   4  23
BRANCH   2  28
HETATM   28  O   UNK N   1      44.881  52.816  61.500  0.00  0.00    -0.305 OA
BRANCH  28  29
HETATM   29  C   UNK N   1      46.119  53.130  61.015  0.00  0.00     0.255 C 
HETATM   30  O   UNK N   1      47.025  52.320  61.020  0.00  0.00    -0.266 OA
HETATM   31  C   UNK N   1      46.331  54.477  60.403  0.00  0.00     0.126 C 
ENDBRANCH  28  29
ENDBRANCH   2  28
BRANCH   3  32
HETATM   32  O   UNK N   1      40.756  54.683  63.573  0.00  0.00    -0.394 OA
HETATM   33  H   UNK N   1      40.938  54.006  64.275  0.00  0.00     0.210 HD
ENDBRANCH   3  32
TORSDOF 4
ENDMDL
MODEL 4
REMARK VINA RESULT:      -4.5      3.838      6.185
REMARK  4 active torsions:
REMARK  status: ('A' for Active; 'I' for Inactive)
REMARK    1  A    between atoms: O_2  and  C_10 
REMARK    2  A    between atoms: O_2  and  C_17 
REMARK    3  A    between atoms: O_3  and  C_11 
REMARK    4  A    between atoms: C_8  and  C_12 
ROOT
HETATM    1  O   UNK N   1      27.489  36.352  54.797  0.00  0.00    -0.292 OA
HETATM    2  C   UNK N   1      29.917  42.125  58.772  0.00  0.00     0.102 C 
HETATM    3  C   UNK N   1      30.594  38.356  59.254  0.00  0.00     0.131 C 
HETATM    4  C   UNK N   1      30.840  43.235  59.350  0.00  0.00     0.064 C 
HETATM    5  C   UNK N   1      29.731  39.599  59.660  0.00  0.00     0.013 C 
HETATM    6  C   UNK N   1      27.625  38.347  58.515  0.00  0.00    -0.017 C 
HETATM    7  C   UNK N   1      28.481  39.669  58.693  0.00  0.00     0.013 C 
HETATM    8  C   UNK N   1      28.552  37.102  58.199  0.00  0.00     0.016 C 
HETATM    9  C   UNK N   1      27.595  36.922  55.873  0.00  0.00     0.157 C 
HETATM   10  C   UNK N   1      30.518  40.917  59.454  0.00  0.00    -0.037 C 
HETATM   11  C   UNK N   1      29.753  37.052  59.191  0.00  0.00     0.039 C 
HETATM   12  C   UNK N   1      26.580  38.553  57.419  0.00  0.00    -0.013 C 
HETATM   13  C   UNK N   1      28.886  36.816  56.669  0.00  0.00     0.022 C 
HETATM   14  C   UNK N   1      28.452  42.228  59.244  0.00  0.00     0.045 C 
HETATM   15  C   UNK N   1      32.201  42.546  59.514  0.00  0.00     0.040 C 
HETATM   16  C   UNK N   1      27.627  40.973  58.876  0.00  0.00     0.010 C 
HETATM   17  C   UNK N   1      29.375  39.541  61.173  0.00  0.00     0.023 C 
HETATM   18  C   UNK N   1      26.768  38.007  59.769  0.00  0.00     0.020 C 
HETATM   19  C   UNK N   1      26.551  37.882  56.262  0.00  0.00     0.048 C 
HETATM   20  C   UNK N   1      31.757  41.170  59.883  0.00  0.00    -0.019 C 
HETATM   21  C   UNK N   1      29.430  35.364  56.525  0.00  0.00     0.024 C 
HETATM   22  C   UNK N   1      29.909  37.742  55.978  0.00  0.00     0.024 C 
ENDROOT
BRANCH   4  23
HETATM   23  C   UNK N   1      30.866  44.567  58.641  0.00  0.00    -0.026 A 
HETATM   24  C   UNK N   1      31.684  44.947  57.592  0.00  0.00     0.148 A 
HETATM   25  O   UNK N   1      31.382  46.175  57.236  0.00  0.00    -0.334 OA
HETATM   26  C   UNK N   1      30.409  46.622  58.000  0.00  0.00     0.142 A 
HETATM   27  C   UNK N   1      30.048  45.643  58.904  0.00  0.00     0.034 A 
ENDBRANCH   4  23
BRANCH   2  28
HETATM   28  O   UNK N   1      30.076  41.995  57.393  0.00  0.00    -0.305 OA
BRANCH  28  29
HETATM   29  C   UNK N   1      29.144  42.331  56.453  0.00  0.00     0.255 C 
HETATM   30  O   UNK N   1      28.632  43.433  56.436  0.00  0.00    -0.266 OA
HETATM   31  C   UNK N   1      28.808  41.341  55.386  0.00  0.00     0.126 C 
ENDBRANCH  28  29
ENDBRANCH   2  28
BRANCH   3  32
HETATM   32  O   UNK N   1      31.644  38.172  60.173  0.00  0.00    -0.394 OA
HETATM   33  H   UNK N   1      32.440  37.876  59.659  0.00  0.00     0.210 HD
ENDBRANCH   3  32
TORSDOF 4
ENDMDL
MODEL 5
REMARK VINA RESULT:      -4.5     23.572     26.788
REMARK  4 active torsions:
REMARK  status: ('A' for Active; 'I' for Inactive)
REMARK    1  A    between atoms: O_2  and  C_10 
REMARK    2  A    between atoms: O_2  and  C_17 
REMARK    3  A    between atoms: O_3  and  C_11 
REMARK    4  A    between atoms: C_8  and  C_12 
ROOT
HETATM    1  O   UNK N   1      53.015  53.495  56.013  0.00  0.00    -0.292 OA
HETATM    2  C   UNK N   1      47.790  52.357  61.155  0.00  0.00     0.102 C 
HETATM    3  C   UNK N   1      47.965  55.041  58.387  0.00  0.00     0.131 C 
HETATM    4  C   UNK N   1      46.461  51.927  61.839  0.00  0.00     0.064 C 
HETATM    5  C   UNK N   1      48.238  54.680  59.887  0.00  0.00     0.013 C 
HETATM    6  C   UNK N   1      50.871  54.966  59.339  0.00  0.00    -0.017 C 
HETATM    7  C   UNK N   1      49.710  54.110  59.997  0.00  0.00     0.013 C 
HETATM    8  C   UNK N   1      50.505  55.385  57.857  0.00  0.00     0.016 C 
HETATM    9  C   UNK N   1      52.337  53.914  56.941  0.00  0.00     0.157 C 
HETATM   10  C   UNK N   1      47.295  53.551  60.371  0.00  0.00    -0.037 C 
HETATM   11  C   UNK N   1      49.061  55.968  57.796  0.00  0.00     0.039 C 
HETATM   12  C   UNK N   1      52.181  54.180  59.387  0.00  0.00    -0.013 C 
HETATM   13  C   UNK N   1      50.908  54.373  56.696  0.00  0.00     0.022 C 
HETATM   14  C   UNK N   1      48.856  52.877  62.142  0.00  0.00     0.045 C 
HETATM   15  C   UNK N   1      45.377  52.278  60.811  0.00  0.00     0.040 C 
HETATM   16  C   UNK N   1      50.050  53.542  61.419  0.00  0.00     0.010 C 
HETATM   17  C   UNK N   1      47.949  55.905  60.800  0.00  0.00     0.023 C 
HETATM   18  C   UNK N   1      51.199  56.259  60.142  0.00  0.00     0.020 C 
HETATM   19  C   UNK N   1      52.849  53.753  58.310  0.00  0.00     0.048 C 
HETATM   20  C   UNK N   1      45.969  53.512  60.215  0.00  0.00    -0.019 C 
HETATM   21  C   UNK N   1      50.862  55.115  55.328  0.00  0.00     0.024 C 
HETATM   22  C   UNK N   1      50.056  53.097  56.536  0.00  0.00     0.024 C 
ENDROOT
BRANCH   4  23
HETATM   23  C   UNK N   1      46.386  50.534  62.414  0.00  0.00    -0.026 A 
HETATM   24  C   UNK N   1      45.900  49.394  61.800  0.00  0.00     0.148 A 
HETATM   25  O   UNK N   1      46.032  48.375  62.620  0.00  0.00    -0.334 OA
HETATM   26  C   UNK N   1      46.579  48.789  63.742  0.00  0.00     0.142 A 
HETATM   27  C   UNK N   1      46.821  50.146  63.663  0.00  0.00     0.034 A 
ENDBRANCH   4  23
BRANCH   2  28
HETATM   28  O   UNK N   1      48.245  51.385  60.267  0.00  0.00    -0.305 OA
BRANCH  28  29
HETATM   29  C   UNK N   1      49.324  50.571  60.466  0.00  0.00     0.255 C 
HETATM   30  O   UNK N   1      49.338  49.748  61.360  0.00  0.00    -0.266 OA
HETATM   31  C   UNK N   1      50.474  50.654  59.516  0.00  0.00     0.126 C 
ENDBRANCH  28  29
ENDBRANCH   2  28
BRANCH   3  32
HETATM   32  O   UNK N   1      46.717  55.679  58.260  0.00  0.00    -0.394 OA
HETATM   33  H   UNK N   1      46.892  56.641  58.088  0.00  0.00     0.210 HD
ENDBRANCH   3  32
TORSDOF 4
ENDMDL
MODEL 6
REMARK VINA RESULT:      -4.5     27.016     29.526
REMARK  4 active torsions:
REMARK  status: ('A' for Active; 'I' for Inactive)
REMARK    1  A    between atoms: O_2  and  C_10 
REMARK    2  A    between atoms: O_2  and  C_17 
REMARK    3  A    between atoms: O_3  and  C_11 
REMARK    4  A    between atoms: C_8  and  C_12 
ROOT
HETATM    1  O   UNK N   1      50.751  60.330  58.710  0.00  0.00    -0.292 OA
HETATM    2  C   UNK N   1      51.673  53.547  55.852  0.00  0.00     0.102 C 
HETATM    3  C   UNK N   1      51.858  56.987  54.113  0.00  0.00     0.131 C 
HETATM    4  C   UNK N   1      52.341  52.267  55.276  0.00  0.00     0.064 C 
HETATM    5  C   UNK N   1      50.982  55.735  54.460  0.00  0.00     0.013 C 
HETATM    6  C   UNK N   1      49.464  57.381  55.976  0.00  0.00    -0.017 C 
HETATM    7  C   UNK N   1      50.249  56.012  55.835  0.00  0.00     0.013 C 
HETATM    8  C   UNK N   1      50.360  58.606  55.525  0.00  0.00     0.016 C 
HETATM    9  C   UNK N   1      50.439  59.480  57.889  0.00  0.00     0.157 C 
HETATM   10  C   UNK N   1      51.863  54.480  54.678  0.00  0.00    -0.037 C 
HETATM   11  C   UNK N   1      51.040  58.307  54.154  0.00  0.00     0.039 C 
HETATM   12  C   UNK N   1      48.979  57.550  57.416  0.00  0.00    -0.013 C 
HETATM   13  C   UNK N   1      51.277  59.282  56.636  0.00  0.00     0.022 C 
HETATM   14  C   UNK N   1      50.152  53.407  56.075  0.00  0.00     0.045 C 
HETATM   15  C   UNK N   1      53.468  52.800  54.382  0.00  0.00     0.040 C 
HETATM   16  C   UNK N   1      49.478  54.763  56.388  0.00  0.00     0.010 C 
HETATM   17  C   UNK N   1      50.032  55.394  53.278  0.00  0.00     0.023 C 
HETATM   18  C   UNK N   1      48.147  57.412  55.148  0.00  0.00     0.020 C 
HETATM   19  C   UNK N   1      49.388  58.515  58.247  0.00  0.00     0.048 C 
HETATM   20  C   UNK N   1      52.829  54.044  53.865  0.00  0.00    -0.019 C 
HETATM   21  C   UNK N   1      51.742  60.683  56.136  0.00  0.00     0.024 C 
HETATM   22  C   UNK N   1      52.549  58.523  57.070  0.00  0.00     0.024 C 
ENDROOT
BRANCH   4  23
HETATM   23  C   UNK N   1      52.739  51.184  56.249  0.00  0.00    -0.026 A 
HETATM   24  C   UNK N   1      51.952  50.151  56.727  0.00  0.00     0.148 A 
HETATM   25  O   UNK N   1      52.671  49.402  57.534  0.00  0.00    -0.334 OA
HETATM   26  C   UNK N   1      53.889  49.892  57.610  0.00  0.00     0.142 A 
HETATM   27  C   UNK N   1      53.983  51.018  56.817  0.00  0.00     0.034 A 
ENDBRANCH   4  23
BRANCH   2  28
HETATM   28  O   UNK N   1      52.377  54.043  56.948  0.00  0.00    -0.305 OA
BRANCH  28  29
HETATM   29  C   UNK N   1      51.960  53.994  58.247  0.00  0.00     0.255 C 
HETATM   30  O   UNK N   1      51.732  52.935  58.798  0.00  0.00    -0.266 OA
HETATM   31  C   UNK N   1      51.854  55.269  59.019  0.00  0.00     0.126 C 
ENDBRANCH  28  29
ENDBRANCH   2  28
BRANCH   3  32
HETATM   32  O   UNK N   1      52.422  56.846  52.832  0.00  0.00    -0.394 OA
HETATM   33  H   UNK N   1      53.013  57.629  52.680  0.00  0.00     0.210 HD
ENDBRANCH   3  32
TORSDOF 4
ENDMDL
MODEL 7
REMARK VINA RESULT:      -4.4      4.256      7.758
REMARK  4 active torsions:
REMARK  status: ('A' for Active; 'I' for Inactive)
REMARK    1  A    between atoms: O_2  and  C_10 
REMARK    2  A    between atoms: O_2  and  C_17 
REMARK    3  A    between atoms: O_3  and  C_11 
REMARK    4  A    between atoms: C_8  and  C_12 
ROOT
HETATM    1  O   UNK N   1      31.444  42.291  62.862  0.00  0.00    -0.292 OA
HETATM    2  C   UNK N   1      28.977  38.278  57.133  0.00  0.00     0.102 C 
HETATM    3  C   UNK N   1      30.117  41.963  57.236  0.00  0.00     0.131 C 
HETATM    4  C   UNK N   1      28.944  37.434  55.827  0.00  0.00     0.064 C 
HETATM    5  C   UNK N   1      28.918  40.956  57.289  0.00  0.00     0.013 C 
HETATM    6  C   UNK N   1      28.539  41.747  59.847  0.00  0.00    -0.017 C 
HETATM    7  C   UNK N   1      28.671  40.563  58.802  0.00  0.00     0.013 C 
HETATM    8  C   UNK N   1      29.724  42.785  59.690  0.00  0.00     0.016 C 
HETATM    9  C   UNK N   1      30.652  42.139  61.944  0.00  0.00     0.157 C 
HETATM   10  C   UNK N   1      29.258  39.641  56.545  0.00  0.00    -0.037 C 
HETATM   11  C   UNK N   1      29.915  43.170  58.192  0.00  0.00     0.039 C 
HETATM   12  C   UNK N   1      28.485  41.177  61.265  0.00  0.00    -0.013 C 
HETATM   13  C   UNK N   1      31.051  42.505  60.522  0.00  0.00     0.022 C 
HETATM   14  C   UNK N   1      27.612  38.368  57.848  0.00  0.00     0.045 C 
HETATM   15  C   UNK N   1      29.966  38.119  54.910  0.00  0.00     0.040 C 
HETATM   16  C   UNK N   1      27.611  39.420  58.980  0.00  0.00     0.010 C 
HETATM   17  C   UNK N   1      27.677  41.552  56.566  0.00  0.00     0.023 C 
HETATM   18  C   UNK N   1      27.194  42.520  59.720  0.00  0.00     0.020 C 
HETATM   19  C   UNK N   1      29.412  41.394  62.206  0.00  0.00     0.048 C 
HETATM   20  C   UNK N   1      29.772  39.542  55.316  0.00  0.00    -0.019 C 
HETATM   21  C   UNK N   1      31.908  43.805  60.576  0.00  0.00     0.024 C 
HETATM   22  C   UNK N   1      31.982  41.381  60.022  0.00  0.00     0.024 C 
ENDROOT
BRANCH   4  23
HETATM   23  C   UNK N   1      29.085  35.937  55.954  0.00  0.00    -0.026 A 
HETATM   24  C   UNK N   1      30.227  35.179  55.767  0.00  0.00     0.148 A 
HETATM   25  O   UNK N   1      29.946  33.916  55.997  0.00  0.00    -0.334 OA
HETATM   26  C   UNK N   1      28.677  33.806  56.323  0.00  0.00     0.142 A 
HETATM   27  C   UNK N   1      28.088  35.054  56.310  0.00  0.00     0.034 A 
ENDBRANCH   4  23
BRANCH   2  28
HETATM   28  O   UNK N   1      30.039  37.907  57.955  0.00  0.00    -0.305 OA
BRANCH  28  29
HETATM   29  C   UNK N   1      29.926  37.278  59.162  0.00  0.00     0.255 C 
HETATM   30  O   UNK N   1      29.353  36.212  59.268  0.00  0.00    -0.266 OA
HETATM   31  C   UNK N   1      30.586  37.888  60.356  0.00  0.00     0.126 C 
ENDBRANCH  28  29
ENDBRANCH   2  28
BRANCH   3  32
HETATM   32  O   UNK N   1      30.287  42.448  55.926  0.00  0.00    -0.394 OA
HETATM   33  H   UNK N   1      29.604  43.153  55.780  0.00  0.00     0.210 HD
ENDBRANCH   3  32
TORSDOF 4
ENDMDL
MODEL 8
REMARK VINA RESULT:      -4.4      5.554      7.222
REMARK  4 active torsions:
REMARK  status: ('A' for Active; 'I' for Inactive)
REMARK    1  A    between atoms: O_2  and  C_10 
REMARK    2  A    between atoms: O_2  and  C_17 
REMARK    3  A    between atoms: O_3  and  C_11 
REMARK    4  A    between atoms: C_8  and  C_12 
ROOT
HETATM    1  O   UNK N   1      26.270  40.054  56.584  0.00  0.00    -0.292 OA
HETATM    2  C   UNK N   1      28.673  46.801  58.515  0.00  0.00     0.102 C 
HETATM    3  C   UNK N   1      30.682  43.730  57.322  0.00  0.00     0.131 C 
HETATM    4  C   UNK N   1      29.213  48.257  58.427  0.00  0.00     0.064 C 
HETATM    5  C   UNK N   1      30.153  44.563  58.539  0.00  0.00     0.013 C 
HETATM    6  C   UNK N   1      28.622  42.423  59.168  0.00  0.00    -0.017 C 
HETATM    7  C   UNK N   1      28.736  43.989  58.950  0.00  0.00     0.013 C 
HETATM    8  C   UNK N   1      29.255  41.628  57.954  0.00  0.00     0.016 C 
HETATM    9  C   UNK N   1      26.986  40.760  57.279  0.00  0.00     0.157 C 
HETATM   10  C   UNK N   1      29.928  46.044  58.148  0.00  0.00    -0.037 C 
HETATM   11  C   UNK N   1      30.660  42.202  57.601  0.00  0.00     0.039 C 
HETATM   12  C   UNK N   1      27.158  42.039  59.381  0.00  0.00    -0.013 C 
HETATM   13  C   UNK N   1      28.299  41.294  56.727  0.00  0.00     0.022 C 
HETATM   14  C   UNK N   1      28.287  46.368  59.945  0.00  0.00     0.045 C 
HETATM   15  C   UNK N   1      30.255  48.205  57.302  0.00  0.00     0.040 C 
HETATM   16  C   UNK N   1      28.013  44.850  60.045  0.00  0.00     0.010 C 
HETATM   17  C   UNK N   1      31.203  44.574  59.686  0.00  0.00     0.023 C 
HETATM   18  C   UNK N   1      29.313  41.943  60.478  0.00  0.00     0.020 C 
HETATM   19  C   UNK N   1      26.450  41.261  58.554  0.00  0.00     0.048 C 
HETATM   20  C   UNK N   1      30.799  46.831  57.511  0.00  0.00    -0.019 C 
HETATM   21  C   UNK N   1      28.950  40.179  55.856  0.00  0.00     0.024 C 
HETATM   22  C   UNK N   1      27.938  42.450  55.770  0.00  0.00     0.024 C 
ENDROOT
BRANCH   4  23
HETATM   23  C   UNK N   1      28.204  49.375  58.329  0.00  0.00    -0.026 A 
HETATM   24  C   UNK N   1      27.730  49.984  57.181  0.00  0.00     0.148 A 
HETATM   25  O   UNK N   1      26.843  50.895  57.513  0.00  0.00    -0.334 OA
HETATM   26  C   UNK N   1      26.713  50.917  58.821  0.00  0.00     0.142 A 
HETATM   27  C   UNK N   1      27.552  49.976  59.383  0.00  0.00     0.034 A 
ENDBRANCH   4  23
BRANCH   2  28
HETATM   28  O   UNK N   1      27.696  46.559  57.552  0.00  0.00    -0.305 OA
BRANCH  28  29
HETATM   29  C   UNK N   1      26.361  46.403  57.797  0.00  0.00     0.255 C 
HETATM   30  O   UNK N   1      25.703  47.293  58.299  0.00  0.00    -0.266 OA
HETATM   31  C   UNK N   1      25.693  45.137  57.369  0.00  0.00     0.126 C 
ENDBRANCH  28  29
ENDBRANCH   2  28
BRANCH   3  32
HETATM   32  O   UNK N   1      31.999  44.113  57.008  0.00  0.00    -0.394 OA
HETATM   33  H   UNK N   1      32.608  43.591  57.592  0.00  0.00     0.210 HD
ENDBRANCH   3  32
TORSDOF 4
ENDMDL
MODEL 9
REMARK VINA RESULT:      -4.3      3.376      6.769
REMARK  4 active torsions:
REMARK  status: ('A' for Active; 'I' for Inactive)
REMARK    1  A    between atoms: O_2  and  C_10 
REMARK    2  A    between atoms: O_2  and  C_17 
REMARK    3  A    between atoms: O_3  and  C_11 
REMARK    4  A    between atoms: C_8  and  C_12 
ROOT
HETATM    1  O   UNK N   1      33.647  43.241  58.414  0.00  0.00    -0.292 OA
HETATM    2  C   UNK N   1      27.679  39.253  56.538  0.00  0.00     0.102 C 
HETATM    3  C   UNK N   1      28.110  43.083  56.727  0.00  0.00     0.131 C 
HETATM    4  C   UNK N   1      26.572  38.563  55.693  0.00  0.00     0.064 C 
HETATM    5  C   UNK N   1      27.634  41.777  57.449  0.00  0.00     0.013 C 
HETATM    6  C   UNK N   1      29.639  42.181  59.218  0.00  0.00    -0.017 C 
HETATM    7  C   UNK N   1      28.858  41.188  58.261  0.00  0.00     0.013 C 
HETATM    8  C   UNK N   1      30.015  43.524  58.468  0.00  0.00     0.016 C 
HETATM    9  C   UNK N   1      32.470  42.958  58.586  0.00  0.00     0.157 C 
HETATM   10  C   UNK N   1      27.224  40.690  56.425  0.00  0.00    -0.037 C 
HETATM   11  C   UNK N   1      28.777  44.087  57.707  0.00  0.00     0.039 C 
HETATM   12  C   UNK N   1      30.884  41.488  59.772  0.00  0.00    -0.013 C 
HETATM   13  C   UNK N   1      31.400  43.555  57.685  0.00  0.00     0.022 C 
HETATM   14  C   UNK N   1      27.638  38.883  58.036  0.00  0.00     0.045 C 
HETATM   15  C   UNK N   1      26.226  39.594  54.611  0.00  0.00     0.040 C 
HETATM   16  C   UNK N   1      28.566  39.780  58.888  0.00  0.00     0.010 C 
HETATM   17  C   UNK N   1      26.368  42.062  58.306  0.00  0.00     0.023 C 
HETATM   18  C   UNK N   1      28.833  42.548  60.498  0.00  0.00     0.020 C 
HETATM   19  C   UNK N   1      32.141  41.869  59.519  0.00  0.00     0.048 C 
HETATM   20  C   UNK N   1      26.405  40.858  55.383  0.00  0.00    -0.019 C 
HETATM   21  C   UNK N   1      31.788  45.033  57.383  0.00  0.00     0.024 C 
HETATM   22  C   UNK N   1      31.478  42.795  56.344  0.00  0.00     0.024 C 
ENDROOT
BRANCH   4  23
HETATM   23  C   UNK N   1      26.837  37.163  55.197  0.00  0.00    -0.026 A 
HETATM   24  C   UNK N   1      26.868  35.997  55.942  0.00  0.00     0.148 A 
HETATM   25  O   UNK N   1      27.103  34.982  55.140  0.00  0.00    -0.334 OA
HETATM   26  C   UNK N   1      27.230  35.423  53.908  0.00  0.00     0.142 A 
HETATM   27  C   UNK N   1      27.071  36.794  53.890  0.00  0.00     0.034 A 
ENDBRANCH   4  23
BRANCH   2  28
HETATM   28  O   UNK N   1      28.932  39.123  55.943  0.00  0.00    -0.305 OA
BRANCH  28  29
HETATM   29  C   UNK N   1      29.746  38.030  56.035  0.00  0.00     0.255 C 
HETATM   30  O   UNK N   1      29.897  37.443  57.089  0.00  0.00    -0.266 OA
HETATM   31  C   UNK N   1      30.401  37.512  54.796  0.00  0.00     0.126 C 
ENDBRANCH  28  29
ENDBRANCH   2  28
BRANCH   3  32
HETATM   32  O   UNK N   1      27.020  43.719  56.103  0.00  0.00    -0.394 OA
HETATM   33  H   UNK N   1      27.304  44.642  55.878  0.00  0.00     0.210 HD
ENDBRANCH   3  32
TORSDOF 4
ENDMDL
