MODEL 1
REMARK VINA RESULT:      -5.7      0.000      0.000
REMARK  12 active torsions:
REMARK  status: ('A' for Active; 'I' for Inactive)
REMARK    1  A    between atoms: O_1  and  C_7 
REMARK    2  A    between atoms: O_2  and  C_8 
REMARK    3  A    between atoms: O_4  and  C_9 
REMARK    4  A    between atoms: O_5  and  C_10 
REMARK    5  A    between atoms: O_6  and  C_12 
REMARK    6  A    between atoms: C_7  and  C_16 
REMARK    7  A    between atoms: C_7  and  C_17 
REMARK    8  A    between atoms: C_8  and  C_18 
REMARK    9  A    between atoms: C_8  and  C_19 
REMARK   10  A    between atoms: C_11  and  C_16 
REMARK   11  A    between atoms: C_19  and  C_27 
REMARK   12  A    between atoms: C_20  and  C_27 
ROOT
HETATM    1  C   UNK N   1      29.131  38.418  55.201  0.00  0.00    -0.016 C 
HETATM    2  C   UNK N   1      28.659  37.641  56.516  0.00  0.00     0.006 C 
HETATM    3  C   UNK N   1      29.213  40.552  56.662  0.00  0.00    -0.048 C 
HETATM    4  C   UNK N   1      29.296  39.971  55.415  0.00  0.00    -0.066 C 
HETATM    5  C   UNK N   1      28.807  36.043  56.474  0.00  0.00    -0.043 C 
HETATM    6  C   UNK N   1      30.511  37.854  54.738  0.00  0.00     0.014 C 
HETATM    7  C   UNK N   1      29.407  38.252  57.711  0.00  0.00     0.011 C 
HETATM    8  C   UNK N   1      28.063  38.241  54.084  0.00  0.00     0.020 C 
HETATM    9  C   UNK N   1      29.004  39.701  57.893  0.00  0.00     0.037 C 
HETATM   10  C   UNK N   1      30.216  35.661  55.955  0.00  0.00     0.009 C 
HETATM   11  C   UNK N   1      30.538  36.324  54.609  0.00  0.00     0.002 C 
HETATM   12  C   UNK N   1      28.630  35.413  57.886  0.00  0.00     0.015 C 
HETATM   13  C   UNK N   1      27.711  35.336  55.623  0.00  0.00     0.015 C 
ENDROOT
BRANCH   3  14
HETATM   14  C   UNK N   1      29.337  42.075  56.902  0.00  0.00     0.150 C 
BRANCH  14  15
HETATM   15  O   UNK N   1      28.590  42.432  58.039  0.00  0.00    -0.391 OA
HETATM   16  H   UNK N   1      27.849  41.779  58.142  0.00  0.00     0.210 HD
ENDBRANCH  14  15
BRANCH  14  17
HETATM   17  C   UNK N   1      30.806  42.565  57.048  0.00  0.00     0.071 C 
BRANCH  17  18
HETATM   18  C   UNK N   1      31.088  43.259  58.412  0.00  0.00     0.155 C 
HETATM   19  O   UNK N   1      30.846  42.397  59.522  0.00  0.00    -0.381 OA
HETATM   20  C   UNK N   1      31.815  41.361  59.632  0.00  0.00     0.202 C 
HETATM   21  C   UNK N   1      33.237  41.921  59.806  0.00  0.00     0.173 C 
HETATM   22  C   UNK N   1      33.583  42.849  58.628  0.00  0.00     0.180 C 
HETATM   23  C   UNK N   1      32.486  43.921  58.519  0.00  0.00     0.178 C 
BRANCH  21  24
HETATM   24  O   UNK N   1      34.179  40.885  59.932  0.00  0.00    -0.391 OA
HETATM   25  H   UNK N   1      33.821  40.093  59.450  0.00  0.00     0.210 HD
ENDBRANCH  21  24
BRANCH  22  26
HETATM   26  O   UNK N   1      34.852  43.429  58.798  0.00  0.00    -0.390 OA
HETATM   27  H   UNK N   1      35.323  43.394  57.924  0.00  0.00     0.210 HD
ENDBRANCH  22  26
BRANCH  23  28
HETATM   28  O   UNK N   1      32.713  44.766  57.420  0.00  0.00    -0.390 OA
HETATM   29  H   UNK N   1      32.310  44.326  56.628  0.00  0.00     0.210 HD
ENDBRANCH  23  28
ENDBRANCH  17  18
ENDBRANCH  14  17
ENDBRANCH   3  14
BRANCH   4  30
HETATM   30  C   UNK N   1      29.571  40.843  54.177  0.00  0.00     0.038 C 
BRANCH  30  31
HETATM   31  C   UNK N   1      28.311  41.593  53.681  0.00  0.00     0.040 C 
BRANCH  31  32
HETATM   32  C   UNK N   1      28.471  42.231  52.278  0.00  0.00     0.140 C 
BRANCH  32  33
HETATM   33  O   UNK N   1      29.836  42.290  51.937  0.00  0.00    -0.392 OA
HETATM   34  H   UNK N   1      30.360  41.955  52.713  0.00  0.00     0.210 HD
ENDBRANCH  32  33
BRANCH  32  35
HETATM   35  C   UNK N   1      27.794  43.589  52.146  0.00  0.00    -0.006 C 
HETATM   36  C   UNK N   1      26.532  43.839  52.521  0.00  0.00     0.009 C 
ENDBRANCH  32  35
ENDBRANCH  31  32
ENDBRANCH  30  31
ENDBRANCH   4  30
TORSDOF 12
ENDMDL
MODEL 2
REMARK VINA RESULT:      -5.6      2.072      6.418
REMARK  12 active torsions:
REMARK  status: ('A' for Active; 'I' for Inactive)
REMARK    1  A    between atoms: O_1  and  C_7 
REMARK    2  A    between atoms: O_2  and  C_8 
REMARK    3  A    between atoms: O_4  and  C_9 
REMARK    4  A    between atoms: O_5  and  C_10 
REMARK    5  A    between atoms: O_6  and  C_12 
REMARK    6  A    between atoms: C_7  and  C_16 
REMARK    7  A    between atoms: C_7  and  C_17 
REMARK    8  A    between atoms: C_8  and  C_18 
REMARK    9  A    between atoms: C_8  and  C_19 
REMARK   10  A    between atoms: C_11  and  C_16 
REMARK   11  A    between atoms: C_19  and  C_27 
REMARK   12  A    between atoms: C_20  and  C_27 
ROOT
HETATM    1  C   UNK N   1      29.086  39.714  57.846  0.00  0.00    -0.016 C 
HETATM    2  C   UNK N   1      29.459  38.252  57.317  0.00  0.00     0.006 C 
HETATM    3  C   UNK N   1      29.841  40.592  55.532  0.00  0.00    -0.048 C 
HETATM    4  C   UNK N   1      29.430  40.860  56.820  0.00  0.00    -0.066 C 
HETATM    5  C   UNK N   1      28.829  37.028  58.141  0.00  0.00    -0.043 C 
HETATM    6  C   UNK N   1      27.554  39.780  58.135  0.00  0.00     0.014 C 
HETATM    7  C   UNK N   1      29.089  38.188  55.827  0.00  0.00     0.011 C 
HETATM    8  C   UNK N   1      29.901  40.021  59.135  0.00  0.00     0.020 C 
HETATM    9  C   UNK N   1      29.933  39.168  55.036  0.00  0.00     0.037 C 
HETATM   10  C   UNK N   1      27.317  37.276  58.372  0.00  0.00     0.009 C 
HETATM   11  C   UNK N   1      27.046  38.637  59.027  0.00  0.00     0.002 C 
HETATM   12  C   UNK N   1      28.981  35.681  57.375  0.00  0.00     0.015 C 
HETATM   13  C   UNK N   1      29.542  36.754  59.497  0.00  0.00     0.015 C 
ENDROOT
BRANCH   3  14
HETATM   14  C   UNK N   1      30.217  41.692  54.512  0.00  0.00     0.150 C 
BRANCH  14  15
HETATM   15  O   UNK N   1      31.582  41.588  54.193  0.00  0.00    -0.391 OA
HETATM   16  H   UNK N   1      31.659  41.282  53.251  0.00  0.00     0.210 HD
ENDBRANCH  14  15
BRANCH  14  17
HETATM   17  C   UNK N   1      29.358  41.660  53.215  0.00  0.00     0.071 C 
BRANCH  17  18
HETATM   18  C   UNK N   1      27.829  41.738  53.490  0.00  0.00     0.155 C 
HETATM   19  O   UNK N   1      27.331  43.073  53.418  0.00  0.00    -0.381 OA
HETATM   20  C   UNK N   1      27.311  43.579  52.089  0.00  0.00     0.202 C 
HETATM   21  C   UNK N   1      26.428  42.725  51.162  0.00  0.00     0.173 C 
HETATM   22  C   UNK N   1      26.920  41.267  51.169  0.00  0.00     0.180 C 
HETATM   23  C   UNK N   1      26.970  40.780  52.626  0.00  0.00     0.178 C 
BRANCH  21  24
HETATM   24  O   UNK N   1      26.405  43.250  49.858  0.00  0.00    -0.391 OA
HETATM   25  H   UNK N   1      27.146  42.826  49.350  0.00  0.00     0.210 HD
ENDBRANCH  21  24
BRANCH  22  26
HETATM   26  O   UNK N   1      26.088  40.450  50.383  0.00  0.00    -0.390 OA
HETATM   27  H   UNK N   1      26.528  39.564  50.292  0.00  0.00     0.210 HD
ENDBRANCH  22  26
BRANCH  23  28
HETATM   28  O   UNK N   1      27.471  39.469  52.703  0.00  0.00    -0.390 OA
HETATM   29  H   UNK N   1      27.183  39.101  53.579  0.00  0.00     0.210 HD
ENDBRANCH  23  28
ENDBRANCH  17  18
ENDBRANCH  14  17
ENDBRANCH   3  14
BRANCH   4  30
HETATM   30  C   UNK N   1      29.280  42.317  57.292  0.00  0.00     0.038 C 
BRANCH  30  31
HETATM   31  C   UNK N   1      30.579  42.879  57.918  0.00  0.00     0.040 C 
BRANCH  31  32
HETATM   32  C   UNK N   1      31.368  43.829  56.981  0.00  0.00     0.140 C 
BRANCH  32  33
HETATM   33  O   UNK N   1      32.571  43.214  56.585  0.00  0.00    -0.392 OA
HETATM   34  H   UNK N   1      32.840  43.604  55.710  0.00  0.00     0.210 HD
ENDBRANCH  32  33
BRANCH  32  35
HETATM   35  C   UNK N   1      31.606  45.212  57.576  0.00  0.00    -0.006 C 
HETATM   36  C   UNK N   1      30.663  46.158  57.679  0.00  0.00     0.009 C 
ENDBRANCH  32  35
ENDBRANCH  31  32
ENDBRANCH  30  31
ENDBRANCH   4  30
TORSDOF 12
ENDMDL
MODEL 3
REMARK VINA RESULT:      -5.6      5.922     11.733
REMARK  12 active torsions:
REMARK  status: ('A' for Active; 'I' for Inactive)
REMARK    1  A    between atoms: O_1  and  C_7 
REMARK    2  A    between atoms: O_2  and  C_8 
REMARK    3  A    between atoms: O_4  and  C_9 
REMARK    4  A    between atoms: O_5  and  C_10 
REMARK    5  A    between atoms: O_6  and  C_12 
REMARK    6  A    between atoms: C_7  and  C_16 
REMARK    7  A    between atoms: C_7  and  C_17 
REMARK    8  A    between atoms: C_8  and  C_18 
REMARK    9  A    between atoms: C_8  and  C_19 
REMARK   10  A    between atoms: C_11  and  C_16 
REMARK   11  A    between atoms: C_19  and  C_27 
REMARK   12  A    between atoms: C_20  and  C_27 
ROOT
HETATM    1  C   UNK N   1      34.536  47.574  64.327  0.00  0.00    -0.016 C 
HETATM    2  C   UNK N   1      33.036  48.032  64.635  0.00  0.00     0.006 C 
HETATM    3  C   UNK N   1      33.538  45.308  63.572  0.00  0.00    -0.048 C 
HETATM    4  C   UNK N   1      34.649  46.073  63.856  0.00  0.00    -0.066 C 
HETATM    5  C   UNK N   1      32.803  49.614  64.775  0.00  0.00    -0.043 C 
HETATM    6  C   UNK N   1      35.125  48.471  63.194  0.00  0.00     0.014 C 
HETATM    7  C   UNK N   1      32.130  47.416  63.557  0.00  0.00     0.011 C 
HETATM    8  C   UNK N   1      35.390  47.692  65.621  0.00  0.00     0.020 C 
HETATM    9  C   UNK N   1      32.153  45.904  63.658  0.00  0.00     0.037 C 
HETATM   10  C   UNK N   1      33.486  50.351  63.595  0.00  0.00     0.009 C 
HETATM   11  C   UNK N   1      34.968  49.976  63.457  0.00  0.00     0.002 C 
HETATM   12  C   UNK N   1      31.290  49.977  64.754  0.00  0.00     0.015 C 
HETATM   13  C   UNK N   1      33.296  50.200  66.131  0.00  0.00     0.015 C 
ENDROOT
BRANCH   3  14
HETATM   14  C   UNK N   1      33.614  43.825  63.140  0.00  0.00     0.150 C 
BRANCH  14  15
HETATM   15  O   UNK N   1      32.488  43.138  63.626  0.00  0.00    -0.391 OA
HETATM   16  H   UNK N   1      32.714  42.172  63.684  0.00  0.00     0.210 HD
ENDBRANCH  14  15
BRANCH  14  17
HETATM   17  C   UNK N   1      33.741  43.629  61.602  0.00  0.00     0.071 C 
BRANCH  17  18
HETATM   18  C   UNK N   1      32.690  42.640  61.021  0.00  0.00     0.155 C 
HETATM   19  O   UNK N   1      31.354  43.120  61.164  0.00  0.00    -0.381 OA
HETATM   20  C   UNK N   1      31.073  44.221  60.308  0.00  0.00     0.202 C 
HETATM   21  C   UNK N   1      31.258  43.857  58.825  0.00  0.00     0.173 C 
HETATM   22  C   UNK N   1      32.690  43.349  58.585  0.00  0.00     0.180 C 
HETATM   23  C   UNK N   1      32.964  42.194  59.562  0.00  0.00     0.178 C 
BRANCH  21  24
HETATM   24  O   UNK N   1      30.958  44.950  57.993  0.00  0.00    -0.391 OA
HETATM   25  H   UNK N   1      31.640  45.652  58.162  0.00  0.00     0.210 HD
ENDBRANCH  21  24
BRANCH  22  26
HETATM   26  O   UNK N   1      32.865  42.944  57.249  0.00  0.00    -0.390 OA
HETATM   27  H   UNK N   1      33.526  43.556  56.829  0.00  0.00     0.210 HD
ENDBRANCH  22  26
BRANCH  23  28
HETATM   28  O   UNK N   1      34.283  41.725  59.433  0.00  0.00    -0.390 OA
HETATM   29  H   UNK N   1      34.775  42.393  58.888  0.00  0.00     0.210 HD
ENDBRANCH  23  28
ENDBRANCH  17  18
ENDBRANCH  14  17
ENDBRANCH   3  14
BRANCH   4  30
HETATM   30  C   UNK N   1      36.058  45.471  63.704  0.00  0.00     0.038 C 
BRANCH  30  31
HETATM   31  C   UNK N   1      36.638  45.661  62.281  0.00  0.00     0.040 C 
BRANCH  31  32
HETATM   32  C   UNK N   1      38.151  45.997  62.260  0.00  0.00     0.140 C 
BRANCH  32  33
HETATM   33  O   UNK N   1      38.851  45.085  63.072  0.00  0.00    -0.392 OA
HETATM   34  H   UNK N   1      39.248  45.591  63.830  0.00  0.00     0.210 HD
ENDBRANCH  32  33
BRANCH  32  35
HETATM   35  C   UNK N   1      38.458  47.442  62.634  0.00  0.00    -0.006 C 
HETATM   36  C   UNK N   1      38.836  47.838  63.856  0.00  0.00     0.009 C 
ENDBRANCH  32  35
ENDBRANCH  31  32
ENDBRANCH  30  31
ENDBRANCH   4  30
TORSDOF 12
ENDMDL
MODEL 4
REMARK VINA RESULT:      -5.0      3.078      7.055
REMARK  12 active torsions:
REMARK  status: ('A' for Active; 'I' for Inactive)
REMARK    1  A    between atoms: O_1  and  C_7 
REMARK    2  A    between atoms: O_2  and  C_8 
REMARK    3  A    between atoms: O_4  and  C_9 
REMARK    4  A    between atoms: O_5  and  C_10 
REMARK    5  A    between atoms: O_6  and  C_12 
REMARK    6  A    between atoms: C_7  and  C_16 
REMARK    7  A    between atoms: C_7  and  C_17 
REMARK    8  A    between atoms: C_8  and  C_18 
REMARK    9  A    between atoms: C_8  and  C_19 
REMARK   10  A    between atoms: C_11  and  C_16 
REMARK   11  A    between atoms: C_19  and  C_27 
REMARK   12  A    between atoms: C_20  and  C_27 
ROOT
HETATM    1  C   UNK N   1      30.530  45.104  58.404  0.00  0.00    -0.016 C 
HETATM    2  C   UNK N   1      30.528  45.804  59.841  0.00  0.00     0.006 C 
HETATM    3  C   UNK N   1      31.999  43.255  59.463  0.00  0.00    -0.048 C 
HETATM    4  C   UNK N   1      31.429  43.810  58.337  0.00  0.00    -0.066 C 
HETATM    5  C   UNK N   1      29.383  46.903  60.082  0.00  0.00    -0.043 C 
HETATM    6  C   UNK N   1      29.072  44.689  58.033  0.00  0.00     0.014 C 
HETATM    7  C   UNK N   1      30.484  44.692  60.901  0.00  0.00     0.011 C 
HETATM    8  C   UNK N   1      31.105  46.091  57.348  0.00  0.00     0.020 C 
HETATM    9  C   UNK N   1      31.742  43.851  60.827  0.00  0.00     0.037 C 
HETATM   10  C   UNK N   1      28.014  46.341  59.623  0.00  0.00     0.009 C 
HETATM   11  C   UNK N   1      28.053  45.828  58.177  0.00  0.00     0.002 C 
HETATM   12  C   UNK N   1      29.263  47.288  61.585  0.00  0.00     0.015 C 
HETATM   13  C   UNK N   1      29.667  48.265  59.382  0.00  0.00     0.015 C 
ENDROOT
BRANCH   3  14
HETATM   14  C   UNK N   1      32.911  42.007  59.427  0.00  0.00     0.150 C 
BRANCH  14  15
HETATM   15  O   UNK N   1      34.189  42.346  59.908  0.00  0.00    -0.391 OA
HETATM   16  H   UNK N   1      34.076  42.917  60.714  0.00  0.00     0.210 HD
ENDBRANCH  14  15
BRANCH  14  17
HETATM   17  C   UNK N   1      32.342  40.796  60.221  0.00  0.00     0.071 C 
BRANCH  17  18
HETATM   18  C   UNK N   1      30.794  40.674  60.128  0.00  0.00     0.155 C 
HETATM   19  O   UNK N   1      30.379  39.822  59.062  0.00  0.00    -0.381 OA
HETATM   20  C   UNK N   1      30.662  38.451  59.315  0.00  0.00     0.202 C 
HETATM   21  C   UNK N   1      29.961  37.945  60.588  0.00  0.00     0.173 C 
HETATM   22  C   UNK N   1      30.379  38.806  61.793  0.00  0.00     0.180 C 
HETATM   23  C   UNK N   1      30.099  40.279  61.456  0.00  0.00     0.178 C 
BRANCH  21  24
HETATM   24  O   UNK N   1      30.237  36.585  60.813  0.00  0.00    -0.391 OA
HETATM   25  H   UNK N   1      30.464  36.176  59.937  0.00  0.00     0.210 HD
ENDBRANCH  21  24
BRANCH  22  26
HETATM   26  O   UNK N   1      29.699  38.408  62.958  0.00  0.00    -0.390 OA
HETATM   27  H   UNK N   1      29.136  39.170  63.257  0.00  0.00     0.210 HD
ENDBRANCH  22  26
BRANCH  23  28
HETATM   28  O   UNK N   1      30.517  41.125  62.497  0.00  0.00    -0.390 OA
HETATM   29  H   UNK N   1      29.709  41.355  63.025  0.00  0.00     0.210 HD
ENDBRANCH  23  28
ENDBRANCH  17  18
ENDBRANCH  14  17
ENDBRANCH   3  14
BRANCH   4  30
HETATM   30  C   UNK N   1      31.648  43.157  56.961  0.00  0.00     0.038 C 
BRANCH  30  31
HETATM   31  C   UNK N   1      30.437  42.308  56.503  0.00  0.00     0.040 C 
BRANCH  31  32
HETATM   32  C   UNK N   1      30.660  41.573  55.156  0.00  0.00     0.140 C 
BRANCH  32  33
HETATM   33  O   UNK N   1      31.863  42.011  54.570  0.00  0.00    -0.392 OA
HETATM   34  H   UNK N   1      32.197  41.284  53.978  0.00  0.00     0.210 HD
ENDBRANCH  32  33
BRANCH  32  35
HETATM   35  C   UNK N   1      29.483  41.694  54.196  0.00  0.00    -0.006 C 
HETATM   36  C   UNK N   1      29.588  42.107  52.926  0.00  0.00     0.009 C 
ENDBRANCH  32  35
ENDBRANCH  31  32
ENDBRANCH  30  31
ENDBRANCH   4  30
TORSDOF 12
ENDMDL
MODEL 5
REMARK VINA RESULT:      -4.9      6.539     10.672
REMARK  12 active torsions:
REMARK  status: ('A' for Active; 'I' for Inactive)
REMARK    1  A    between atoms: O_1  and  C_7 
REMARK    2  A    between atoms: O_2  and  C_8 
REMARK    3  A    between atoms: O_4  and  C_9 
REMARK    4  A    between atoms: O_5  and  C_10 
REMARK    5  A    between atoms: O_6  and  C_12 
REMARK    6  A    between atoms: C_7  and  C_16 
REMARK    7  A    between atoms: C_7  and  C_17 
REMARK    8  A    between atoms: C_8  and  C_18 
REMARK    9  A    between atoms: C_8  and  C_19 
REMARK   10  A    between atoms: C_11  and  C_16 
REMARK   11  A    between atoms: C_19  and  C_27 
REMARK   12  A    between atoms: C_20  and  C_27 
ROOT
HETATM    1  C   UNK N   1      35.167  45.121  63.547  0.00  0.00    -0.016 C 
HETATM    2  C   UNK N   1      35.650  46.540  64.103  0.00  0.00     0.006 C 
HETATM    3  C   UNK N   1      32.810  46.168  63.326  0.00  0.00    -0.048 C 
HETATM    4  C   UNK N   1      33.617  45.052  63.265  0.00  0.00    -0.066 C 
HETATM    5  C   UNK N   1      37.234  46.797  64.081  0.00  0.00    -0.043 C 
HETATM    6  C   UNK N   1      35.907  44.815  62.207  0.00  0.00     0.014 C 
HETATM    7  C   UNK N   1      34.884  47.627  63.333  0.00  0.00     0.011 C 
HETATM    8  C   UNK N   1      35.469  44.021  64.604  0.00  0.00     0.020 C 
HETATM    9  C   UNK N   1      33.401  47.527  63.624  0.00  0.00     0.037 C 
HETATM   10  C   UNK N   1      37.808  46.404  62.696  0.00  0.00     0.009 C 
HETATM   11  C   UNK N   1      37.432  44.971  62.298  0.00  0.00     0.002 C 
HETATM   12  C   UNK N   1      37.577  48.294  64.334  0.00  0.00     0.015 C 
HETATM   13  C   UNK N   1      38.004  46.054  65.212  0.00  0.00     0.015 C 
ENDROOT
BRANCH   3  14
HETATM   14  C   UNK N   1      31.283  46.129  63.087  0.00  0.00     0.150 C 
BRANCH  14  15
HETATM   15  O   UNK N   1      30.640  46.948  64.032  0.00  0.00    -0.391 OA
HETATM   16  H   UNK N   1      30.261  46.364  64.742  0.00  0.00     0.210 HD
ENDBRANCH  14  15
BRANCH  14  17
HETATM   17  C   UNK N   1      30.866  46.541  61.646  0.00  0.00     0.071 C 
BRANCH  17  18
HETATM   18  C   UNK N   1      29.363  46.923  61.528  0.00  0.00     0.155 C 
HETATM   19  O   UNK N   1      29.060  48.151  62.187  0.00  0.00    -0.381 OA
HETATM   20  C   UNK N   1      29.597  49.282  61.512  0.00  0.00     0.202 C 
HETATM   21  C   UNK N   1      29.056  49.403  60.076  0.00  0.00     0.173 C 
HETATM   22  C   UNK N   1      29.366  48.118  59.290  0.00  0.00     0.180 C 
HETATM   23  C   UNK N   1      28.811  46.922  60.080  0.00  0.00     0.178 C 
BRANCH  21  24
HETATM   24  O   UNK N   1      29.582  50.536  59.431  0.00  0.00    -0.391 OA
HETATM   25  H   UNK N   1      28.904  51.260  59.494  0.00  0.00     0.210 HD
ENDBRANCH  21  24
BRANCH  22  26
HETATM   26  O   UNK N   1      28.822  48.175  57.994  0.00  0.00    -0.390 OA
HETATM   27  H   UNK N   1      29.175  48.991  57.551  0.00  0.00     0.210 HD
ENDBRANCH  22  26
BRANCH  23  28
HETATM   28  O   UNK N   1      29.117  45.708  59.440  0.00  0.00    -0.390 OA
HETATM   29  H   UNK N   1      30.102  45.598  59.484  0.00  0.00     0.210 HD
ENDBRANCH  23  28
ENDBRANCH  17  18
ENDBRANCH  14  17
ENDBRANCH   3  14
BRANCH   4  30
HETATM   30  C   UNK N   1      33.013  43.685  62.898  0.00  0.00     0.038 C 
BRANCH  30  31
HETATM   31  C   UNK N   1      33.021  43.418  61.373  0.00  0.00     0.040 C 
BRANCH  31  32
HETATM   32  C   UNK N   1      31.680  42.865  60.826  0.00  0.00     0.140 C 
BRANCH  32  33
HETATM   33  O   UNK N   1      31.238  43.666  59.757  0.00  0.00    -0.392 OA
HETATM   34  H   UNK N   1      30.552  44.295  60.109  0.00  0.00     0.210 HD
ENDBRANCH  32  33
BRANCH  32  35
HETATM   35  C   UNK N   1      30.608  42.701  61.896  0.00  0.00    -0.006 C 
HETATM   36  C   UNK N   1      29.316  43.010  61.719  0.00  0.00     0.009 C 
ENDBRANCH  32  35
ENDBRANCH  31  32
ENDBRANCH  30  31
ENDBRANCH   4  30
TORSDOF 12
ENDMDL
MODEL 6
REMARK VINA RESULT:      -4.9     18.761     23.624
REMARK  12 active torsions:
REMARK  status: ('A' for Active; 'I' for Inactive)
REMARK    1  A    between atoms: O_1  and  C_7 
REMARK    2  A    between atoms: O_2  and  C_8 
REMARK    3  A    between atoms: O_4  and  C_9 
REMARK    4  A    between atoms: O_5  and  C_10 
REMARK    5  A    between atoms: O_6  and  C_12 
REMARK    6  A    between atoms: C_7  and  C_16 
REMARK    7  A    between atoms: C_7  and  C_17 
REMARK    8  A    between atoms: C_8  and  C_18 
REMARK    9  A    between atoms: C_8  and  C_19 
REMARK   10  A    between atoms: C_11  and  C_16 
REMARK   11  A    between atoms: C_19  and  C_27 
REMARK   12  A    between atoms: C_20  and  C_27 
ROOT
HETATM    1  C   UNK N   1      52.793  50.656  57.979  0.00  0.00    -0.016 C 
HETATM    2  C   UNK N   1      52.592  52.146  58.522  0.00  0.00     0.006 C 
HETATM    3  C   UNK N   1      50.855  49.972  59.552  0.00  0.00    -0.048 C 
HETATM    4  C   UNK N   1      51.861  49.599  58.686  0.00  0.00    -0.066 C 
HETATM    5  C   UNK N   1      53.237  53.311  57.626  0.00  0.00    -0.043 C 
HETATM    6  C   UNK N   1      52.476  50.620  56.451  0.00  0.00     0.014 C 
HETATM    7  C   UNK N   1      51.086  52.363  58.741  0.00  0.00     0.011 C 
HETATM    8  C   UNK N   1      54.255  50.200  58.247  0.00  0.00     0.020 C 
HETATM    9  C   UNK N   1      50.577  51.432  59.823  0.00  0.00     0.037 C 
HETATM   10  C   UNK N   1      52.858  53.097  56.139  0.00  0.00     0.009 C 
HETATM   11  C   UNK N   1      53.223  51.691  55.643  0.00  0.00     0.002 C 
HETATM   12  C   UNK N   1      52.725  54.716  58.053  0.00  0.00     0.015 C 
HETATM   13  C   UNK N   1      54.783  53.429  57.774  0.00  0.00     0.015 C 
ENDROOT
BRANCH   3  14
HETATM   14  C   UNK N   1      49.946  48.960  60.287  0.00  0.00     0.150 C 
BRANCH  14  15
HETATM   15  O   UNK N   1      50.298  48.914  61.647  0.00  0.00    -0.391 OA
HETATM   16  H   UNK N   1      51.146  48.403  61.732  0.00  0.00     0.210 HD
ENDBRANCH  14  15
BRANCH  14  17
HETATM   17  C   UNK N   1      48.427  49.260  60.134  0.00  0.00     0.071 C 
BRANCH  17  18
HETATM   18  C   UNK N   1      47.710  49.501  61.494  0.00  0.00     0.155 C 
HETATM   19  O   UNK N   1      47.862  50.840  61.960  0.00  0.00    -0.381 OA
HETATM   20  C   UNK N   1      47.121  51.777  61.186  0.00  0.00     0.202 C 
HETATM   21  C   UNK N   1      45.614  51.468  61.201  0.00  0.00     0.173 C 
HETATM   22  C   UNK N   1      45.366  50.040  60.687  0.00  0.00     0.180 C 
HETATM   23  C   UNK N   1      46.221  49.071  61.520  0.00  0.00     0.178 C 
BRANCH  21  24
HETATM   24  O   UNK N   1      44.895  52.414  60.448  0.00  0.00    -0.391 OA
HETATM   25  H   UNK N   1      44.224  51.920  59.907  0.00  0.00     0.210 HD
ENDBRANCH  21  24
BRANCH  22  26
HETATM   26  O   UNK N   1      44.000  49.708  60.756  0.00  0.00    -0.390 OA
HETATM   27  H   UNK N   1      43.552  50.098  59.960  0.00  0.00     0.210 HD
ENDBRANCH  22  26
BRANCH  23  28
HETATM   28  O   UNK N   1      46.084  47.751  61.058  0.00  0.00    -0.390 OA
HETATM   29  H   UNK N   1      46.994  47.428  60.829  0.00  0.00     0.210 HD
ENDBRANCH  23  28
ENDBRANCH  17  18
ENDBRANCH  14  17
ENDBRANCH   3  14
BRANCH   4  30
HETATM   30  C   UNK N   1      52.093  48.111  58.371  0.00  0.00     0.038 C 
BRANCH  30  31
HETATM   31  C   UNK N   1      51.192  47.596  57.222  0.00  0.00     0.040 C 
BRANCH  31  32
HETATM   32  C   UNK N   1      51.970  47.218  55.935  0.00  0.00     0.140 C 
BRANCH  32  33
HETATM   33  O   UNK N   1      51.266  46.222  55.231  0.00  0.00    -0.392 OA
HETATM   34  H   UNK N   1      51.828  45.401  55.221  0.00  0.00     0.210 HD
ENDBRANCH  32  33
BRANCH  32  35
HETATM   35  C   UNK N   1      53.416  46.816  56.195  0.00  0.00    -0.006 C 
HETATM   36  C   UNK N   1      54.473  47.384  55.599  0.00  0.00     0.009 C 
ENDBRANCH  32  35
ENDBRANCH  31  32
ENDBRANCH  30  31
ENDBRANCH   4  30
TORSDOF 12
ENDMDL
MODEL 7
REMARK VINA RESULT:      -4.7     19.718     24.292
REMARK  12 active torsions:
REMARK  status: ('A' for Active; 'I' for Inactive)
REMARK    1  A    between atoms: O_1  and  C_7 
REMARK    2  A    between atoms: O_2  and  C_8 
REMARK    3  A    between atoms: O_4  and  C_9 
REMARK    4  A    between atoms: O_5  and  C_10 
REMARK    5  A    between atoms: O_6  and  C_12 
REMARK    6  A    between atoms: C_7  and  C_16 
REMARK    7  A    between atoms: C_7  and  C_17 
REMARK    8  A    between atoms: C_8  and  C_18 
REMARK    9  A    between atoms: C_8  and  C_19 
REMARK   10  A    between atoms: C_11  and  C_16 
REMARK   11  A    between atoms: C_19  and  C_27 
REMARK   12  A    between atoms: C_20  and  C_27 
ROOT
HETATM    1  C   UNK N   1      51.410  54.522  56.036  0.00  0.00    -0.016 C 
HETATM    2  C   UNK N   1      50.307  55.678  56.072  0.00  0.00     0.006 C 
HETATM    3  C   UNK N   1      50.410  53.693  58.274  0.00  0.00    -0.048 C 
HETATM    4  C   UNK N   1      51.398  53.603  57.318  0.00  0.00    -0.066 C 
HETATM    5  C   UNK N   1      50.027  56.420  54.676  0.00  0.00    -0.043 C 
HETATM    6  C   UNK N   1      51.158  53.609  54.796  0.00  0.00     0.014 C 
HETATM    7  C   UNK N   1      49.023  55.078  56.666  0.00  0.00     0.011 C 
HETATM    8  C   UNK N   1      52.827  55.161  55.969  0.00  0.00     0.020 C 
HETATM    9  C   UNK N   1      49.260  54.658  58.103  0.00  0.00     0.037 C 
HETATM   10  C   UNK N   1      49.841  55.370  53.553  0.00  0.00     0.009 C 
HETATM   11  C   UNK N   1      51.017  54.386  53.479  0.00  0.00     0.002 C 
HETATM   12  C   UNK N   1      48.737  57.289  54.737  0.00  0.00     0.015 C 
HETATM   13  C   UNK N   1      51.132  57.442  54.280  0.00  0.00     0.015 C 
ENDROOT
BRANCH   3  14
HETATM   14  C   UNK N   1      50.387  52.830  59.557  0.00  0.00     0.150 C 
BRANCH  14  15
HETATM   15  O   UNK N   1      50.155  53.654  60.673  0.00  0.00    -0.391 OA
HETATM   16  H   UNK N   1      49.319  53.350  61.116  0.00  0.00     0.210 HD
ENDBRANCH  14  15
BRANCH  14  17
HETATM   17  C   UNK N   1      49.343  51.677  59.515  0.00  0.00     0.071 C 
BRANCH  17  18
HETATM   18  C   UNK N   1      49.003  51.105  60.921  0.00  0.00     0.155 C 
HETATM   19  O   UNK N   1      48.067  51.918  61.627  0.00  0.00    -0.381 OA
HETATM   20  C   UNK N   1      46.758  51.853  61.074  0.00  0.00     0.202 C 
HETATM   21  C   UNK N   1      46.200  50.419  61.087  0.00  0.00     0.173 C 
HETATM   22  C   UNK N   1      47.149  49.481  60.321  0.00  0.00     0.180 C 
HETATM   23  C   UNK N   1      48.557  49.621  60.922  0.00  0.00     0.178 C 
BRANCH  21  24
HETATM   24  O   UNK N   1      44.900  50.376  60.555  0.00  0.00    -0.391 OA
HETATM   25  H   UNK N   1      44.287  50.087  61.281  0.00  0.00     0.210 HD
ENDBRANCH  21  24
BRANCH  22  26
HETATM   26  O   UNK N   1      46.697  48.150  60.377  0.00  0.00    -0.390 OA
HETATM   27  H   UNK N   1      47.455  47.560  60.125  0.00  0.00     0.210 HD
ENDBRANCH  22  26
BRANCH  23  28
HETATM   28  O   UNK N   1      49.485  48.831  60.223  0.00  0.00    -0.390 OA
HETATM   29  H   UNK N   1      50.130  49.452  59.794  0.00  0.00     0.210 HD
ENDBRANCH  23  28
ENDBRANCH  17  18
ENDBRANCH  14  17
ENDBRANCH   3  14
BRANCH   4  30
HETATM   30  C   UNK N   1      52.530  52.572  57.474  0.00  0.00     0.038 C 
BRANCH  30  31
HETATM   31  C   UNK N   1      52.194  51.212  56.815  0.00  0.00     0.040 C 
BRANCH  31  32
HETATM   32  C   UNK N   1      52.440  49.990  57.737  0.00  0.00     0.140 C 
BRANCH  32  33
HETATM   33  O   UNK N   1      51.225  49.316  57.965  0.00  0.00    -0.392 OA
HETATM   34  H   UNK N   1      51.436  48.439  58.384  0.00  0.00     0.210 HD
ENDBRANCH  32  33
BRANCH  32  35
HETATM   35  C   UNK N   1      53.147  50.344  59.040  0.00  0.00    -0.006 C 
HETATM   36  C   UNK N   1      52.730  49.953  60.251  0.00  0.00     0.009 C 
ENDBRANCH  32  35
ENDBRANCH  31  32
ENDBRANCH  30  31
ENDBRANCH   4  30
TORSDOF 12
ENDMDL
MODEL 8
REMARK VINA RESULT:      -4.7      1.577      1.991
REMARK  12 active torsions:
REMARK  status: ('A' for Active; 'I' for Inactive)
REMARK    1  A    between atoms: O_1  and  C_7 
REMARK    2  A    between atoms: O_2  and  C_8 
REMARK    3  A    between atoms: O_4  and  C_9 
REMARK    4  A    between atoms: O_5  and  C_10 
REMARK    5  A    between atoms: O_6  and  C_12 
REMARK    6  A    between atoms: C_7  and  C_16 
REMARK    7  A    between atoms: C_7  and  C_17 
REMARK    8  A    between atoms: C_8  and  C_18 
REMARK    9  A    between atoms: C_8  and  C_19 
REMARK   10  A    between atoms: C_11  and  C_16 
REMARK   11  A    between atoms: C_19  and  C_27 
REMARK   12  A    between atoms: C_20  and  C_27 
ROOT
HETATM    1  C   UNK N   1      29.178  38.415  55.535  0.00  0.00    -0.016 C 
HETATM    2  C   UNK N   1      28.807  37.281  56.599  0.00  0.00     0.006 C 
HETATM    3  C   UNK N   1      29.203  40.072  57.523  0.00  0.00    -0.048 C 
HETATM    4  C   UNK N   1      29.265  39.859  56.162  0.00  0.00    -0.066 C 
HETATM    5  C   UNK N   1      29.042  35.768  56.117  0.00  0.00    -0.043 C 
HETATM    6  C   UNK N   1      30.566  38.090  54.900  0.00  0.00     0.014 C 
HETATM    7  C   UNK N   1      29.569  37.591  57.896  0.00  0.00     0.011 C 
HETATM    8  C   UNK N   1      28.075  38.479  54.440  0.00  0.00     0.020 C 
HETATM    9  C   UNK N   1      29.094  38.907  58.479  0.00  0.00     0.037 C 
HETATM   10  C   UNK N   1      30.447  35.634  55.478  0.00  0.00     0.009 C 
HETATM   11  C   UNK N   1      30.673  36.658  54.357  0.00  0.00     0.002 C 
HETATM   12  C   UNK N   1      28.960  34.767  57.306  0.00  0.00     0.015 C 
HETATM   13  C   UNK N   1      27.952  35.249  55.134  0.00  0.00     0.015 C 
ENDROOT
BRANCH   3  14
HETATM   14  C   UNK N   1      29.252  41.477  58.168  0.00  0.00     0.150 C 
BRANCH  14  15
HETATM   15  O   UNK N   1      28.364  41.524  59.257  0.00  0.00    -0.391 OA
HETATM   16  H   UNK N   1      28.759  41.000  60.003  0.00  0.00     0.210 HD
ENDBRANCH  14  15
BRANCH  14  17
HETATM   17  C   UNK N   1      30.678  41.907  58.618  0.00  0.00     0.071 C 
BRANCH  17  18
HETATM   18  C   UNK N   1      31.024  41.462  60.067  0.00  0.00     0.155 C 
HETATM   19  O   UNK N   1      32.201  40.658  60.123  0.00  0.00    -0.381 OA
HETATM   20  C   UNK N   1      33.386  41.402  59.864  0.00  0.00     0.202 C 
HETATM   21  C   UNK N   1      33.578  42.543  60.878  0.00  0.00     0.173 C 
HETATM   22  C   UNK N   1      32.353  43.472  60.861  0.00  0.00     0.180 C 
HETATM   23  C   UNK N   1      31.095  42.619  61.096  0.00  0.00     0.178 C 
BRANCH  21  24
HETATM   24  O   UNK N   1      34.762  43.255  60.620  0.00  0.00    -0.391 OA
HETATM   25  H   UNK N   1      35.204  43.431  61.492  0.00  0.00     0.210 HD
ENDBRANCH  21  24
BRANCH  22  26
HETATM   26  O   UNK N   1      32.473  44.486  61.829  0.00  0.00    -0.390 OA
HETATM   27  H   UNK N   1      31.674  45.072  61.757  0.00  0.00     0.210 HD
ENDBRANCH  22  26
BRANCH  23  28
HETATM   28  O   UNK N   1      29.932  43.404  61.031  0.00  0.00    -0.390 OA
HETATM   29  H   UNK N   1      29.445  43.271  61.885  0.00  0.00     0.210 HD
ENDBRANCH  23  28
ENDBRANCH  17  18
ENDBRANCH  14  17
ENDBRANCH   3  14
BRANCH   4  30
HETATM   30  C   UNK N   1      29.438  41.051  55.204  0.00  0.00     0.038 C 
BRANCH  30  31
HETATM   31  C   UNK N   1      28.150  41.898  55.065  0.00  0.00     0.040 C 
BRANCH  31  32
HETATM   32  C   UNK N   1      28.046  42.665  53.721  0.00  0.00     0.140 C 
BRANCH  32  33
HETATM   33  O   UNK N   1      26.930  43.523  53.751  0.00  0.00    -0.392 OA
HETATM   34  H   UNK N   1      26.696  43.688  54.703  0.00  0.00     0.210 HD
ENDBRANCH  32  33
BRANCH  32  35
HETATM   35  C   UNK N   1      28.031  41.754  52.500  0.00  0.00    -0.006 C 
HETATM   36  C   UNK N   1      28.845  41.896  51.446  0.00  0.00     0.009 C 
ENDBRANCH  32  35
ENDBRANCH  31  32
ENDBRANCH  30  31
ENDBRANCH   4  30
TORSDOF 12
ENDMDL
MODEL 9
REMARK VINA RESULT:      -4.7      5.985      8.294
REMARK  12 active torsions:
REMARK  status: ('A' for Active; 'I' for Inactive)
REMARK    1  A    between atoms: O_1  and  C_7 
REMARK    2  A    between atoms: O_2  and  C_8 
REMARK    3  A    between atoms: O_4  and  C_9 
REMARK    4  A    between atoms: O_5  and  C_10 
REMARK    5  A    between atoms: O_6  and  C_12 
REMARK    6  A    between atoms: C_7  and  C_16 
REMARK    7  A    between atoms: C_7  and  C_17 
REMARK    8  A    between atoms: C_8  and  C_18 
REMARK    9  A    between atoms: C_8  and  C_19 
REMARK   10  A    between atoms: C_11  and  C_16 
REMARK   11  A    between atoms: C_19  and  C_27 
REMARK   12  A    between atoms: C_20  and  C_27 
ROOT
HETATM    1  C   UNK N   1      29.894  45.279  58.906  0.00  0.00    -0.016 C 
HETATM    2  C   UNK N   1      30.471  44.192  59.926  0.00  0.00     0.006 C 
HETATM    3  C   UNK N   1      29.468  46.783  60.969  0.00  0.00    -0.048 C 
HETATM    4  C   UNK N   1      29.316  46.563  59.617  0.00  0.00    -0.066 C 
HETATM    5  C   UNK N   1      31.378  43.038  59.278  0.00  0.00    -0.043 C 
HETATM    6  C   UNK N   1      31.036  45.742  57.948  0.00  0.00     0.014 C 
HETATM    7  C   UNK N   1      31.215  44.946  61.039  0.00  0.00     0.011 C 
HETATM    8  C   UNK N   1      28.718  44.659  58.098  0.00  0.00     0.020 C 
HETATM    9  C   UNK N   1      30.247  45.809  61.823  0.00  0.00     0.037 C 
HETATM   10  C   UNK N   1      32.428  43.669  58.328  0.00  0.00     0.009 C 
HETATM   11  C   UNK N   1      31.783  44.581  57.276  0.00  0.00     0.002 C 
HETATM   12  C   UNK N   1      32.143  42.230  60.366  0.00  0.00     0.015 C 
HETATM   13  C   UNK N   1      30.560  41.947  58.527  0.00  0.00     0.015 C 
ENDROOT
BRANCH   3  14
HETATM   14  C   UNK N   1      28.886  48.014  61.702  0.00  0.00     0.150 C 
BRANCH  14  15
HETATM   15  O   UNK N   1      28.228  47.594  62.872  0.00  0.00    -0.391 OA
HETATM   16  H   UNK N   1      28.639  48.064  63.645  0.00  0.00     0.210 HD
ENDBRANCH  14  15
BRANCH  14  17
HETATM   17  C   UNK N   1      29.948  49.098  62.042  0.00  0.00     0.071 C 
BRANCH  17  18
HETATM   18  C   UNK N   1      30.062  49.389  63.566  0.00  0.00     0.155 C 
HETATM   19  O   UNK N   1      30.681  48.320  64.279  0.00  0.00    -0.381 OA
HETATM   20  C   UNK N   1      32.072  48.211  64.003  0.00  0.00     0.202 C 
HETATM   21  C   UNK N   1      32.834  49.495  64.375  0.00  0.00     0.173 C 
HETATM   22  C   UNK N   1      32.235  50.696  63.623  0.00  0.00     0.180 C 
HETATM   23  C   UNK N   1      30.726  50.745  63.914  0.00  0.00     0.178 C 
BRANCH  21  24
HETATM   24  O   UNK N   1      34.209  49.363  64.114  0.00  0.00    -0.391 OA
HETATM   25  H   UNK N   1      34.518  48.524  64.546  0.00  0.00     0.210 HD
ENDBRANCH  21  24
BRANCH  22  26
HETATM   26  O   UNK N   1      32.870  51.894  63.999  0.00  0.00    -0.390 OA
HETATM   27  H   UNK N   1      32.319  52.649  63.661  0.00  0.00     0.210 HD
ENDBRANCH  22  26
BRANCH  23  28
HETATM   28  O   UNK N   1      30.109  51.789  63.204  0.00  0.00    -0.390 OA
HETATM   29  H   UNK N   1      29.223  51.454  62.908  0.00  0.00     0.210 HD
ENDBRANCH  23  28
ENDBRANCH  17  18
ENDBRANCH  14  17
ENDBRANCH   3  14
BRANCH   4  30
HETATM   30  C   UNK N   1      28.574  47.594  58.748  0.00  0.00     0.038 C 
BRANCH  30  31
HETATM   31  C   UNK N   1      29.499  48.730  58.249  0.00  0.00     0.040 C 
BRANCH  31  32
HETATM   32  C   UNK N   1      28.898  49.565  57.089  0.00  0.00     0.140 C 
BRANCH  32  33
HETATM   33  O   UNK N   1      28.388  48.704  56.099  0.00  0.00    -0.392 OA
HETATM   34  H   UNK N   1      28.287  49.229  55.260  0.00  0.00     0.210 HD
ENDBRANCH  32  33
BRANCH  32  35
HETATM   35  C   UNK N   1      29.868  50.587  56.509  0.00  0.00    -0.006 C 
HETATM   36  C   UNK N   1      30.258  50.611  55.228  0.00  0.00     0.009 C 
ENDBRANCH  32  35
ENDBRANCH  31  32
ENDBRANCH  30  31
ENDBRANCH   4  30
TORSDOF 12
ENDMDL
