MODEL 1
REMARK VINA RESULT:      -5.8      0.000      0.000
REMARK  12 active torsions:
REMARK  status: ('A' for Active; 'I' for Inactive)
REMARK    1  A    between atoms: O_1  and  C_7 
REMARK    2  A    between atoms: O_2  and  C_8 
REMARK    3  A    between atoms: O_4  and  C_9 
REMARK    4  A    between atoms: O_5  and  C_10 
REMARK    5  A    between atoms: O_6  and  C_12 
REMARK    6  A    between atoms: C_7  and  C_16 
REMARK    7  A    between atoms: C_7  and  C_17 
REMARK    8  A    between atoms: C_8  and  C_18 
REMARK    9  A    between atoms: C_8  and  C_19 
REMARK   10  A    between atoms: C_11  and  C_16 
REMARK   11  A    between atoms: C_19  and  C_27 
REMARK   12  A    between atoms: C_20  and  C_27 
ROOT
HETATM    1  C   UNK N   1      30.102  42.660  56.720  0.00  0.00    -0.016 C 
HETATM    2  C   UNK N   1      28.710  43.026  56.053  0.00  0.00     0.006 C 
HETATM    3  C   UNK N   1      29.671  44.718  58.189  0.00  0.00    -0.048 C 
HETATM    4  C   UNK N   1      30.588  43.870  57.590  0.00  0.00    -0.066 C 
HETATM    5  C   UNK N   1      28.148  42.029  54.952  0.00  0.00    -0.043 C 
HETATM    6  C   UNK N   1      31.090  42.318  55.562  0.00  0.00     0.014 C 
HETATM    7  C   UNK N   1      27.709  43.332  57.171  0.00  0.00     0.011 C 
HETATM    8  C   UNK N   1      30.063  41.447  57.697  0.00  0.00     0.020 C 
HETATM    9  C   UNK N   1      28.164  44.550  57.962  0.00  0.00     0.037 C 
HETATM   10  C   UNK N   1      29.277  41.735  53.931  0.00  0.00     0.009 C 
HETATM   11  C   UNK N   1      30.562  41.245  54.600  0.00  0.00     0.002 C 
HETATM   12  C   UNK N   1      27.002  42.719  54.165  0.00  0.00     0.015 C 
HETATM   13  C   UNK N   1      27.553  40.702  55.496  0.00  0.00     0.015 C 
ENDROOT
BRANCH   3  14
HETATM   14  C   UNK N   1      30.074  45.919  59.071  0.00  0.00     0.150 C 
BRANCH  14  15
HETATM   15  O   UNK N   1      29.375  45.862  60.291  0.00  0.00    -0.391 OA
HETATM   16  H   UNK N   1      28.413  45.709  60.100  0.00  0.00     0.210 HD
ENDBRANCH  14  15
BRANCH  14  17
HETATM   17  C   UNK N   1      29.844  47.279  58.350  0.00  0.00     0.071 C 
BRANCH  17  18
HETATM   18  C   UNK N   1      28.478  47.930  58.711  0.00  0.00     0.155 C 
HETATM   19  O   UNK N   1      28.546  48.726  59.894  0.00  0.00    -0.381 OA
HETATM   20  C   UNK N   1      29.275  49.932  59.699  0.00  0.00     0.202 C 
HETATM   21  C   UNK N   1      28.640  50.815  58.610  0.00  0.00     0.173 C 
HETATM   22  C   UNK N   1      28.558  50.033  57.288  0.00  0.00     0.180 C 
HETATM   23  C   UNK N   1      27.810  48.715  57.550  0.00  0.00     0.178 C 
BRANCH  21  24
HETATM   24  O   UNK N   1      29.353  52.015  58.452  0.00  0.00    -0.391 OA
HETATM   25  H   UNK N   1      28.757  52.659  57.985  0.00  0.00     0.210 HD
ENDBRANCH  21  24
BRANCH  22  26
HETATM   26  O   UNK N   1      27.924  50.794  56.290  0.00  0.00    -0.390 OA
HETATM   27  H   UNK N   1      26.991  50.965  56.585  0.00  0.00     0.210 HD
ENDBRANCH  22  26
BRANCH  23  28
HETATM   28  O   UNK N   1      27.760  47.924  56.389  0.00  0.00    -0.390 OA
HETATM   29  H   UNK N   1      28.354  47.144  56.544  0.00  0.00     0.210 HD
ENDBRANCH  23  28
ENDBRANCH  17  18
ENDBRANCH  14  17
ENDBRANCH   3  14
BRANCH   4  30
HETATM   30  C   UNK N   1      32.104  44.115  57.765  0.00  0.00     0.038 C 
BRANCH  30  31
HETATM   31  C   UNK N   1      32.670  43.523  59.071  0.00  0.00     0.040 C 
BRANCH  31  32
HETATM   32  C   UNK N   1      33.865  42.561  58.860  0.00  0.00     0.140 C 
BRANCH  32  33
HETATM   33  O   UNK N   1      35.074  43.275  58.981  0.00  0.00    -0.392 OA
HETATM   34  H   UNK N   1      34.985  43.900  59.750  0.00  0.00     0.210 HD
ENDBRANCH  32  33
BRANCH  32  35
HETATM   35  C   UNK N   1      33.831  41.347  59.783  0.00  0.00    -0.006 C 
HETATM   36  C   UNK N   1      32.713  40.860  60.338  0.00  0.00     0.009 C 
ENDBRANCH  32  35
ENDBRANCH  31  32
ENDBRANCH  30  31
ENDBRANCH   4  30
TORSDOF 12
ENDMDL
MODEL 2
REMARK VINA RESULT:      -5.5      4.367      7.338
REMARK  12 active torsions:
REMARK  status: ('A' for Active; 'I' for Inactive)
REMARK    1  A    between atoms: O_1  and  C_7 
REMARK    2  A    between atoms: O_2  and  C_8 
REMARK    3  A    between atoms: O_4  and  C_9 
REMARK    4  A    between atoms: O_5  and  C_10 
REMARK    5  A    between atoms: O_6  and  C_12 
REMARK    6  A    between atoms: C_7  and  C_16 
REMARK    7  A    between atoms: C_7  and  C_17 
REMARK    8  A    between atoms: C_8  and  C_18 
REMARK    9  A    between atoms: C_8  and  C_19 
REMARK   10  A    between atoms: C_11  and  C_16 
REMARK   11  A    between atoms: C_19  and  C_27 
REMARK   12  A    between atoms: C_20  and  C_27 
ROOT
HETATM    1  C   UNK N   1      29.690  42.335  58.627  0.00  0.00    -0.016 C 
HETATM    2  C   UNK N   1      30.189  43.836  58.501  0.00  0.00     0.006 C 
HETATM    3  C   UNK N   1      30.491  42.113  56.201  0.00  0.00    -0.048 C 
HETATM    4  C   UNK N   1      29.626  41.693  57.199  0.00  0.00    -0.066 C 
HETATM    5  C   UNK N   1      30.110  44.738  59.805  0.00  0.00    -0.043 C 
HETATM    6  C   UNK N   1      28.298  42.371  59.332  0.00  0.00     0.014 C 
HETATM    7  C   UNK N   1      31.572  43.826  57.844  0.00  0.00     0.011 C 
HETATM    8  C   UNK N   1      30.625  41.399  59.451  0.00  0.00     0.020 C 
HETATM    9  C   UNK N   1      31.478  43.262  56.433  0.00  0.00     0.037 C 
HETATM   10  C   UNK N   1      28.693  44.596  60.419  0.00  0.00     0.009 C 
HETATM   11  C   UNK N   1      28.302  43.138  60.661  0.00  0.00     0.002 C 
HETATM   12  C   UNK N   1      30.279  46.231  59.412  0.00  0.00     0.015 C 
HETATM   13  C   UNK N   1      31.195  44.455  60.879  0.00  0.00     0.015 C 
ENDROOT
BRANCH   3  14
HETATM   14  C   UNK N   1      30.497  41.519  54.776  0.00  0.00     0.150 C 
BRANCH  14  15
HETATM   15  O   UNK N   1      31.788  41.627  54.227  0.00  0.00    -0.391 OA
HETATM   16  H   UNK N   1      32.401  41.981  54.923  0.00  0.00     0.210 HD
ENDBRANCH  14  15
BRANCH  14  17
HETATM   17  C   UNK N   1      29.433  42.186  53.857  0.00  0.00     0.071 C 
BRANCH  17  18
HETATM   18  C   UNK N   1      28.660  41.158  52.983  0.00  0.00     0.155 C 
HETATM   19  O   UNK N   1      27.460  40.702  53.606  0.00  0.00    -0.381 OA
HETATM   20  C   UNK N   1      26.451  41.704  53.643  0.00  0.00     0.202 C 
HETATM   21  C   UNK N   1      26.061  42.177  52.232  0.00  0.00     0.173 C 
HETATM   22  C   UNK N   1      27.303  42.713  51.501  0.00  0.00     0.180 C 
HETATM   23  C   UNK N   1      28.388  41.624  51.526  0.00  0.00     0.178 C 
BRANCH  21  24
HETATM   24  O   UNK N   1      25.041  43.142  52.284  0.00  0.00    -0.391 OA
HETATM   25  H   UNK N   1      24.640  43.106  53.192  0.00  0.00     0.210 HD
ENDBRANCH  21  24
BRANCH  22  26
HETATM   26  O   UNK N   1      26.989  43.095  50.185  0.00  0.00    -0.390 OA
HETATM   27  H   UNK N   1      27.501  42.507  49.567  0.00  0.00     0.210 HD
ENDBRANCH  22  26
BRANCH  23  28
HETATM   28  O   UNK N   1      29.576  42.080  50.929  0.00  0.00    -0.390 OA
HETATM   29  H   UNK N   1      29.317  42.561  50.100  0.00  0.00     0.210 HD
ENDBRANCH  23  28
ENDBRANCH  17  18
ENDBRANCH  14  17
ENDBRANCH   3  14
BRANCH   4  30
HETATM   30  C   UNK N   1      28.581  40.592  56.910  0.00  0.00     0.038 C 
BRANCH  30  31
HETATM   31  C   UNK N   1      29.105  39.168  57.181  0.00  0.00     0.040 C 
BRANCH  31  32
HETATM   32  C   UNK N   1      28.819  38.164  56.037  0.00  0.00     0.140 C 
BRANCH  32  33
HETATM   33  O   UNK N   1      27.627  38.525  55.378  0.00  0.00    -0.392 OA
HETATM   34  H   UNK N   1      27.614  38.066  54.496  0.00  0.00     0.210 HD
ENDBRANCH  32  33
BRANCH  32  35
HETATM   35  C   UNK N   1      29.982  38.015  55.061  0.00  0.00    -0.006 C 
HETATM   36  C   UNK N   1      30.426  36.839  54.599  0.00  0.00     0.009 C 
ENDBRANCH  32  35
ENDBRANCH  31  32
ENDBRANCH  30  31
ENDBRANCH   4  30
TORSDOF 12
ENDMDL
MODEL 3
REMARK VINA RESULT:      -5.4      4.509      8.825
REMARK  12 active torsions:
REMARK  status: ('A' for Active; 'I' for Inactive)
REMARK    1  A    between atoms: O_1  and  C_7 
REMARK    2  A    between atoms: O_2  and  C_8 
REMARK    3  A    between atoms: O_4  and  C_9 
REMARK    4  A    between atoms: O_5  and  C_10 
REMARK    5  A    between atoms: O_6  and  C_12 
REMARK    6  A    between atoms: C_7  and  C_16 
REMARK    7  A    between atoms: C_7  and  C_17 
REMARK    8  A    between atoms: C_8  and  C_18 
REMARK    9  A    between atoms: C_8  and  C_19 
REMARK   10  A    between atoms: C_11  and  C_16 
REMARK   11  A    between atoms: C_19  and  C_27 
REMARK   12  A    between atoms: C_20  and  C_27 
ROOT
HETATM    1  C   UNK N   1      33.868  46.578  63.813  0.00  0.00    -0.016 C 
HETATM    2  C   UNK N   1      35.133  46.360  62.881  0.00  0.00     0.006 C 
HETATM    3  C   UNK N   1      32.890  44.568  62.555  0.00  0.00    -0.048 C 
HETATM    4  C   UNK N   1      32.665  45.746  63.249  0.00  0.00    -0.066 C 
HETATM    5  C   UNK N   1      36.395  47.288  63.143  0.00  0.00    -0.043 C 
HETATM    6  C   UNK N   1      33.577  48.111  63.842  0.00  0.00     0.014 C 
HETATM    7  C   UNK N   1      35.463  44.865  62.864  0.00  0.00     0.011 C 
HETATM    8  C   UNK N   1      34.044  46.091  65.283  0.00  0.00     0.020 C 
HETATM    9  C   UNK N   1      34.311  44.082  62.251  0.00  0.00     0.037 C 
HETATM   10  C   UNK N   1      35.918  48.761  63.221  0.00  0.00     0.009 C 
HETATM   11  C   UNK N   1      34.793  48.960  64.237  0.00  0.00     0.002 C 
HETATM   12  C   UNK N   1      37.365  47.196  61.934  0.00  0.00     0.015 C 
HETATM   13  C   UNK N   1      37.240  46.926  64.395  0.00  0.00     0.015 C 
ENDROOT
BRANCH   3  14
HETATM   14  C   UNK N   1      31.757  43.689  61.984  0.00  0.00     0.150 C 
BRANCH  14  15
HETATM   15  O   UNK N   1      31.984  42.345  62.331  0.00  0.00    -0.391 OA
HETATM   16  H   UNK N   1      32.524  41.918  61.614  0.00  0.00     0.210 HD
ENDBRANCH  14  15
BRANCH  14  17
HETATM   17  C   UNK N   1      31.603  43.858  60.444  0.00  0.00     0.071 C 
BRANCH  17  18
HETATM   18  C   UNK N   1      31.828  42.529  59.666  0.00  0.00     0.155 C 
HETATM   19  O   UNK N   1      30.617  41.804  59.459  0.00  0.00    -0.381 OA
HETATM   20  C   UNK N   1      29.763  42.429  58.507  0.00  0.00     0.202 C 
HETATM   21  C   UNK N   1      30.439  42.559  57.131  0.00  0.00     0.173 C 
HETATM   22  C   UNK N   1      31.746  43.360  57.267  0.00  0.00     0.180 C 
HETATM   23  C   UNK N   1      32.618  42.685  58.339  0.00  0.00     0.178 C 
BRANCH  21  24
HETATM   24  O   UNK N   1      29.573  43.149  56.195  0.00  0.00    -0.391 OA
HETATM   25  H   UNK N   1      28.948  43.738  56.694  0.00  0.00     0.210 HD
ENDBRANCH  21  24
BRANCH  22  26
HETATM   26  O   UNK N   1      32.418  43.441  56.034  0.00  0.00    -0.390 OA
HETATM   27  H   UNK N   1      32.136  42.664  55.482  0.00  0.00     0.210 HD
ENDBRANCH  22  26
BRANCH  23  28
HETATM   28  O   UNK N   1      33.802  43.410  58.556  0.00  0.00    -0.390 OA
HETATM   29  H   UNK N   1      33.648  44.327  58.209  0.00  0.00     0.210 HD
ENDBRANCH  23  28
ENDBRANCH  17  18
ENDBRANCH  14  17
ENDBRANCH   3  14
BRANCH   4  30
HETATM   30  C   UNK N   1      31.223  46.259  63.466  0.00  0.00     0.038 C 
BRANCH  30  31
HETATM   31  C   UNK N   1      30.651  47.001  62.243  0.00  0.00     0.040 C 
BRANCH  31  32
HETATM   32  C   UNK N   1      29.253  46.501  61.800  0.00  0.00     0.140 C 
BRANCH  32  33
HETATM   33  O   UNK N   1      28.255  47.216  62.493  0.00  0.00    -0.392 OA
HETATM   34  H   UNK N   1      28.292  46.945  63.449  0.00  0.00     0.210 HD
ENDBRANCH  32  33
BRANCH  32  35
HETATM   35  C   UNK N   1      29.043  46.558  60.291  0.00  0.00    -0.006 C 
HETATM   36  C   UNK N   1      29.950  47.032  59.427  0.00  0.00     0.009 C 
ENDBRANCH  32  35
ENDBRANCH  31  32
ENDBRANCH  30  31
ENDBRANCH   4  30
TORSDOF 12
ENDMDL
MODEL 4
REMARK VINA RESULT:      -5.3      4.560      8.765
REMARK  12 active torsions:
REMARK  status: ('A' for Active; 'I' for Inactive)
REMARK    1  A    between atoms: O_1  and  C_7 
REMARK    2  A    between atoms: O_2  and  C_8 
REMARK    3  A    between atoms: O_4  and  C_9 
REMARK    4  A    between atoms: O_5  and  C_10 
REMARK    5  A    between atoms: O_6  and  C_12 
REMARK    6  A    between atoms: C_7  and  C_16 
REMARK    7  A    between atoms: C_7  and  C_17 
REMARK    8  A    between atoms: C_8  and  C_18 
REMARK    9  A    between atoms: C_8  and  C_19 
REMARK   10  A    between atoms: C_11  and  C_16 
REMARK   11  A    between atoms: C_19  and  C_27 
REMARK   12  A    between atoms: C_20  and  C_27 
ROOT
HETATM    1  C   UNK N   1      35.365  45.191  63.703  0.00  0.00    -0.016 C 
HETATM    2  C   UNK N   1      36.310  45.947  62.678  0.00  0.00     0.006 C 
HETATM    3  C   UNK N   1      34.637  43.824  61.659  0.00  0.00    -0.048 C 
HETATM    4  C   UNK N   1      34.318  44.340  62.905  0.00  0.00    -0.066 C 
HETATM    5  C   UNK N   1      37.297  47.040  63.273  0.00  0.00    -0.043 C 
HETATM    6  C   UNK N   1      34.695  46.278  64.600  0.00  0.00     0.014 C 
HETATM    7  C   UNK N   1      37.009  44.899  61.808  0.00  0.00     0.011 C 
HETATM    8  C   UNK N   1      36.088  44.173  64.636  0.00  0.00     0.020 C 
HETATM    9  C   UNK N   1      35.982  44.129  60.990  0.00  0.00     0.037 C 
HETATM   10  C   UNK N   1      36.487  47.986  64.198  0.00  0.00     0.009 C 
HETATM   11  C   UNK N   1      35.700  47.228  65.267  0.00  0.00     0.002 C 
HETATM   12  C   UNK N   1      37.857  47.915  62.119  0.00  0.00     0.015 C 
HETATM   13  C   UNK N   1      38.536  46.482  64.024  0.00  0.00     0.015 C 
ENDROOT
BRANCH   3  14
HETATM   14  C   UNK N   1      33.664  42.967  60.820  0.00  0.00     0.150 C 
BRANCH  14  15
HETATM   15  O   UNK N   1      34.372  41.915  60.210  0.00  0.00    -0.391 OA
HETATM   16  H   UNK N   1      35.320  41.957  60.503  0.00  0.00     0.210 HD
ENDBRANCH  14  15
BRANCH  14  17
HETATM   17  C   UNK N   1      32.892  43.814  59.768  0.00  0.00     0.071 C 
BRANCH  17  18
HETATM   18  C   UNK N   1      32.323  42.955  58.602  0.00  0.00     0.155 C 
HETATM   19  O   UNK N   1      31.597  41.817  59.064  0.00  0.00    -0.381 OA
HETATM   20  C   UNK N   1      30.352  42.168  59.655  0.00  0.00     0.202 C 
HETATM   21  C   UNK N   1      29.433  42.902  58.663  0.00  0.00     0.173 C 
HETATM   22  C   UNK N   1      30.137  44.166  58.139  0.00  0.00     0.180 C 
HETATM   23  C   UNK N   1      31.499  43.753  57.555  0.00  0.00     0.178 C 
BRANCH  21  24
HETATM   24  O   UNK N   1      28.196  43.213  59.252  0.00  0.00    -0.391 OA
HETATM   25  H   UNK N   1      28.379  43.583  60.156  0.00  0.00     0.210 HD
ENDBRANCH  21  24
BRANCH  22  26
HETATM   26  O   UNK N   1      29.346  44.824  57.181  0.00  0.00    -0.390 OA
HETATM   27  H   UNK N   1      29.722  45.735  57.050  0.00  0.00     0.210 HD
ENDBRANCH  22  26
BRANCH  23  28
HETATM   28  O   UNK N   1      32.221  44.877  57.117  0.00  0.00    -0.390 OA
HETATM   29  H   UNK N   1      32.205  45.538  57.857  0.00  0.00     0.210 HD
ENDBRANCH  23  28
ENDBRANCH  17  18
ENDBRANCH  14  17
ENDBRANCH   3  14
BRANCH   4  30
HETATM   30  C   UNK N   1      32.921  44.090  63.516  0.00  0.00     0.038 C 
BRANCH  30  31
HETATM   31  C   UNK N   1      31.869  45.125  63.075  0.00  0.00     0.040 C 
BRANCH  31  32
HETATM   32  C   UNK N   1      30.552  44.500  62.550  0.00  0.00     0.140 C 
BRANCH  32  33
HETATM   33  O   UNK N   1      29.795  44.013  63.635  0.00  0.00    -0.392 OA
HETATM   34  H   UNK N   1      30.380  43.416  64.173  0.00  0.00     0.210 HD
ENDBRANCH  32  33
BRANCH  32  35
HETATM   35  C   UNK N   1      29.740  45.450  61.676  0.00  0.00    -0.006 C 
HETATM   36  C   UNK N   1      30.274  46.451  60.963  0.00  0.00     0.009 C 
ENDBRANCH  32  35
ENDBRANCH  31  32
ENDBRANCH  30  31
ENDBRANCH   4  30
TORSDOF 12
ENDMDL
MODEL 5
REMARK VINA RESULT:      -5.3      4.973      8.896
REMARK  12 active torsions:
REMARK  status: ('A' for Active; 'I' for Inactive)
REMARK    1  A    between atoms: O_1  and  C_7 
REMARK    2  A    between atoms: O_2  and  C_8 
REMARK    3  A    between atoms: O_4  and  C_9 
REMARK    4  A    between atoms: O_5  and  C_10 
REMARK    5  A    between atoms: O_6  and  C_12 
REMARK    6  A    between atoms: C_7  and  C_16 
REMARK    7  A    between atoms: C_7  and  C_17 
REMARK    8  A    between atoms: C_8  and  C_18 
REMARK    9  A    between atoms: C_8  and  C_19 
REMARK   10  A    between atoms: C_11  and  C_16 
REMARK   11  A    between atoms: C_19  and  C_27 
REMARK   12  A    between atoms: C_20  and  C_27 
ROOT
HETATM    1  C   UNK N   1      34.002  46.532  63.832  0.00  0.00    -0.016 C 
HETATM    2  C   UNK N   1      35.248  46.308  62.875  0.00  0.00     0.006 C 
HETATM    3  C   UNK N   1      32.966  44.565  62.554  0.00  0.00    -0.048 C 
HETATM    4  C   UNK N   1      32.775  45.733  63.274  0.00  0.00    -0.066 C 
HETATM    5  C   UNK N   1      36.531  47.207  63.132  0.00  0.00    -0.043 C 
HETATM    6  C   UNK N   1      33.741  48.069  63.895  0.00  0.00     0.014 C 
HETATM    7  C   UNK N   1      35.549  44.808  62.825  0.00  0.00     0.011 C 
HETATM    8  C   UNK N   1      34.194  46.015  65.290  0.00  0.00     0.020 C 
HETATM    9  C   UNK N   1      34.373  44.058  62.217  0.00  0.00     0.037 C 
HETATM   10  C   UNK N   1      36.083  48.687  63.246  0.00  0.00     0.009 C 
HETATM   11  C   UNK N   1      34.979  48.888  64.285  0.00  0.00     0.002 C 
HETATM   12  C   UNK N   1      37.479  47.120  61.906  0.00  0.00     0.015 C 
HETATM   13  C   UNK N   1      37.390  46.806  64.363  0.00  0.00     0.015 C 
ENDROOT
BRANCH   3  14
HETATM   14  C   UNK N   1      31.807  43.718  61.986  0.00  0.00     0.150 C 
BRANCH  14  15
HETATM   15  O   UNK N   1      31.971  42.375  62.375  0.00  0.00    -0.391 OA
HETATM   16  H   UNK N   1      31.858  41.797  61.576  0.00  0.00     0.210 HD
ENDBRANCH  14  15
BRANCH  14  17
HETATM   17  C   UNK N   1      31.688  43.848  60.440  0.00  0.00     0.071 C 
BRANCH  17  18
HETATM   18  C   UNK N   1      31.975  42.511  59.697  0.00  0.00     0.155 C 
HETATM   19  O   UNK N   1      30.803  41.714  59.532  0.00  0.00    -0.381 OA
HETATM   20  C   UNK N   1      29.902  42.262  58.577  0.00  0.00     0.202 C 
HETATM   21  C   UNK N   1      30.549  42.388  57.186  0.00  0.00     0.173 C 
HETATM   22  C   UNK N   1      31.810  43.263  57.276  0.00  0.00     0.180 C 
HETATM   23  C   UNK N   1      32.735  42.670  58.353  0.00  0.00     0.178 C 
BRANCH  21  24
HETATM   24  O   UNK N   1      29.637  42.900  56.248  0.00  0.00    -0.391 OA
HETATM   25  H   UNK N   1      29.642  42.292  55.462  0.00  0.00     0.210 HD
ENDBRANCH  21  24
BRANCH  22  26
HETATM   26  O   UNK N   1      32.458  43.344  56.031  0.00  0.00    -0.390 OA
HETATM   27  H   UNK N   1      31.823  43.024  55.337  0.00  0.00     0.210 HD
ENDBRANCH  22  26
BRANCH  23  28
HETATM   28  O   UNK N   1      33.880  43.466  58.528  0.00  0.00    -0.390 OA
HETATM   29  H   UNK N   1      34.315  43.167  59.369  0.00  0.00     0.210 HD
ENDBRANCH  23  28
ENDBRANCH  17  18
ENDBRANCH  14  17
ENDBRANCH   3  14
BRANCH   4  30
HETATM   30  C   UNK N   1      31.347  46.268  63.524  0.00  0.00     0.038 C 
BRANCH  30  31
HETATM   31  C   UNK N   1      30.825  45.970  64.942  0.00  0.00     0.040 C 
BRANCH  31  32
HETATM   32  C   UNK N   1      29.775  44.832  65.001  0.00  0.00     0.140 C 
BRANCH  32  33
HETATM   33  O   UNK N   1      29.060  44.786  63.788  0.00  0.00    -0.392 OA
HETATM   34  H   UNK N   1      29.688  45.019  63.053  0.00  0.00     0.210 HD
ENDBRANCH  32  33
BRANCH  32  35
HETATM   35  C   UNK N   1      30.377  43.476  65.355  0.00  0.00    -0.006 C 
HETATM   36  C   UNK N   1      31.607  43.311  65.857  0.00  0.00     0.009 C 
ENDBRANCH  32  35
ENDBRANCH  31  32
ENDBRANCH  30  31
ENDBRANCH   4  30
TORSDOF 12
ENDMDL
MODEL 6
REMARK VINA RESULT:      -5.2      4.663      9.066
REMARK  12 active torsions:
REMARK  status: ('A' for Active; 'I' for Inactive)
REMARK    1  A    between atoms: O_1  and  C_7 
REMARK    2  A    between atoms: O_2  and  C_8 
REMARK    3  A    between atoms: O_4  and  C_9 
REMARK    4  A    between atoms: O_5  and  C_10 
REMARK    5  A    between atoms: O_6  and  C_12 
REMARK    6  A    between atoms: C_7  and  C_16 
REMARK    7  A    between atoms: C_7  and  C_17 
REMARK    8  A    between atoms: C_8  and  C_18 
REMARK    9  A    between atoms: C_8  and  C_19 
REMARK   10  A    between atoms: C_11  and  C_16 
REMARK   11  A    between atoms: C_19  and  C_27 
REMARK   12  A    between atoms: C_20  and  C_27 
ROOT
HETATM    1  C   UNK N   1      33.844  46.628  63.806  0.00  0.00    -0.016 C 
HETATM    2  C   UNK N   1      35.110  46.418  62.873  0.00  0.00     0.006 C 
HETATM    3  C   UNK N   1      32.883  44.603  62.561  0.00  0.00    -0.048 C 
HETATM    4  C   UNK N   1      32.649  45.782  63.249  0.00  0.00    -0.066 C 
HETATM    5  C   UNK N   1      36.363  47.359  63.127  0.00  0.00    -0.043 C 
HETATM    6  C   UNK N   1      33.539  48.158  63.828  0.00  0.00     0.014 C 
HETATM    7  C   UNK N   1      35.454  44.926  62.862  0.00  0.00     0.011 C 
HETATM    8  C   UNK N   1      34.028  46.151  65.279  0.00  0.00     0.020 C 
HETATM    9  C   UNK N   1      34.308  44.129  62.256  0.00  0.00     0.037 C 
HETATM   10  C   UNK N   1      35.872  48.828  63.199  0.00  0.00     0.009 C 
HETATM   11  C   UNK N   1      34.748  49.021  64.217  0.00  0.00     0.002 C 
HETATM   12  C   UNK N   1      37.331  47.270  61.916  0.00  0.00     0.015 C 
HETATM   13  C   UNK N   1      37.214  47.012  64.379  0.00  0.00     0.015 C 
ENDROOT
BRANCH   3  14
HETATM   14  C   UNK N   1      31.758  43.710  61.996  0.00  0.00     0.150 C 
BRANCH  14  15
HETATM   15  O   UNK N   1      31.974  42.376  62.388  0.00  0.00    -0.391 OA
HETATM   16  H   UNK N   1      32.763  42.346  62.990  0.00  0.00     0.210 HD
ENDBRANCH  14  15
BRANCH  14  17
HETATM   17  C   UNK N   1      31.631  43.832  60.450  0.00  0.00     0.071 C 
BRANCH  17  18
HETATM   18  C   UNK N   1      31.948  42.500  59.712  0.00  0.00     0.155 C 
HETATM   19  O   UNK N   1      30.792  41.682  59.538  0.00  0.00    -0.381 OA
HETATM   20  C   UNK N   1      29.888  42.212  58.575  0.00  0.00     0.202 C 
HETATM   21  C   UNK N   1      30.543  42.348  57.190  0.00  0.00     0.173 C 
HETATM   22  C   UNK N   1      31.789  43.246  57.288  0.00  0.00     0.180 C 
HETATM   23  C   UNK N   1      32.715  42.671  58.373  0.00  0.00     0.178 C 
BRANCH  21  24
HETATM   24  O   UNK N   1      29.630  42.843  56.243  0.00  0.00    -0.391 OA
HETATM   25  H   UNK N   1      28.763  42.382  56.394  0.00  0.00     0.210 HD
ENDBRANCH  21  24
BRANCH  22  26
HETATM   26  O   UNK N   1      32.444  43.337  56.048  0.00  0.00    -0.390 OA
HETATM   27  H   UNK N   1      31.765  43.207  55.334  0.00  0.00     0.210 HD
ENDBRANCH  22  26
BRANCH  23  28
HETATM   28  O   UNK N   1      33.845  43.487  58.556  0.00  0.00    -0.390 OA
HETATM   29  H   UNK N   1      33.763  44.243  57.918  0.00  0.00     0.210 HD
ENDBRANCH  23  28
ENDBRANCH  17  18
ENDBRANCH  14  17
ENDBRANCH   3  14
BRANCH   4  30
HETATM   30  C   UNK N   1      31.202  46.282  63.466  0.00  0.00     0.038 C 
BRANCH  30  31
HETATM   31  C   UNK N   1      30.610  46.987  62.231  0.00  0.00     0.040 C 
BRANCH  31  32
HETATM   32  C   UNK N   1      29.953  48.355  62.541  0.00  0.00     0.140 C 
BRANCH  32  33
HETATM   33  O   UNK N   1      28.707  48.440  61.887  0.00  0.00    -0.392 OA
HETATM   34  H   UNK N   1      28.823  49.010  61.081  0.00  0.00     0.210 HD
ENDBRANCH  32  33
BRANCH  32  35
HETATM   35  C   UNK N   1      29.828  48.638  64.035  0.00  0.00    -0.006 C 
HETATM   36  C   UNK N   1      30.281  49.752  64.625  0.00  0.00     0.009 C 
ENDBRANCH  32  35
ENDBRANCH  31  32
ENDBRANCH  30  31
ENDBRANCH   4  30
TORSDOF 12
ENDMDL
MODEL 7
REMARK VINA RESULT:      -5.1     13.412     15.530
REMARK  12 active torsions:
REMARK  status: ('A' for Active; 'I' for Inactive)
REMARK    1  A    between atoms: O_1  and  C_7 
REMARK    2  A    between atoms: O_2  and  C_8 
REMARK    3  A    between atoms: O_4  and  C_9 
REMARK    4  A    between atoms: O_5  and  C_10 
REMARK    5  A    between atoms: O_6  and  C_12 
REMARK    6  A    between atoms: C_7  and  C_16 
REMARK    7  A    between atoms: C_7  and  C_17 
REMARK    8  A    between atoms: C_8  and  C_18 
REMARK    9  A    between atoms: C_8  and  C_19 
REMARK   10  A    between atoms: C_11  and  C_16 
REMARK   11  A    between atoms: C_19  and  C_27 
REMARK   12  A    between atoms: C_20  and  C_27 
ROOT
HETATM    1  C   UNK N   1      41.048  44.325  50.075  0.00  0.00    -0.016 C 
HETATM    2  C   UNK N   1      41.474  45.286  51.263  0.00  0.00     0.006 C 
HETATM    3  C   UNK N   1      41.778  46.261  48.560  0.00  0.00    -0.048 C 
HETATM    4  C   UNK N   1      40.966  45.153  48.748  0.00  0.00    -0.066 C 
HETATM    5  C   UNK N   1      41.397  44.698  52.736  0.00  0.00    -0.043 C 
HETATM    6  C   UNK N   1      39.679  43.686  50.470  0.00  0.00     0.014 C 
HETATM    7  C   UNK N   1      42.834  45.899  50.918  0.00  0.00     0.011 C 
HETATM    8  C   UNK N   1      42.050  43.170  49.772  0.00  0.00     0.020 C 
HETATM    9  C   UNK N   1      42.719  46.755  49.664  0.00  0.00     0.037 C 
HETATM   10  C   UNK N   1      40.009  44.035  52.931  0.00  0.00     0.009 C 
HETATM   11  C   UNK N   1      39.692  43.006  51.845  0.00  0.00     0.002 C 
HETATM   12  C   UNK N   1      41.486  45.859  53.763  0.00  0.00     0.015 C 
HETATM   13  C   UNK N   1      42.528  43.705  53.117  0.00  0.00     0.015 C 
ENDROOT
BRANCH   3  14
HETATM   14  C   UNK N   1      41.764  47.116  47.275  0.00  0.00     0.150 C 
BRANCH  14  15
HETATM   15  O   UNK N   1      43.086  47.381  46.872  0.00  0.00    -0.391 OA
HETATM   16  H   UNK N   1      43.550  47.867  47.604  0.00  0.00     0.210 HD
ENDBRANCH  14  15
BRANCH  14  17
HETATM   17  C   UNK N   1      40.953  48.432  47.454  0.00  0.00     0.071 C 
BRANCH  17  18
HETATM   18  C   UNK N   1      39.495  48.321  46.923  0.00  0.00     0.155 C 
HETATM   19  O   UNK N   1      38.729  49.497  47.176  0.00  0.00    -0.381 OA
HETATM   20  C   UNK N   1      39.132  50.595  46.366  0.00  0.00     0.202 C 
HETATM   21  C   UNK N   1      38.983  50.286  44.866  0.00  0.00     0.173 C 
HETATM   22  C   UNK N   1      39.809  49.039  44.507  0.00  0.00     0.180 C 
HETATM   23  C   UNK N   1      39.382  47.890  45.435  0.00  0.00     0.178 C 
BRANCH  21  24
HETATM   24  O   UNK N   1      39.355  51.390  44.081  0.00  0.00    -0.391 OA
HETATM   25  H   UNK N   1      38.646  51.525  43.398  0.00  0.00     0.210 HD
ENDBRANCH  21  24
BRANCH  22  26
HETATM   26  O   UNK N   1      39.642  48.695  43.154  0.00  0.00    -0.390 OA
HETATM   27  H   UNK N   1      39.679  49.533  42.620  0.00  0.00     0.210 HD
ENDBRANCH  22  26
BRANCH  23  28
HETATM   28  O   UNK N   1      40.150  46.737  45.199  0.00  0.00    -0.390 OA
HETATM   29  H   UNK N   1      39.685  45.982  45.644  0.00  0.00     0.210 HD
ENDBRANCH  23  28
ENDBRANCH  17  18
ENDBRANCH  14  17
ENDBRANCH   3  14
BRANCH   4  30
HETATM   30  C   UNK N   1      39.962  44.730  47.651  0.00  0.00     0.038 C 
BRANCH  30  31
HETATM   31  C   UNK N   1      40.444  43.527  46.817  0.00  0.00     0.040 C 
BRANCH  31  32
HETATM   32  C   UNK N   1      41.783  43.770  46.077  0.00  0.00     0.140 C 
BRANCH  32  33
HETATM   33  O   UNK N   1      42.785  42.948  46.631  0.00  0.00    -0.392 OA
HETATM   34  H   UNK N   1      43.562  42.951  46.011  0.00  0.00     0.210 HD
ENDBRANCH  32  33
BRANCH  32  35
HETATM   35  C   UNK N   1      41.677  43.590  44.566  0.00  0.00    -0.006 C 
HETATM   36  C   UNK N   1      42.247  44.410  43.673  0.00  0.00     0.009 C 
ENDBRANCH  32  35
ENDBRANCH  31  32
ENDBRANCH  30  31
ENDBRANCH   4  30
TORSDOF 12
ENDMDL
MODEL 8
REMARK VINA RESULT:      -5.1      3.253      7.625
REMARK  12 active torsions:
REMARK  status: ('A' for Active; 'I' for Inactive)
REMARK    1  A    between atoms: O_1  and  C_7 
REMARK    2  A    between atoms: O_2  and  C_8 
REMARK    3  A    between atoms: O_4  and  C_9 
REMARK    4  A    between atoms: O_5  and  C_10 
REMARK    5  A    between atoms: O_6  and  C_12 
REMARK    6  A    between atoms: C_7  and  C_16 
REMARK    7  A    between atoms: C_7  and  C_17 
REMARK    8  A    between atoms: C_8  and  C_18 
REMARK    9  A    between atoms: C_8  and  C_19 
REMARK   10  A    between atoms: C_11  and  C_16 
REMARK   11  A    between atoms: C_19  and  C_27 
REMARK   12  A    between atoms: C_20  and  C_27 
ROOT
HETATM    1  C   UNK N   1      30.842  44.449  60.709  0.00  0.00    -0.016 C 
HETATM    2  C   UNK N   1      32.243  44.004  61.305  0.00  0.00     0.006 C 
HETATM    3  C   UNK N   1      31.576  43.144  58.628  0.00  0.00    -0.048 C 
HETATM    4  C   UNK N   1      30.830  44.180  59.166  0.00  0.00    -0.066 C 
HETATM    5  C   UNK N   1      32.550  44.399  62.811  0.00  0.00    -0.043 C 
HETATM    6  C   UNK N   1      30.654  45.959  61.057  0.00  0.00     0.014 C 
HETATM    7  C   UNK N   1      32.437  42.514  61.009  0.00  0.00     0.011 C 
HETATM    8  C   UNK N   1      29.613  43.669  61.267  0.00  0.00     0.020 C 
HETATM    9  C   UNK N   1      32.491  42.282  59.506  0.00  0.00     0.037 C 
HETATM   10  C   UNK N   1      32.236  45.906  63.001  0.00  0.00     0.009 C 
HETATM   11  C   UNK N   1      30.822  46.272  62.550  0.00  0.00     0.002 C 
HETATM   12  C   UNK N   1      34.065  44.219  63.096  0.00  0.00     0.015 C 
HETATM   13  C   UNK N   1      31.811  43.554  63.885  0.00  0.00     0.015 C 
ENDROOT
BRANCH   3  14
HETATM   14  C   UNK N   1      31.604  42.809  57.121  0.00  0.00     0.150 C 
BRANCH  14  15
HETATM   15  O   UNK N   1      32.392  43.756  56.443  0.00  0.00    -0.391 OA
HETATM   16  H   UNK N   1      33.257  43.334  56.199  0.00  0.00     0.210 HD
ENDBRANCH  14  15
BRANCH  14  17
HETATM   17  C   UNK N   1      30.174  42.724  56.513  0.00  0.00     0.071 C 
BRANCH  17  18
HETATM   18  C   UNK N   1      29.925  41.398  55.739  0.00  0.00     0.155 C 
HETATM   19  O   UNK N   1      28.578  40.941  55.853  0.00  0.00    -0.381 OA
HETATM   20  C   UNK N   1      27.664  41.750  55.124  0.00  0.00     0.202 C 
HETATM   21  C   UNK N   1      27.994  41.775  53.621  0.00  0.00     0.173 C 
HETATM   22  C   UNK N   1      29.429  42.288  53.411  0.00  0.00     0.180 C 
HETATM   23  C   UNK N   1      30.380  41.422  54.254  0.00  0.00     0.178 C 
BRANCH  21  24
HETATM   24  O   UNK N   1      27.064  42.552  52.910  0.00  0.00    -0.391 OA
HETATM   25  H   UNK N   1      26.464  42.983  53.574  0.00  0.00     0.210 HD
ENDBRANCH  21  24
BRANCH  22  26
HETATM   26  O   UNK N   1      29.780  42.261  52.050  0.00  0.00    -0.390 OA
HETATM   27  H   UNK N   1      29.760  43.196  51.712  0.00  0.00     0.210 HD
ENDBRANCH  22  26
BRANCH  23  28
HETATM   28  O   UNK N   1      31.704  41.884  54.155  0.00  0.00    -0.390 OA
HETATM   29  H   UNK N   1      31.917  41.949  53.188  0.00  0.00     0.210 HD
ENDBRANCH  23  28
ENDBRANCH  17  18
ENDBRANCH  14  17
ENDBRANCH   3  14
BRANCH   4  30
HETATM   30  C   UNK N   1      29.985  45.089  58.245  0.00  0.00     0.038 C 
BRANCH  30  31
HETATM   31  C   UNK N   1      30.725  46.366  57.803  0.00  0.00     0.040 C 
BRANCH  31  32
HETATM   32  C   UNK N   1      29.791  47.565  57.506  0.00  0.00     0.140 C 
BRANCH  32  33
HETATM   33  O   UNK N   1      28.455  47.120  57.449  0.00  0.00    -0.392 OA
HETATM   34  H   UNK N   1      27.927  47.651  58.102  0.00  0.00     0.210 HD
ENDBRANCH  32  33
BRANCH  32  35
HETATM   35  C   UNK N   1      29.960  48.718  58.490  0.00  0.00    -0.006 C 
HETATM   36  C   UNK N   1      29.075  49.020  59.449  0.00  0.00     0.009 C 
ENDBRANCH  32  35
ENDBRANCH  31  32
ENDBRANCH  30  31
ENDBRANCH   4  30
TORSDOF 12
ENDMDL
MODEL 9
REMARK VINA RESULT:      -5.0      3.032      6.466
REMARK  12 active torsions:
REMARK  status: ('A' for Active; 'I' for Inactive)
REMARK    1  A    between atoms: O_1  and  C_7 
REMARK    2  A    between atoms: O_2  and  C_8 
REMARK    3  A    between atoms: O_4  and  C_9 
REMARK    4  A    between atoms: O_5  and  C_10 
REMARK    5  A    between atoms: O_6  and  C_12 
REMARK    6  A    between atoms: C_7  and  C_16 
REMARK    7  A    between atoms: C_7  and  C_17 
REMARK    8  A    between atoms: C_8  and  C_18 
REMARK    9  A    between atoms: C_8  and  C_19 
REMARK   10  A    between atoms: C_11  and  C_16 
REMARK   11  A    between atoms: C_19  and  C_27 
REMARK   12  A    between atoms: C_20  and  C_27 
ROOT
HETATM    1  C   UNK N   1      29.165  46.222  59.705  0.00  0.00    -0.016 C 
HETATM    2  C   UNK N   1      29.034  47.086  58.381  0.00  0.00     0.006 C 
HETATM    3  C   UNK N   1      30.837  44.828  58.349  0.00  0.00    -0.048 C 
HETATM    4  C   UNK N   1      29.904  44.881  59.373  0.00  0.00    -0.066 C 
HETATM    5  C   UNK N   1      28.118  48.381  58.447  0.00  0.00    -0.043 C 
HETATM    6  C   UNK N   1      27.720  45.993  60.248  0.00  0.00     0.014 C 
HETATM    7  C   UNK N   1      30.442  47.357  57.845  0.00  0.00     0.011 C 
HETATM    8  C   UNK N   1      30.008  46.881  60.838  0.00  0.00     0.020 C 
HETATM    9  C   UNK N   1      31.119  46.048  57.465  0.00  0.00     0.037 C 
HETATM   10  C   UNK N   1      26.758  47.992  59.081  0.00  0.00     0.009 C 
HETATM   11  C   UNK N   1      26.918  47.289  60.429  0.00  0.00     0.002 C 
HETATM   12  C   UNK N   1      27.815  48.875  57.007  0.00  0.00     0.015 C 
HETATM   13  C   UNK N   1      28.734  49.596  59.193  0.00  0.00     0.015 C 
ENDROOT
BRANCH   3  14
HETATM   14  C   UNK N   1      31.614  43.549  57.974  0.00  0.00     0.150 C 
BRANCH  14  15
HETATM   15  O   UNK N   1      32.972  43.709  58.308  0.00  0.00    -0.391 OA
HETATM   16  H   UNK N   1      33.462  44.025  57.504  0.00  0.00     0.210 HD
ENDBRANCH  14  15
BRANCH  14  17
HETATM   17  C   UNK N   1      31.442  43.175  56.473  0.00  0.00     0.071 C 
BRANCH  17  18
HETATM   18  C   UNK N   1      30.631  41.864  56.266  0.00  0.00     0.155 C 
HETATM   19  O   UNK N   1      29.363  41.895  56.918  0.00  0.00    -0.381 OA
HETATM   20  C   UNK N   1      28.445  42.777  56.283  0.00  0.00     0.202 C 
HETATM   21  C   UNK N   1      28.179  42.372  54.823  0.00  0.00     0.173 C 
HETATM   22  C   UNK N   1      29.504  42.343  54.041  0.00  0.00     0.180 C 
HETATM   23  C   UNK N   1      30.485  41.423  54.785  0.00  0.00     0.178 C 
BRANCH  21  24
HETATM   24  O   UNK N   1      27.247  43.233  54.219  0.00  0.00    -0.391 OA
HETATM   25  H   UNK N   1      27.154  42.956  53.269  0.00  0.00     0.210 HD
ENDBRANCH  21  24
BRANCH  22  26
HETATM   26  O   UNK N   1      29.299  41.915  52.718  0.00  0.00    -0.390 OA
HETATM   27  H   UNK N   1      28.666  42.548  52.287  0.00  0.00     0.210 HD
ENDBRANCH  22  26
BRANCH  23  28
HETATM   28  O   UNK N   1      31.740  41.407  54.152  0.00  0.00    -0.390 OA
HETATM   29  H   UNK N   1      31.618  40.959  53.275  0.00  0.00     0.210 HD
ENDBRANCH  23  28
ENDBRANCH  17  18
ENDBRANCH  14  17
ENDBRANCH   3  14
BRANCH   4  30
HETATM   30  C   UNK N   1      29.575  43.612  60.192  0.00  0.00     0.038 C 
BRANCH  30  31
HETATM   31  C   UNK N   1      30.226  43.604  61.589  0.00  0.00     0.040 C 
BRANCH  31  32
HETATM   32  C   UNK N   1      31.501  42.730  61.685  0.00  0.00     0.140 C 
BRANCH  32  33
HETATM   33  O   UNK N   1      31.875  42.586  63.036  0.00  0.00    -0.392 OA
HETATM   34  H   UNK N   1      31.963  41.615  63.228  0.00  0.00     0.210 HD
ENDBRANCH  32  33
BRANCH  32  35
HETATM   35  C   UNK N   1      31.359  41.379  60.991  0.00  0.00    -0.006 C 
HETATM   36  C   UNK N   1      32.341  40.786  60.300  0.00  0.00     0.009 C 
ENDBRANCH  32  35
ENDBRANCH  31  32
ENDBRANCH  30  31
ENDBRANCH   4  30
TORSDOF 12
ENDMDL
