MODEL 1
REMARK VINA RESULT:      -5.0      0.000      0.000
REMARK  12 active torsions:
REMARK  status: ('A' for Active; 'I' for Inactive)
REMARK    1  A    between atoms: O_1  and  C_7 
REMARK    2  A    between atoms: O_2  and  C_8 
REMARK    3  A    between atoms: O_4  and  C_9 
REMARK    4  A    between atoms: O_5  and  C_10 
REMARK    5  A    between atoms: O_6  and  C_12 
REMARK    6  A    between atoms: C_7  and  C_16 
REMARK    7  A    between atoms: C_7  and  C_17 
REMARK    8  A    between atoms: C_8  and  C_18 
REMARK    9  A    between atoms: C_8  and  C_19 
REMARK   10  A    between atoms: C_11  and  C_18 
REMARK   11  A    between atoms: C_17  and  C_26 
REMARK   12  A    between atoms: C_20  and  C_26 
ROOT
HETATM    1  C   UNK N   1      31.178  43.002  60.765  0.00  0.00    -0.016 C 
HETATM    2  C   UNK N   1      30.437  43.493  62.063  0.00  0.00     0.006 C 
HETATM    3  C   UNK N   1      30.103  44.974  59.549  0.00  0.00    -0.048 C 
HETATM    4  C   UNK N   1      31.176  44.096  59.655  0.00  0.00    -0.066 C 
HETATM    5  C   UNK N   1      31.276  44.496  62.972  0.00  0.00    -0.043 C 
HETATM    6  C   UNK N   1      32.579  42.458  61.192  0.00  0.00     0.014 C 
HETATM    7  C   UNK N   1      29.007  43.922  61.678  0.00  0.00     0.011 C 
HETATM    8  C   UNK N   1      30.452  41.771  60.146  0.00  0.00     0.020 C 
HETATM    9  C   UNK N   1      28.963  44.988  60.579  0.00  0.00     0.037 C 
HETATM   10  C   UNK N   1      32.666  43.860  63.247  0.00  0.00     0.009 C 
HETATM   11  C   UNK N   1      33.408  43.488  61.960  0.00  0.00     0.002 C 
HETATM   12  C   UNK N   1      30.572  44.666  64.340  0.00  0.00     0.015 C 
HETATM   13  C   UNK N   1      31.492  45.915  62.388  0.00  0.00     0.015 C 
ENDROOT
BRANCH   3  14
HETATM   14  C   UNK N   1      30.014  46.038  58.432  0.00  0.00     0.150 C 
BRANCH  14  15
HETATM   15  O   UNK N   1      29.199  45.567  57.386  0.00  0.00    -0.391 OA
HETATM   16  H   UNK N   1      28.912  44.642  57.602  0.00  0.00     0.210 HD
ENDBRANCH  14  15
BRANCH  14  17
HETATM   17  C   UNK N   1      29.520  47.410  58.965  0.00  0.00     0.071 C 
BRANCH  17  18
HETATM   18  C   UNK N   1      29.691  48.586  57.975  0.00  0.00     0.155 C 
HETATM   19  O   UNK N   1      30.616  48.214  56.973  0.00  0.00    -0.381 OA
HETATM   20  C   UNK N   1      31.022  49.326  56.167  0.00  0.00     0.202 C 
HETATM   21  C   UNK N   1      30.024  50.524  56.123  0.00  0.00     0.173 C 
HETATM   22  C   UNK N   1      28.624  49.912  56.049  0.00  0.00     0.180 C 
HETATM   23  C   UNK N   1      28.356  49.072  57.327  0.00  0.00     0.178 C 
BRANCH  21  24
HETATM   24  O   UNK N   1      30.277  51.326  54.999  0.00  0.00    -0.391 OA
HETATM   25  H   UNK N   1      30.937  52.012  55.280  0.00  0.00     0.210 HD
ENDBRANCH  21  24
BRANCH  22  26
HETATM   26  O   UNK N   1      27.624  50.886  55.908  0.00  0.00    -0.390 OA
HETATM   27  H   UNK N   1      26.796  50.414  55.632  0.00  0.00     0.210 HD
ENDBRANCH  22  26
BRANCH  23  28
HETATM   28  O   UNK N   1      27.527  47.989  56.993  0.00  0.00    -0.390 OA
HETATM   29  H   UNK N   1      26.942  47.826  57.778  0.00  0.00     0.210 HD
ENDBRANCH  23  28
ENDBRANCH  17  18
ENDBRANCH  14  17
ENDBRANCH   3  14
BRANCH   4  30
HETATM   30  C   UNK N   1      32.335  44.153  58.648  0.00  0.00     0.038 C 
BRANCH  30  31
HETATM   31  C   UNK N   1      32.376  42.914  57.732  0.00  0.00     0.040 C 
BRANCH  31  32
HETATM   32  C   UNK N   1      31.650  43.143  56.397  0.00  0.00     0.140 C 
BRANCH  32  33
HETATM   33  O   UNK N   1      32.468  42.678  55.356  0.00  0.00    -0.392 OA
HETATM   34  H   UNK N   1      32.764  41.764  55.609  0.00  0.00     0.210 HD
ENDBRANCH  32  33
BRANCH  32  35
HETATM   35  C   UNK N   1      30.342  42.397  56.359  0.00  0.00    -0.006 C 
HETATM   36  C   UNK N   1      30.036  41.568  55.357  0.00  0.00     0.009 C 
ENDBRANCH  32  35
ENDBRANCH  31  32
ENDBRANCH  30  31
ENDBRANCH   4  30
TORSDOF 12
ENDMDL
MODEL 2
REMARK VINA RESULT:      -4.8      3.534      7.396
REMARK  12 active torsions:
REMARK  status: ('A' for Active; 'I' for Inactive)
REMARK    1  A    between atoms: O_1  and  C_7 
REMARK    2  A    between atoms: O_2  and  C_8 
REMARK    3  A    between atoms: O_4  and  C_9 
REMARK    4  A    between atoms: O_5  and  C_10 
REMARK    5  A    between atoms: O_6  and  C_12 
REMARK    6  A    between atoms: C_7  and  C_16 
REMARK    7  A    between atoms: C_7  and  C_17 
REMARK    8  A    between atoms: C_8  and  C_18 
REMARK    9  A    between atoms: C_8  and  C_19 
REMARK   10  A    between atoms: C_11  and  C_18 
REMARK   11  A    between atoms: C_17  and  C_26 
REMARK   12  A    between atoms: C_20  and  C_26 
ROOT
HETATM    1  C   UNK N   1      30.609  44.893  58.745  0.00  0.00    -0.016 C 
HETATM    2  C   UNK N   1      32.009  44.175  58.716  0.00  0.00     0.006 C 
HETATM    3  C   UNK N   1      29.813  43.151  57.055  0.00  0.00    -0.048 C 
HETATM    4  C   UNK N   1      29.498  44.009  58.103  0.00  0.00    -0.066 C 
HETATM    5  C   UNK N   1      32.199  43.038  59.814  0.00  0.00    -0.043 C 
HETATM    6  C   UNK N   1      30.348  45.370  60.211  0.00  0.00     0.014 C 
HETATM    7  C   UNK N   1      32.338  43.803  57.256  0.00  0.00     0.011 C 
HETATM    8  C   UNK N   1      30.643  46.205  57.906  0.00  0.00     0.020 C 
HETATM    9  C   UNK N   1      31.261  42.945  56.585  0.00  0.00     0.037 C 
HETATM   10  C   UNK N   1      31.829  43.631  61.202  0.00  0.00     0.009 C 
HETATM   11  C   UNK N   1      30.420  44.231  61.228  0.00  0.00     0.002 C 
HETATM   12  C   UNK N   1      33.689  42.624  59.877  0.00  0.00     0.015 C 
HETATM   13  C   UNK N   1      31.373  41.745  59.598  0.00  0.00     0.015 C 
ENDROOT
BRANCH   3  14
HETATM   14  C   UNK N   1      28.745  42.297  56.336  0.00  0.00     0.150 C 
BRANCH  14  15
HETATM   15  O   UNK N   1      28.236  43.000  55.229  0.00  0.00    -0.391 OA
HETATM   16  H   UNK N   1      28.542  42.547  54.400  0.00  0.00     0.210 HD
ENDBRANCH  14  15
BRANCH  14  17
HETATM   17  C   UNK N   1      29.286  40.901  55.926  0.00  0.00     0.071 C 
BRANCH  17  18
HETATM   18  C   UNK N   1      28.326  40.072  55.039  0.00  0.00     0.155 C 
HETATM   19  O   UNK N   1      28.326  40.611  53.732  0.00  0.00    -0.381 OA
HETATM   20  C   UNK N   1      27.281  40.066  52.920  0.00  0.00     0.202 C 
HETATM   21  C   UNK N   1      26.753  38.665  53.356  0.00  0.00     0.173 C 
HETATM   22  C   UNK N   1      27.981  37.858  53.781  0.00  0.00     0.180 C 
HETATM   23  C   UNK N   1      28.659  38.547  54.996  0.00  0.00     0.178 C 
BRANCH  21  24
HETATM   24  O   UNK N   1      26.093  38.040  52.286  0.00  0.00    -0.391 OA
HETATM   25  H   UNK N   1      26.336  38.542  51.466  0.00  0.00     0.210 HD
ENDBRANCH  21  24
BRANCH  22  26
HETATM   26  O   UNK N   1      27.659  36.532  54.112  0.00  0.00    -0.390 OA
HETATM   27  H   UNK N   1      27.610  36.484  55.102  0.00  0.00     0.210 HD
ENDBRANCH  22  26
BRANCH  23  28
HETATM   28  O   UNK N   1      30.045  38.328  54.927  0.00  0.00    -0.390 OA
HETATM   29  H   UNK N   1      30.458  38.903  55.622  0.00  0.00     0.210 HD
ENDBRANCH  23  28
ENDBRANCH  17  18
ENDBRANCH  14  17
ENDBRANCH   3  14
BRANCH   4  30
HETATM   30  C   UNK N   1      28.048  44.142  58.596  0.00  0.00     0.038 C 
BRANCH  30  31
HETATM   31  C   UNK N   1      27.298  45.296  57.902  0.00  0.00     0.040 C 
BRANCH  31  32
HETATM   32  C   UNK N   1      25.969  44.844  57.275  0.00  0.00     0.140 C 
BRANCH  32  33
HETATM   33  O   UNK N   1      26.125  44.792  55.882  0.00  0.00    -0.392 OA
HETATM   34  H   UNK N   1      25.379  44.238  55.530  0.00  0.00     0.210 HD
ENDBRANCH  32  33
BRANCH  32  35
HETATM   35  C   UNK N   1      25.574  43.478  57.774  0.00  0.00    -0.006 C 
HETATM   36  C   UNK N   1      25.032  42.566  56.963  0.00  0.00     0.009 C 
ENDBRANCH  32  35
ENDBRANCH  31  32
ENDBRANCH  30  31
ENDBRANCH   4  30
TORSDOF 12
ENDMDL
MODEL 3
REMARK VINA RESULT:      -4.7      4.194      7.814
REMARK  12 active torsions:
REMARK  status: ('A' for Active; 'I' for Inactive)
REMARK    1  A    between atoms: O_1  and  C_7 
REMARK    2  A    between atoms: O_2  and  C_8 
REMARK    3  A    between atoms: O_4  and  C_9 
REMARK    4  A    between atoms: O_5  and  C_10 
REMARK    5  A    between atoms: O_6  and  C_12 
REMARK    6  A    between atoms: C_7  and  C_16 
REMARK    7  A    between atoms: C_7  and  C_17 
REMARK    8  A    between atoms: C_8  and  C_18 
REMARK    9  A    between atoms: C_8  and  C_19 
REMARK   10  A    between atoms: C_11  and  C_18 
REMARK   11  A    between atoms: C_17  and  C_26 
REMARK   12  A    between atoms: C_20  and  C_26 
ROOT
HETATM    1  C   UNK N   1      28.099  37.332  55.109  0.00  0.00    -0.016 C 
HETATM    2  C   UNK N   1      27.748  36.299  56.244  0.00  0.00     0.006 C 
HETATM    3  C   UNK N   1      27.754  39.175  56.844  0.00  0.00    -0.048 C 
HETATM    4  C   UNK N   1      28.406  38.743  55.694  0.00  0.00    -0.066 C 
HETATM    5  C   UNK N   1      29.001  35.752  57.060  0.00  0.00    -0.043 C 
HETATM    6  C   UNK N   1      29.215  36.698  54.217  0.00  0.00     0.014 C 
HETATM    7  C   UNK N   1      26.566  36.856  57.063  0.00  0.00     0.011 C 
HETATM    8  C   UNK N   1      26.891  37.526  54.146  0.00  0.00     0.020 C 
HETATM    9  C   UNK N   1      26.825  38.250  57.643  0.00  0.00     0.037 C 
HETATM   10  C   UNK N   1      30.055  35.231  56.044  0.00  0.00     0.009 C 
HETATM   11  C   UNK N   1      30.455  36.292  55.015  0.00  0.00     0.002 C 
HETATM   12  C   UNK N   1      28.566  34.545  57.926  0.00  0.00     0.015 C 
HETATM   13  C   UNK N   1      29.689  36.769  58.004  0.00  0.00     0.015 C 
ENDROOT
BRANCH   3  14
HETATM   14  C   UNK N   1      27.969  40.587  57.434  0.00  0.00     0.150 C 
BRANCH  14  15
HETATM   15  O   UNK N   1      26.854  40.957  58.208  0.00  0.00    -0.391 OA
HETATM   16  H   UNK N   1      26.166  41.343  57.606  0.00  0.00     0.210 HD
ENDBRANCH  14  15
BRANCH  14  17
HETATM   17  C   UNK N   1      29.287  40.689  58.249  0.00  0.00     0.071 C 
BRANCH  17  18
HETATM   18  C   UNK N   1      30.204  41.868  57.848  0.00  0.00     0.155 C 
HETATM   19  O   UNK N   1      29.468  43.072  57.927  0.00  0.00    -0.381 OA
HETATM   20  C   UNK N   1      30.162  44.174  57.333  0.00  0.00     0.202 C 
HETATM   21  C   UNK N   1      31.713  44.027  57.253  0.00  0.00     0.173 C 
HETATM   22  C   UNK N   1      32.150  43.383  58.571  0.00  0.00     0.180 C 
HETATM   23  C   UNK N   1      31.511  41.974  58.697  0.00  0.00     0.178 C 
BRANCH  21  24
HETATM   24  O   UNK N   1      32.313  45.286  57.091  0.00  0.00    -0.391 OA
HETATM   25  H   UNK N   1      31.597  45.909  56.801  0.00  0.00     0.210 HD
ENDBRANCH  21  24
BRANCH  22  26
HETATM   26  O   UNK N   1      33.546  43.278  58.674  0.00  0.00    -0.390 OA
HETATM   27  H   UNK N   1      33.888  44.179  58.910  0.00  0.00     0.210 HD
ENDBRANCH  22  26
BRANCH  23  28
HETATM   28  O   UNK N   1      31.262  41.708  60.053  0.00  0.00    -0.390 OA
HETATM   29  H   UNK N   1      30.509  41.063  60.083  0.00  0.00     0.210 HD
ENDBRANCH  23  28
ENDBRANCH  17  18
ENDBRANCH  14  17
ENDBRANCH   3  14
BRANCH   4  30
HETATM   30  C   UNK N   1      29.384  39.670  54.954  0.00  0.00     0.038 C 
BRANCH  30  31
HETATM   31  C   UNK N   1      28.670  40.582  53.937  0.00  0.00     0.040 C 
BRANCH  31  32
HETATM   32  C   UNK N   1      29.399  41.920  53.731  0.00  0.00     0.140 C 
BRANCH  32  33
HETATM   33  O   UNK N   1      30.733  41.773  54.141  0.00  0.00    -0.392 OA
HETATM   34  H   UNK N   1      31.036  42.666  54.455  0.00  0.00     0.210 HD
ENDBRANCH  32  33
BRANCH  32  35
HETATM   35  C   UNK N   1      29.376  42.327  52.280  0.00  0.00    -0.006 C 
HETATM   36  C   UNK N   1      28.229  42.509  51.621  0.00  0.00     0.009 C 
ENDBRANCH  32  35
ENDBRANCH  31  32
ENDBRANCH  30  31
ENDBRANCH   4  30
TORSDOF 12
ENDMDL
MODEL 4
REMARK VINA RESULT:      -4.7      1.919      4.664
REMARK  12 active torsions:
REMARK  status: ('A' for Active; 'I' for Inactive)
REMARK    1  A    between atoms: O_1  and  C_7 
REMARK    2  A    between atoms: O_2  and  C_8 
REMARK    3  A    between atoms: O_4  and  C_9 
REMARK    4  A    between atoms: O_5  and  C_10 
REMARK    5  A    between atoms: O_6  and  C_12 
REMARK    6  A    between atoms: C_7  and  C_16 
REMARK    7  A    between atoms: C_7  and  C_17 
REMARK    8  A    between atoms: C_8  and  C_18 
REMARK    9  A    between atoms: C_8  and  C_19 
REMARK   10  A    between atoms: C_11  and  C_18 
REMARK   11  A    between atoms: C_17  and  C_26 
REMARK   12  A    between atoms: C_20  and  C_26 
ROOT
HETATM    1  C   UNK N   1      31.114  43.196  59.720  0.00  0.00    -0.016 C 
HETATM    2  C   UNK N   1      30.999  42.478  58.325  0.00  0.00     0.006 C 
HETATM    3  C   UNK N   1      30.715  45.397  58.488  0.00  0.00    -0.048 C 
HETATM    4  C   UNK N   1      30.580  44.659  59.659  0.00  0.00    -0.066 C 
HETATM    5  C   UNK N   1      29.532  41.988  57.945  0.00  0.00    -0.043 C 
HETATM    6  C   UNK N   1      30.454  42.266  60.790  0.00  0.00     0.014 C 
HETATM    7  C   UNK N   1      31.750  43.324  57.277  0.00  0.00     0.011 C 
HETATM    8  C   UNK N   1      32.603  43.307  60.164  0.00  0.00     0.020 C 
HETATM    9  C   UNK N   1      31.262  44.773  57.196  0.00  0.00     0.037 C 
HETATM   10  C   UNK N   1      28.976  41.148  59.128  0.00  0.00     0.009 C 
HETATM   11  C   UNK N   1      29.005  41.911  60.456  0.00  0.00     0.002 C 
HETATM   12  C   UNK N   1      29.603  41.052  56.714  0.00  0.00     0.015 C 
HETATM   13  C   UNK N   1      28.511  43.105  57.614  0.00  0.00     0.015 C 
ENDROOT
BRANCH   3  14
HETATM   14  C   UNK N   1      30.263  46.871  58.386  0.00  0.00     0.150 C 
BRANCH  14  15
HETATM   15  O   UNK N   1      30.852  47.475  57.259  0.00  0.00    -0.391 OA
HETATM   16  H   UNK N   1      31.636  48.004  57.558  0.00  0.00     0.210 HD
ENDBRANCH  14  15
BRANCH  14  17
HETATM   17  C   UNK N   1      28.718  47.013  58.365  0.00  0.00     0.071 C 
BRANCH  17  18
HETATM   18  C   UNK N   1      28.200  48.463  58.512  0.00  0.00     0.155 C 
HETATM   19  O   UNK N   1      29.247  49.279  58.999  0.00  0.00    -0.381 OA
HETATM   20  C   UNK N   1      28.786  50.573  59.402  0.00  0.00     0.202 C 
HETATM   21  C   UNK N   1      27.459  51.050  58.736  0.00  0.00     0.173 C 
HETATM   22  C   UNK N   1      27.533  50.614  57.272  0.00  0.00     0.180 C 
HETATM   23  C   UNK N   1      27.613  49.065  57.195  0.00  0.00     0.178 C 
BRANCH  21  24
HETATM   24  O   UNK N   1      27.340  52.445  58.834  0.00  0.00    -0.391 OA
HETATM   25  H   UNK N   1      26.371  52.647  58.899  0.00  0.00     0.210 HD
ENDBRANCH  21  24
BRANCH  22  26
HETATM   26  O   UNK N   1      26.434  51.066  56.525  0.00  0.00    -0.390 OA
HETATM   27  H   UNK N   1      25.686  50.438  56.701  0.00  0.00     0.210 HD
ENDBRANCH  22  26
BRANCH  23  28
HETATM   28  O   UNK N   1      28.386  48.704  56.080  0.00  0.00    -0.390 OA
HETATM   29  H   UNK N   1      29.205  48.268  56.430  0.00  0.00     0.210 HD
ENDBRANCH  23  28
ENDBRANCH  17  18
ENDBRANCH  14  17
ENDBRANCH   3  14
BRANCH   4  30
HETATM   30  C   UNK N   1      29.965  45.292  60.917  0.00  0.00     0.038 C 
BRANCH  30  31
HETATM   31  C   UNK N   1      31.018  46.004  61.788  0.00  0.00     0.040 C 
BRANCH  31  32
HETATM   32  C   UNK N   1      31.004  45.519  63.247  0.00  0.00     0.140 C 
BRANCH  32  33
HETATM   33  O   UNK N   1      29.879  44.701  63.437  0.00  0.00    -0.392 OA
HETATM   34  H   UNK N   1      29.619  44.359  62.541  0.00  0.00     0.210 HD
ENDBRANCH  32  33
BRANCH  32  35
HETATM   35  C   UNK N   1      32.244  44.725  63.562  0.00  0.00    -0.006 C 
HETATM   36  C   UNK N   1      32.185  43.427  63.872  0.00  0.00     0.009 C 
ENDBRANCH  32  35
ENDBRANCH  31  32
ENDBRANCH  30  31
ENDBRANCH   4  30
TORSDOF 12
ENDMDL
MODEL 5
REMARK VINA RESULT:      -4.7      3.380      6.448
REMARK  12 active torsions:
REMARK  status: ('A' for Active; 'I' for Inactive)
REMARK    1  A    between atoms: O_1  and  C_7 
REMARK    2  A    between atoms: O_2  and  C_8 
REMARK    3  A    between atoms: O_4  and  C_9 
REMARK    4  A    between atoms: O_5  and  C_10 
REMARK    5  A    between atoms: O_6  and  C_12 
REMARK    6  A    between atoms: C_7  and  C_16 
REMARK    7  A    between atoms: C_7  and  C_17 
REMARK    8  A    between atoms: C_8  and  C_18 
REMARK    9  A    between atoms: C_8  and  C_19 
REMARK   10  A    between atoms: C_11  and  C_18 
REMARK   11  A    between atoms: C_17  and  C_26 
REMARK   12  A    between atoms: C_20  and  C_26 
ROOT
HETATM    1  C   UNK N   1      30.784  44.825  58.540  0.00  0.00    -0.016 C 
HETATM    2  C   UNK N   1      32.035  43.881  58.398  0.00  0.00     0.006 C 
HETATM    3  C   UNK N   1      29.521  43.180  57.049  0.00  0.00    -0.048 C 
HETATM    4  C   UNK N   1      29.475  44.117  58.075  0.00  0.00    -0.066 C 
HETATM    5  C   UNK N   1      32.165  42.770  59.531  0.00  0.00    -0.043 C 
HETATM    6  C   UNK N   1      30.779  45.394  59.996  0.00  0.00     0.014 C 
HETATM    7  C   UNK N   1      32.124  43.404  56.934  0.00  0.00     0.011 C 
HETATM    8  C   UNK N   1      30.933  46.080  57.629  0.00  0.00     0.020 C 
HETATM    9  C   UNK N   1      30.850  42.715  56.436  0.00  0.00     0.037 C 
HETATM   10  C   UNK N   1      32.062  43.470  60.915  0.00  0.00     0.009 C 
HETATM   11  C   UNK N   1      30.783  44.299  61.062  0.00  0.00     0.002 C 
HETATM   12  C   UNK N   1      33.564  42.114  59.453  0.00  0.00     0.015 C 
HETATM   13  C   UNK N   1      31.119  41.628  59.481  0.00  0.00     0.015 C 
ENDROOT
BRANCH   3  14
HETATM   14  C   UNK N   1      28.250  42.492  56.502  0.00  0.00     0.150 C 
BRANCH  14  15
HETATM   15  O   UNK N   1      27.324  43.464  56.079  0.00  0.00    -0.391 OA
HETATM   16  H   UNK N   1      27.825  44.258  55.757  0.00  0.00     0.210 HD
ENDBRANCH  14  15
BRANCH  14  17
HETATM   17  C   UNK N   1      28.570  41.480  55.370  0.00  0.00     0.071 C 
BRANCH  17  18
HETATM   18  C   UNK N   1      28.027  41.877  53.976  0.00  0.00     0.155 C 
HETATM   19  O   UNK N   1      29.084  42.415  53.207  0.00  0.00    -0.381 OA
HETATM   20  C   UNK N   1      28.619  43.037  52.004  0.00  0.00     0.202 C 
HETATM   21  C   UNK N   1      27.238  42.537  51.480  0.00  0.00     0.173 C 
HETATM   22  C   UNK N   1      27.224  41.021  51.690  0.00  0.00     0.180 C 
HETATM   23  C   UNK N   1      27.337  40.706  53.206  0.00  0.00     0.178 C 
BRANCH  21  24
HETATM   24  O   UNK N   1      27.091  42.852  50.120  0.00  0.00    -0.391 OA
HETATM   25  H   UNK N   1      27.477  43.757  49.992  0.00  0.00     0.210 HD
ENDBRANCH  21  24
BRANCH  22  26
HETATM   26  O   UNK N   1      26.065  40.422  51.170  0.00  0.00    -0.390 OA
HETATM   27  H   UNK N   1      26.362  39.695  50.564  0.00  0.00     0.210 HD
ENDBRANCH  22  26
BRANCH  23  28
HETATM   28  O   UNK N   1      28.042  39.503  53.369  0.00  0.00    -0.390 OA
HETATM   29  H   UNK N   1      27.817  39.161  54.272  0.00  0.00     0.210 HD
ENDBRANCH  23  28
ENDBRANCH  17  18
ENDBRANCH  14  17
ENDBRANCH   3  14
BRANCH   4  30
HETATM   30  C   UNK N   1      28.135  44.511  58.716  0.00  0.00     0.038 C 
BRANCH  30  31
HETATM   31  C   UNK N   1      27.694  43.517  59.808  0.00  0.00     0.040 C 
BRANCH  31  32
HETATM   32  C   UNK N   1      26.237  43.059  59.636  0.00  0.00     0.140 C 
BRANCH  32  33
HETATM   33  O   UNK N   1      25.691  43.707  58.518  0.00  0.00    -0.392 OA
HETATM   34  H   UNK N   1      24.880  44.187  58.831  0.00  0.00     0.210 HD
ENDBRANCH  32  33
BRANCH  32  35
HETATM   35  C   UNK N   1      26.162  41.570  59.423  0.00  0.00    -0.006 C 
HETATM   36  C   UNK N   1      27.235  40.786  59.566  0.00  0.00     0.009 C 
ENDBRANCH  32  35
ENDBRANCH  31  32
ENDBRANCH  30  31
ENDBRANCH   4  30
TORSDOF 12
ENDMDL
MODEL 6
REMARK VINA RESULT:      -4.7      3.218      6.621
REMARK  12 active torsions:
REMARK  status: ('A' for Active; 'I' for Inactive)
REMARK    1  A    between atoms: O_1  and  C_7 
REMARK    2  A    between atoms: O_2  and  C_8 
REMARK    3  A    between atoms: O_4  and  C_9 
REMARK    4  A    between atoms: O_5  and  C_10 
REMARK    5  A    between atoms: O_6  and  C_12 
REMARK    6  A    between atoms: C_7  and  C_16 
REMARK    7  A    between atoms: C_7  and  C_17 
REMARK    8  A    between atoms: C_8  and  C_18 
REMARK    9  A    between atoms: C_8  and  C_19 
REMARK   10  A    between atoms: C_11  and  C_18 
REMARK   11  A    between atoms: C_17  and  C_26 
REMARK   12  A    between atoms: C_20  and  C_26 
ROOT
HETATM    1  C   UNK N   1      30.679  44.892  58.563  0.00  0.00    -0.016 C 
HETATM    2  C   UNK N   1      31.818  43.810  58.472  0.00  0.00     0.006 C 
HETATM    3  C   UNK N   1      29.272  43.364  57.075  0.00  0.00    -0.048 C 
HETATM    4  C   UNK N   1      29.310  44.324  58.080  0.00  0.00    -0.066 C 
HETATM    5  C   UNK N   1      31.797  42.718  59.630  0.00  0.00    -0.043 C 
HETATM    6  C   UNK N   1      30.705  45.490  60.007  0.00  0.00     0.014 C 
HETATM    7  C   UNK N   1      31.886  43.293  57.021  0.00  0.00     0.011 C 
HETATM    8  C   UNK N   1      30.988  46.101  57.632  0.00  0.00     0.020 C 
HETATM    9  C   UNK N   1      30.554  42.740  56.504  0.00  0.00     0.037 C 
HETATM   10  C   UNK N   1      31.743  43.455  60.997  0.00  0.00     0.009 C 
HETATM   11  C   UNK N   1      30.562  44.426  61.095  0.00  0.00     0.002 C 
HETATM   12  C   UNK N   1      33.115  41.907  59.601  0.00  0.00     0.015 C 
HETATM   13  C   UNK N   1      30.631  41.699  59.577  0.00  0.00     0.015 C 
ENDROOT
BRANCH   3  14
HETATM   14  C   UNK N   1      27.945  42.811  56.510  0.00  0.00     0.150 C 
BRANCH  14  15
HETATM   15  O   UNK N   1      27.187  43.859  55.955  0.00  0.00    -0.391 OA
HETATM   16  H   UNK N   1      27.395  43.920  54.987  0.00  0.00     0.210 HD
ENDBRANCH  14  15
BRANCH  14  17
HETATM   17  C   UNK N   1      28.173  41.668  55.485  0.00  0.00     0.071 C 
BRANCH  17  18
HETATM   18  C   UNK N   1      27.720  41.994  54.043  0.00  0.00     0.155 C 
HETATM   19  O   UNK N   1      28.776  42.644  53.364  0.00  0.00    -0.381 OA
HETATM   20  C   UNK N   1      28.357  43.204  52.115  0.00  0.00     0.202 C 
HETATM   21  C   UNK N   1      27.094  42.549  51.475  0.00  0.00     0.173 C 
HETATM   22  C   UNK N   1      27.229  41.042  51.706  0.00  0.00     0.180 C 
HETATM   23  C   UNK N   1      27.237  40.750  53.231  0.00  0.00     0.178 C 
BRANCH  21  24
HETATM   24  O   UNK N   1      27.039  42.839  50.103  0.00  0.00    -0.391 OA
HETATM   25  H   UNK N   1      26.643  42.045  49.657  0.00  0.00     0.210 HD
ENDBRANCH  21  24
BRANCH  22  26
HETATM   26  O   UNK N   1      26.197  40.315  51.093  0.00  0.00    -0.390 OA
HETATM   27  H   UNK N   1      26.570  39.427  50.856  0.00  0.00     0.210 HD
ENDBRANCH  22  26
BRANCH  23  28
HETATM   28  O   UNK N   1      28.054  39.634  53.475  0.00  0.00    -0.390 OA
HETATM   29  H   UNK N   1      28.150  39.562  54.460  0.00  0.00     0.210 HD
ENDBRANCH  23  28
ENDBRANCH  17  18
ENDBRANCH  14  17
ENDBRANCH   3  14
BRANCH   4  30
HETATM   30  C   UNK N   1      28.008  44.880  58.680  0.00  0.00     0.038 C 
BRANCH  30  31
HETATM   31  C   UNK N   1      27.685  46.296  58.164  0.00  0.00     0.040 C 
BRANCH  31  32
HETATM   32  C   UNK N   1      27.427  47.295  59.303  0.00  0.00     0.140 C 
BRANCH  32  33
HETATM   33  O   UNK N   1      27.331  46.585  60.510  0.00  0.00    -0.392 OA
HETATM   34  H   UNK N   1      27.141  47.253  61.221  0.00  0.00     0.210 HD
ENDBRANCH  32  33
BRANCH  32  35
HETATM   35  C   UNK N   1      28.552  48.292  59.411  0.00  0.00    -0.006 C 
HETATM   36  C   UNK N   1      28.815  49.160  58.430  0.00  0.00     0.009 C 
ENDBRANCH  32  35
ENDBRANCH  31  32
ENDBRANCH  30  31
ENDBRANCH   4  30
TORSDOF 12
ENDMDL
MODEL 7
REMARK VINA RESULT:      -4.6      2.378      6.259
REMARK  12 active torsions:
REMARK  status: ('A' for Active; 'I' for Inactive)
REMARK    1  A    between atoms: O_1  and  C_7 
REMARK    2  A    between atoms: O_2  and  C_8 
REMARK    3  A    between atoms: O_4  and  C_9 
REMARK    4  A    between atoms: O_5  and  C_10 
REMARK    5  A    between atoms: O_6  and  C_12 
REMARK    6  A    between atoms: C_7  and  C_16 
REMARK    7  A    between atoms: C_7  and  C_17 
REMARK    8  A    between atoms: C_8  and  C_18 
REMARK    9  A    between atoms: C_8  and  C_19 
REMARK   10  A    between atoms: C_11  and  C_18 
REMARK   11  A    between atoms: C_17  and  C_26 
REMARK   12  A    between atoms: C_20  and  C_26 
ROOT
HETATM    1  C   UNK N   1      31.452  42.937  61.173  0.00  0.00    -0.016 C 
HETATM    2  C   UNK N   1      32.114  41.525  60.965  0.00  0.00     0.006 C 
HETATM    3  C   UNK N   1      31.891  43.376  58.695  0.00  0.00    -0.048 C 
HETATM    4  C   UNK N   1      31.097  43.610  59.812  0.00  0.00    -0.066 C 
HETATM    5  C   UNK N   1      31.098  40.359  60.588  0.00  0.00    -0.043 C 
HETATM    6  C   UNK N   1      30.273  42.766  62.184  0.00  0.00     0.014 C 
HETATM    7  C   UNK N   1      33.354  41.694  60.062  0.00  0.00     0.011 C 
HETATM    8  C   UNK N   1      32.439  43.912  61.881  0.00  0.00     0.020 C 
HETATM    9  C   UNK N   1      33.047  42.365  58.720  0.00  0.00     0.037 C 
HETATM   10  C   UNK N   1      29.944  40.362  61.629  0.00  0.00     0.009 C 
HETATM   11  C   UNK N   1      29.250  41.723  61.735  0.00  0.00     0.002 C 
HETATM   12  C   UNK N   1      31.814  38.992  60.703  0.00  0.00     0.015 C 
HETATM   13  C   UNK N   1      30.478  40.434  59.170  0.00  0.00     0.015 C 
ENDROOT
BRANCH   3  14
HETATM   14  C   UNK N   1      31.627  44.063  57.336  0.00  0.00     0.150 C 
BRANCH  14  15
HETATM   15  O   UNK N   1      32.603  45.050  57.101  0.00  0.00    -0.391 OA
HETATM   16  H   UNK N   1      33.422  44.810  57.607  0.00  0.00     0.210 HD
ENDBRANCH  14  15
BRANCH  14  17
HETATM   17  C   UNK N   1      31.553  43.045  56.167  0.00  0.00     0.071 C 
BRANCH  17  18
HETATM   18  C   UNK N   1      30.282  42.163  56.158  0.00  0.00     0.155 C 
HETATM   19  O   UNK N   1      29.143  42.998  56.102  0.00  0.00    -0.381 OA
HETATM   20  C   UNK N   1      27.929  42.279  56.345  0.00  0.00     0.202 C 
HETATM   21  C   UNK N   1      27.985  40.748  56.050  0.00  0.00     0.173 C 
HETATM   22  C   UNK N   1      28.802  40.588  54.767  0.00  0.00     0.180 C 
HETATM   23  C   UNK N   1      30.244  41.115  55.001  0.00  0.00     0.178 C 
BRANCH  21  24
HETATM   24  O   UNK N   1      26.688  40.238  55.881  0.00  0.00    -0.391 OA
HETATM   25  H   UNK N   1      26.697  39.702  55.046  0.00  0.00     0.210 HD
ENDBRANCH  21  24
BRANCH  22  26
HETATM   26  O   UNK N   1      28.853  39.255  54.330  0.00  0.00    -0.390 OA
HETATM   27  H   UNK N   1      27.998  39.071  53.862  0.00  0.00     0.210 HD
ENDBRANCH  22  26
BRANCH  23  28
HETATM   28  O   UNK N   1      30.728  41.661  53.801  0.00  0.00    -0.390 OA
HETATM   29  H   UNK N   1      31.567  41.177  53.586  0.00  0.00     0.210 HD
ENDBRANCH  23  28
ENDBRANCH  17  18
ENDBRANCH  14  17
ENDBRANCH   3  14
BRANCH   4  30
HETATM   30  C   UNK N   1      29.904  44.576  59.736  0.00  0.00     0.038 C 
BRANCH  30  31
HETATM   31  C   UNK N   1      30.325  46.043  59.956  0.00  0.00     0.040 C 
BRANCH  31  32
HETATM   32  C   UNK N   1      29.211  47.037  59.592  0.00  0.00     0.140 C 
BRANCH  32  33
HETATM   33  O   UNK N   1      29.436  48.237  60.285  0.00  0.00    -0.392 OA
HETATM   34  H   UNK N   1      30.034  48.789  59.715  0.00  0.00     0.210 HD
ENDBRANCH  32  33
BRANCH  32  35
HETATM   35  C   UNK N   1      29.205  47.322  58.112  0.00  0.00    -0.006 C 
HETATM   36  C   UNK N   1      30.320  47.660  57.460  0.00  0.00     0.009 C 
ENDBRANCH  32  35
ENDBRANCH  31  32
ENDBRANCH  30  31
ENDBRANCH   4  30
TORSDOF 12
ENDMDL
MODEL 8
REMARK VINA RESULT:      -4.6     20.633     23.040
REMARK  12 active torsions:
REMARK  status: ('A' for Active; 'I' for Inactive)
REMARK    1  A    between atoms: O_1  and  C_7 
REMARK    2  A    between atoms: O_2  and  C_8 
REMARK    3  A    between atoms: O_4  and  C_9 
REMARK    4  A    between atoms: O_5  and  C_10 
REMARK    5  A    between atoms: O_6  and  C_12 
REMARK    6  A    between atoms: C_7  and  C_16 
REMARK    7  A    between atoms: C_7  and  C_17 
REMARK    8  A    between atoms: C_8  and  C_18 
REMARK    9  A    between atoms: C_8  and  C_19 
REMARK   10  A    between atoms: C_11  and  C_18 
REMARK   11  A    between atoms: C_17  and  C_26 
REMARK   12  A    between atoms: C_20  and  C_26 
ROOT
HETATM    1  C   UNK N   1      50.605  55.410  57.549  0.00  0.00    -0.016 C 
HETATM    2  C   UNK N   1      50.604  55.200  59.108  0.00  0.00     0.006 C 
HETATM    3  C   UNK N   1      52.333  53.534  57.416  0.00  0.00    -0.048 C 
HETATM    4  C   UNK N   1      51.285  54.218  56.810  0.00  0.00    -0.066 C 
HETATM    5  C   UNK N   1      49.514  54.171  59.644  0.00  0.00    -0.043 C 
HETATM    6  C   UNK N   1      49.141  55.744  57.113  0.00  0.00     0.014 C 
HETATM    7  C   UNK N   1      52.059  54.986  59.573  0.00  0.00     0.011 C 
HETATM    8  C   UNK N   1      51.428  56.674  57.161  0.00  0.00     0.020 C 
HETATM    9  C   UNK N   1      52.767  53.831  58.859  0.00  0.00     0.037 C 
HETATM   10  C   UNK N   1      48.130  54.581  59.068  0.00  0.00     0.009 C 
HETATM   11  C   UNK N   1      48.134  54.676  57.539  0.00  0.00     0.002 C 
HETATM   12  C   UNK N   1      49.416  54.276  61.185  0.00  0.00     0.015 C 
HETATM   13  C   UNK N   1      49.765  52.681  59.301  0.00  0.00     0.015 C 
ENDROOT
BRANCH   3  14
HETATM   14  C   UNK N   1      53.088  52.386  56.709  0.00  0.00     0.150 C 
BRANCH  14  15
HETATM   15  O   UNK N   1      54.300  52.866  56.178  0.00  0.00    -0.391 OA
HETATM   16  H   UNK N   1      54.320  52.666  55.206  0.00  0.00     0.210 HD
ENDBRANCH  14  15
BRANCH  14  17
HETATM   17  C   UNK N   1      53.319  51.170  57.644  0.00  0.00     0.071 C 
BRANCH  17  18
HETATM   18  C   UNK N   1      53.126  49.791  56.971  0.00  0.00     0.155 C 
HETATM   19  O   UNK N   1      53.812  48.810  57.724  0.00  0.00    -0.381 OA
HETATM   20  C   UNK N   1      53.896  47.557  57.037  0.00  0.00     0.202 C 
HETATM   21  C   UNK N   1      52.803  47.311  55.951  0.00  0.00     0.173 C 
HETATM   22  C   UNK N   1      51.495  47.854  56.530  0.00  0.00     0.180 C 
HETATM   23  C   UNK N   1      51.632  49.380  56.779  0.00  0.00     0.178 C 
BRANCH  21  24
HETATM   24  O   UNK N   1      52.694  45.939  55.674  0.00  0.00    -0.391 OA
HETATM   25  H   UNK N   1      52.644  45.849  54.687  0.00  0.00     0.210 HD
ENDBRANCH  21  24
BRANCH  22  26
HETATM   26  O   UNK N   1      50.399  47.610  55.689  0.00  0.00    -0.390 OA
HETATM   27  H   UNK N   1      50.749  47.568  54.761  0.00  0.00     0.210 HD
ENDBRANCH  22  26
BRANCH  23  28
HETATM   28  O   UNK N   1      50.859  49.729  57.898  0.00  0.00    -0.390 OA
HETATM   29  H   UNK N   1      51.341  49.387  58.695  0.00  0.00     0.210 HD
ENDBRANCH  23  28
ENDBRANCH  17  18
ENDBRANCH  14  17
ENDBRANCH   3  14
BRANCH   4  30
HETATM   30  C   UNK N   1      50.829  53.851  55.389  0.00  0.00     0.038 C 
BRANCH  30  31
HETATM   31  C   UNK N   1      51.651  54.575  54.305  0.00  0.00     0.040 C 
BRANCH  31  32
HETATM   32  C   UNK N   1      50.796  54.996  53.099  0.00  0.00     0.140 C 
BRANCH  32  33
HETATM   33  O   UNK N   1      50.195  53.851  52.553  0.00  0.00    -0.392 OA
HETATM   34  H   UNK N   1      49.855  54.106  51.655  0.00  0.00     0.210 HD
ENDBRANCH  32  33
BRANCH  32  35
HETATM   35  C   UNK N   1      49.718  55.963  53.513  0.00  0.00    -0.006 C 
HETATM   36  C   UNK N   1      49.977  57.258  53.712  0.00  0.00     0.009 C 
ENDBRANCH  32  35
ENDBRANCH  31  32
ENDBRANCH  30  31
ENDBRANCH   4  30
TORSDOF 12
ENDMDL
MODEL 9
REMARK VINA RESULT:      -4.5     11.231     14.841
REMARK  12 active torsions:
REMARK  status: ('A' for Active; 'I' for Inactive)
REMARK    1  A    between atoms: O_1  and  C_7 
REMARK    2  A    between atoms: O_2  and  C_8 
REMARK    3  A    between atoms: O_4  and  C_9 
REMARK    4  A    between atoms: O_5  and  C_10 
REMARK    5  A    between atoms: O_6  and  C_12 
REMARK    6  A    between atoms: C_7  and  C_16 
REMARK    7  A    between atoms: C_7  and  C_17 
REMARK    8  A    between atoms: C_8  and  C_18 
REMARK    9  A    between atoms: C_8  and  C_19 
REMARK   10  A    between atoms: C_11  and  C_18 
REMARK   11  A    between atoms: C_17  and  C_26 
REMARK   12  A    between atoms: C_20  and  C_26 
ROOT
HETATM    1  C   UNK N   1      35.647  31.722  63.640  0.00  0.00    -0.016 C 
HETATM    2  C   UNK N   1      36.904  30.918  63.143  0.00  0.00     0.006 C 
HETATM    3  C   UNK N   1      37.268  33.270  64.864  0.00  0.00    -0.048 C 
HETATM    4  C   UNK N   1      36.047  33.113  64.217  0.00  0.00    -0.066 C 
HETATM    5  C   UNK N   1      37.491  31.394  61.742  0.00  0.00    -0.043 C 
HETATM    6  C   UNK N   1      34.600  31.734  62.479  0.00  0.00     0.014 C 
HETATM    7  C   UNK N   1      37.899  30.793  64.315  0.00  0.00     0.011 C 
HETATM    8  C   UNK N   1      34.934  30.971  64.803  0.00  0.00     0.020 C 
HETATM    9  C   UNK N   1      38.306  32.140  64.919  0.00  0.00     0.037 C 
HETATM   10  C   UNK N   1      36.328  31.434  60.712  0.00  0.00     0.009 C 
HETATM   11  C   UNK N   1      35.161  32.309  61.178  0.00  0.00     0.002 C 
HETATM   12  C   UNK N   1      38.518  30.354  61.231  0.00  0.00     0.015 C 
HETATM   13  C   UNK N   1      38.197  32.774  61.738  0.00  0.00     0.015 C 
ENDROOT
BRANCH   3  14
HETATM   14  C   UNK N   1      37.693  34.607  65.512  0.00  0.00     0.150 C 
BRANCH  14  15
HETATM   15  O   UNK N   1      37.706  34.477  66.913  0.00  0.00    -0.391 OA
HETATM   16  H   UNK N   1      37.543  33.525  67.143  0.00  0.00     0.210 HD
ENDBRANCH  14  15
BRANCH  14  17
HETATM   17  C   UNK N   1      39.059  35.113  64.975  0.00  0.00     0.071 C 
BRANCH  17  18
HETATM   18  C   UNK N   1      39.168  36.649  64.834  0.00  0.00     0.155 C 
HETATM   19  O   UNK N   1      38.879  37.248  66.082  0.00  0.00    -0.381 OA
HETATM   20  C   UNK N   1      38.710  38.665  65.980  0.00  0.00     0.202 C 
HETATM   21  C   UNK N   1      39.406  39.338  64.757  0.00  0.00     0.173 C 
HETATM   22  C   UNK N   1      40.765  38.651  64.606  0.00  0.00     0.180 C 
HETATM   23  C   UNK N   1      40.553  37.142  64.305  0.00  0.00     0.178 C 
BRANCH  21  24
HETATM   24  O   UNK N   1      39.567  40.714  64.985  0.00  0.00    -0.391 OA
HETATM   25  H   UNK N   1      38.669  41.076  65.201  0.00  0.00     0.210 HD
ENDBRANCH  21  24
BRANCH  22  26
HETATM   26  O   UNK N   1      41.544  39.228  63.591  0.00  0.00    -0.390 OA
HETATM   27  H   UNK N   1      42.479  38.933  63.740  0.00  0.00     0.210 HD
ENDBRANCH  22  26
BRANCH  23  28
HETATM   28  O   UNK N   1      41.607  36.412  64.876  0.00  0.00    -0.390 OA
HETATM   29  H   UNK N   1      42.304  36.324  64.176  0.00  0.00     0.210 HD
ENDBRANCH  23  28
ENDBRANCH  17  18
ENDBRANCH  14  17
ENDBRANCH   3  14
BRANCH   4  30
HETATM   30  C   UNK N   1      35.058  34.285  64.119  0.00  0.00     0.038 C 
BRANCH  30  31
HETATM   31  C   UNK N   1      35.602  35.440  63.256  0.00  0.00     0.040 C 
BRANCH  31  32
HETATM   32  C   UNK N   1      34.556  35.981  62.267  0.00  0.00     0.140 C 
BRANCH  32  33
HETATM   33  O   UNK N   1      34.952  35.642  60.964  0.00  0.00    -0.392 OA
HETATM   34  H   UNK N   1      34.128  35.623  60.410  0.00  0.00     0.210 HD
ENDBRANCH  32  33
BRANCH  32  35
HETATM   35  C   UNK N   1      33.199  35.384  62.537  0.00  0.00    -0.006 C 
HETATM   36  C   UNK N   1      32.076  36.000  62.160  0.00  0.00     0.009 C 
ENDBRANCH  32  35
ENDBRANCH  31  32
ENDBRANCH  30  31
ENDBRANCH   4  30
TORSDOF 12
ENDMDL
