MODEL 1
REMARK VINA RESULT:      -6.3      0.000      0.000
REMARK  12 active torsions:
REMARK  status: ('A' for Active; 'I' for Inactive)
REMARK    1  A    between atoms: O_1  and  C_7 
REMARK    2  A    between atoms: O_2  and  C_8 
REMARK    3  A    between atoms: O_4  and  C_9 
REMARK    4  A    between atoms: O_5  and  C_10 
REMARK    5  A    between atoms: O_6  and  C_12 
REMARK    6  A    between atoms: C_7  and  C_16 
REMARK    7  A    between atoms: C_7  and  C_17 
REMARK    8  A    between atoms: C_8  and  C_18 
REMARK    9  A    between atoms: C_8  and  C_19 
REMARK   10  A    between atoms: C_11  and  C_16 
REMARK   11  A    between atoms: C_19  and  C_27 
REMARK   12  A    between atoms: C_20  and  C_27 
ROOT
HETATM    1  C   UNK N   1      48.457  33.218  49.005  0.00  0.00    -0.016 C 
HETATM    2  C   UNK N   1      49.832  33.139  49.773  0.00  0.00     0.006 C 
HETATM    3  C   UNK N   1      49.676  32.306  46.959  0.00  0.00    -0.048 C 
HETATM    4  C   UNK N   1      48.496  32.398  47.682  0.00  0.00    -0.066 C 
HETATM    5  C   UNK N   1      50.091  31.781  50.557  0.00  0.00    -0.043 C 
HETATM    6  C   UNK N   1      47.324  32.822  50.002  0.00  0.00     0.014 C 
HETATM    7  C   UNK N   1      50.949  33.621  48.827  0.00  0.00     0.011 C 
HETATM    8  C   UNK N   1      48.150  34.693  48.604  0.00  0.00     0.020 C 
HETATM    9  C   UNK N   1      51.002  32.862  47.497  0.00  0.00     0.037 C 
HETATM   10  C   UNK N   1      48.854  31.486  51.450  0.00  0.00     0.009 C 
HETATM   11  C   UNK N   1      47.549  31.452  50.651  0.00  0.00     0.002 C 
HETATM   12  C   UNK N   1      51.304  31.955  51.505  0.00  0.00     0.015 C 
HETATM   13  C   UNK N   1      50.375  30.541  49.674  0.00  0.00     0.015 C 
ENDROOT
BRANCH   3  14
HETATM   14  C   UNK N   1      49.764  31.572  45.605  0.00  0.00     0.150 C 
BRANCH  14  15
HETATM   15  O   UNK N   1      49.962  30.200  45.827  0.00  0.00    -0.391 OA
HETATM   16  H   UNK N   1      49.153  29.865  46.294  0.00  0.00     0.210 HD
ENDBRANCH  14  15
BRANCH  14  17
HETATM   17  C   UNK N   1      50.915  32.120  44.731  0.00  0.00     0.071 C 
BRANCH  17  18
HETATM   18  C   UNK N   1      51.519  31.032  43.793  0.00  0.00     0.155 C 
HETATM   19  O   UNK N   1      50.522  30.196  43.205  0.00  0.00    -0.381 OA
HETATM   20  C   UNK N   1      49.743  30.877  42.230  0.00  0.00     0.202 C 
HETATM   21  C   UNK N   1      50.606  31.403  41.072  0.00  0.00     0.173 C 
HETATM   22  C   UNK N   1      51.701  32.333  41.621  0.00  0.00     0.180 C 
HETATM   23  C   UNK N   1      52.486  31.583  42.712  0.00  0.00     0.178 C 
BRANCH  21  24
HETATM   24  O   UNK N   1      49.816  32.056  40.111  0.00  0.00    -0.391 OA
HETATM   25  H   UNK N   1      50.346  32.814  39.750  0.00  0.00     0.210 HD
ENDBRANCH  21  24
BRANCH  22  26
HETATM   26  O   UNK N   1      52.549  32.771  40.588  0.00  0.00    -0.390 OA
HETATM   27  H   UNK N   1      52.207  33.645  40.264  0.00  0.00     0.210 HD
ENDBRANCH  22  26
BRANCH  23  28
HETATM   28  O   UNK N   1      53.452  32.411  43.304  0.00  0.00    -0.390 OA
HETATM   29  H   UNK N   1      53.521  33.226  42.741  0.00  0.00     0.210 HD
ENDBRANCH  23  28
ENDBRANCH  17  18
ENDBRANCH  14  17
ENDBRANCH   3  14
BRANCH   4  30
HETATM   30  C   UNK N   1      47.198  31.752  47.160  0.00  0.00     0.038 C 
BRANCH  30  31
HETATM   31  C   UNK N   1      46.580  32.546  45.997  0.00  0.00     0.040 C 
BRANCH  31  32
HETATM   32  C   UNK N   1      45.107  32.953  46.215  0.00  0.00     0.140 C 
BRANCH  32  33
HETATM   33  O   UNK N   1      44.657  33.717  45.119  0.00  0.00    -0.392 OA
HETATM   34  H   UNK N   1      44.373  33.091  44.401  0.00  0.00     0.210 HD
ENDBRANCH  32  33
BRANCH  32  35
HETATM   35  C   UNK N   1      44.893  33.675  47.537  0.00  0.00    -0.006 C 
HETATM   36  C   UNK N   1      44.110  33.210  48.519  0.00  0.00     0.009 C 
ENDBRANCH  32  35
ENDBRANCH  31  32
ENDBRANCH  30  31
ENDBRANCH   4  30
TORSDOF 12
ENDMDL
MODEL 2
REMARK VINA RESULT:      -6.0      4.344      8.147
REMARK  12 active torsions:
REMARK  status: ('A' for Active; 'I' for Inactive)
REMARK    1  A    between atoms: O_1  and  C_7 
REMARK    2  A    between atoms: O_2  and  C_8 
REMARK    3  A    between atoms: O_4  and  C_9 
REMARK    4  A    between atoms: O_5  and  C_10 
REMARK    5  A    between atoms: O_6  and  C_12 
REMARK    6  A    between atoms: C_7  and  C_16 
REMARK    7  A    between atoms: C_7  and  C_17 
REMARK    8  A    between atoms: C_8  and  C_18 
REMARK    9  A    between atoms: C_8  and  C_19 
REMARK   10  A    between atoms: C_11  and  C_16 
REMARK   11  A    between atoms: C_19  and  C_27 
REMARK   12  A    between atoms: C_20  and  C_27 
ROOT
HETATM    1  C   UNK N   1      47.595  33.001  48.490  0.00  0.00    -0.016 C 
HETATM    2  C   UNK N   1      46.124  32.734  48.991  0.00  0.00     0.006 C 
HETATM    3  C   UNK N   1      48.334  32.851  50.926  0.00  0.00    -0.048 C 
HETATM    4  C   UNK N   1      48.643  32.657  49.587  0.00  0.00    -0.066 C 
HETATM    5  C   UNK N   1      45.685  31.206  49.010  0.00  0.00    -0.043 C 
HETATM    6  C   UNK N   1      47.784  32.258  47.130  0.00  0.00     0.014 C 
HETATM    7  C   UNK N   1      45.894  33.540  50.284  0.00  0.00     0.011 C 
HETATM    8  C   UNK N   1      47.782  34.513  48.157  0.00  0.00     0.020 C 
HETATM    9  C   UNK N   1      46.924  33.256  51.382  0.00  0.00     0.037 C 
HETATM   10  C   UNK N   1      45.997  30.589  47.618  0.00  0.00     0.009 C 
HETATM   11  C   UNK N   1      47.464  30.763  47.215  0.00  0.00     0.002 C 
HETATM   12  C   UNK N   1      44.152  31.113  49.214  0.00  0.00     0.015 C 
HETATM   13  C   UNK N   1      46.346  30.331  50.103  0.00  0.00     0.015 C 
ENDROOT
BRANCH   3  14
HETATM   14  C   UNK N   1      49.351  32.599  52.058  0.00  0.00     0.150 C 
BRANCH  14  15
HETATM   15  O   UNK N   1      48.852  31.616  52.928  0.00  0.00    -0.391 OA
HETATM   16  H   UNK N   1      48.389  32.094  53.664  0.00  0.00     0.210 HD
ENDBRANCH  14  15
BRANCH  14  17
HETATM   17  C   UNK N   1      49.647  33.887  52.859  0.00  0.00     0.071 C 
BRANCH  17  18
HETATM   18  C   UNK N   1      50.608  33.633  54.059  0.00  0.00     0.155 C 
HETATM   19  O   UNK N   1      51.660  32.723  53.741  0.00  0.00    -0.381 OA
HETATM   20  C   UNK N   1      52.615  33.283  52.848  0.00  0.00     0.202 C 
HETATM   21  C   UNK N   1      53.286  34.533  53.438  0.00  0.00     0.173 C 
HETATM   22  C   UNK N   1      52.215  35.579  53.794  0.00  0.00     0.180 C 
HETATM   23  C   UNK N   1      51.170  34.922  54.713  0.00  0.00     0.178 C 
BRANCH  21  24
HETATM   24  O   UNK N   1      54.239  35.061  52.549  0.00  0.00    -0.391 OA
HETATM   25  H   UNK N   1      55.114  35.075  53.018  0.00  0.00     0.210 HD
ENDBRANCH  21  24
BRANCH  22  26
HETATM   26  O   UNK N   1      52.799  36.705  54.403  0.00  0.00    -0.390 OA
HETATM   27  H   UNK N   1      53.399  37.133  53.736  0.00  0.00     0.210 HD
ENDBRANCH  22  26
BRANCH  23  28
HETATM   28  O   UNK N   1      50.125  35.811  55.011  0.00  0.00    -0.390 OA
HETATM   29  H   UNK N   1      49.372  35.590  54.403  0.00  0.00     0.210 HD
ENDBRANCH  23  28
ENDBRANCH  17  18
ENDBRANCH  14  17
ENDBRANCH   3  14
BRANCH   4  30
HETATM   30  C   UNK N   1      50.040  32.163  49.165  0.00  0.00     0.038 C 
BRANCH  30  31
HETATM   31  C   UNK N   1      51.033  33.321  48.970  0.00  0.00     0.040 C 
BRANCH  31  32
HETATM   32  C   UNK N   1      51.984  33.150  47.766  0.00  0.00     0.140 C 
BRANCH  32  33
HETATM   33  O   UNK N   1      52.117  34.377  47.085  0.00  0.00    -0.392 OA
HETATM   34  H   UNK N   1      51.958  35.110  47.737  0.00  0.00     0.210 HD
ENDBRANCH  32  33
BRANCH  32  35
HETATM   35  C   UNK N   1      51.548  32.028  46.835  0.00  0.00    -0.006 C 
HETATM   36  C   UNK N   1      51.231  32.212  45.547  0.00  0.00     0.009 C 
ENDBRANCH  32  35
ENDBRANCH  31  32
ENDBRANCH  30  31
ENDBRANCH   4  30
TORSDOF 12
ENDMDL
MODEL 3
REMARK VINA RESULT:      -5.8      4.510      8.949
REMARK  12 active torsions:
REMARK  status: ('A' for Active; 'I' for Inactive)
REMARK    1  A    between atoms: O_1  and  C_7 
REMARK    2  A    between atoms: O_2  and  C_8 
REMARK    3  A    between atoms: O_4  and  C_9 
REMARK    4  A    between atoms: O_5  and  C_10 
REMARK    5  A    between atoms: O_6  and  C_12 
REMARK    6  A    between atoms: C_7  and  C_16 
REMARK    7  A    between atoms: C_7  and  C_17 
REMARK    8  A    between atoms: C_8  and  C_18 
REMARK    9  A    between atoms: C_8  and  C_19 
REMARK   10  A    between atoms: C_11  and  C_16 
REMARK   11  A    between atoms: C_19  and  C_27 
REMARK   12  A    between atoms: C_20  and  C_27 
ROOT
HETATM    1  C   UNK N   1      47.394  33.129  48.302  0.00  0.00    -0.016 C 
HETATM    2  C   UNK N   1      45.972  32.856  48.925  0.00  0.00     0.006 C 
HETATM    3  C   UNK N   1      48.321  33.091  50.677  0.00  0.00    -0.048 C 
HETATM    4  C   UNK N   1      48.530  32.848  49.328  0.00  0.00    -0.066 C 
HETATM    5  C   UNK N   1      45.568  31.322  49.038  0.00  0.00    -0.043 C 
HETATM    6  C   UNK N   1      47.494  32.335  46.962  0.00  0.00     0.014 C 
HETATM    7  C   UNK N   1      45.824  33.710  50.200  0.00  0.00     0.011 C 
HETATM    8  C   UNK N   1      47.523  34.629  47.897  0.00  0.00     0.020 C 
HETATM    9  C   UNK N   1      46.942  33.488  51.225  0.00  0.00     0.037 C 
HETATM   10  C   UNK N   1      45.786  30.655  47.651  0.00  0.00     0.009 C 
HETATM   11  C   UNK N   1      47.213  30.839  47.130  0.00  0.00     0.002 C 
HETATM   12  C   UNK N   1      44.058  31.210  49.363  0.00  0.00     0.015 C 
HETATM   13  C   UNK N   1      46.329  30.504  50.110  0.00  0.00     0.015 C 
ENDROOT
BRANCH   3  14
HETATM   14  C   UNK N   1      49.426  32.904  51.736  0.00  0.00     0.150 C 
BRANCH  14  15
HETATM   15  O   UNK N   1      50.049  31.659  51.551  0.00  0.00    -0.391 OA
HETATM   16  H   UNK N   1      51.025  31.832  51.495  0.00  0.00     0.210 HD
ENDBRANCH  14  15
BRANCH  14  17
HETATM   17  C   UNK N   1      48.863  32.984  53.173  0.00  0.00     0.071 C 
BRANCH  17  18
HETATM   18  C   UNK N   1      48.621  31.576  53.796  0.00  0.00     0.155 C 
HETATM   19  O   UNK N   1      49.816  30.988  54.309  0.00  0.00    -0.381 OA
HETATM   20  C   UNK N   1      50.286  31.638  55.483  0.00  0.00     0.202 C 
HETATM   21  C   UNK N   1      49.253  31.583  56.620  0.00  0.00     0.173 C 
HETATM   22  C   UNK N   1      47.932  32.219  56.153  0.00  0.00     0.180 C 
HETATM   23  C   UNK N   1      47.485  31.530  54.851  0.00  0.00     0.178 C 
BRANCH  21  24
HETATM   24  O   UNK N   1      49.742  32.215  57.777  0.00  0.00    -0.391 OA
HETATM   25  H   UNK N   1      50.723  32.063  57.810  0.00  0.00     0.210 HD
ENDBRANCH  21  24
BRANCH  22  26
HETATM   26  O   UNK N   1      46.947  32.116  57.152  0.00  0.00    -0.390 OA
HETATM   27  H   UNK N   1      46.126  32.564  56.816  0.00  0.00     0.210 HD
ENDBRANCH  22  26
BRANCH  23  28
HETATM   28  O   UNK N   1      46.321  32.122  54.337  0.00  0.00    -0.390 OA
HETATM   29  H   UNK N   1      46.271  33.040  54.710  0.00  0.00     0.210 HD
ENDBRANCH  23  28
ENDBRANCH  17  18
ENDBRANCH  14  17
ENDBRANCH   3  14
BRANCH   4  30
HETATM   30  C   UNK N   1      49.901  32.363  48.818  0.00  0.00     0.038 C 
BRANCH  30  31
HETATM   31  C   UNK N   1      50.798  33.527  48.363  0.00  0.00     0.040 C 
BRANCH  31  32
HETATM   32  C   UNK N   1      51.735  33.186  47.183  0.00  0.00     0.140 C 
BRANCH  32  33
HETATM   33  O   UNK N   1      52.193  34.375  46.581  0.00  0.00    -0.392 OA
HETATM   34  H   UNK N   1      53.095  34.579  46.947  0.00  0.00     0.210 HD
ENDBRANCH  32  33
BRANCH  32  35
HETATM   35  C   UNK N   1      51.082  32.253  46.174  0.00  0.00    -0.006 C 
HETATM   36  C   UNK N   1      51.454  32.170  44.890  0.00  0.00     0.009 C 
ENDBRANCH  32  35
ENDBRANCH  31  32
ENDBRANCH  30  31
ENDBRANCH   4  30
TORSDOF 12
ENDMDL
MODEL 4
REMARK VINA RESULT:      -5.8      2.276      4.952
REMARK  12 active torsions:
REMARK  status: ('A' for Active; 'I' for Inactive)
REMARK    1  A    between atoms: O_1  and  C_7 
REMARK    2  A    between atoms: O_2  and  C_8 
REMARK    3  A    between atoms: O_4  and  C_9 
REMARK    4  A    between atoms: O_5  and  C_10 
REMARK    5  A    between atoms: O_6  and  C_12 
REMARK    6  A    between atoms: C_7  and  C_16 
REMARK    7  A    between atoms: C_7  and  C_17 
REMARK    8  A    between atoms: C_8  and  C_18 
REMARK    9  A    between atoms: C_8  and  C_19 
REMARK   10  A    between atoms: C_11  and  C_16 
REMARK   11  A    between atoms: C_19  and  C_27 
REMARK   12  A    between atoms: C_20  and  C_27 
ROOT
HETATM    1  C   UNK N   1      47.108  32.661  50.705  0.00  0.00    -0.016 C 
HETATM    2  C   UNK N   1      45.699  32.529  50.010  0.00  0.00     0.006 C 
HETATM    3  C   UNK N   1      48.050  31.228  48.818  0.00  0.00    -0.048 C 
HETATM    4  C   UNK N   1      48.259  32.236  49.747  0.00  0.00    -0.066 C 
HETATM    5  C   UNK N   1      45.343  33.686  48.979  0.00  0.00    -0.043 C 
HETATM    6  C   UNK N   1      47.224  34.103  51.289  0.00  0.00     0.014 C 
HETATM    7  C   UNK N   1      45.533  31.079  49.513  0.00  0.00     0.011 C 
HETATM    8  C   UNK N   1      47.188  31.713  51.940  0.00  0.00     0.020 C 
HETATM    9  C   UNK N   1      46.663  30.609  48.591  0.00  0.00     0.037 C 
HETATM   10  C   UNK N   1      45.573  35.054  49.681  0.00  0.00     0.009 C 
HETATM   11  C   UNK N   1      46.991  35.195  50.241  0.00  0.00     0.002 C 
HETATM   12  C   UNK N   1      43.840  33.609  48.617  0.00  0.00     0.015 C 
HETATM   13  C   UNK N   1      46.137  33.668  47.650  0.00  0.00     0.015 C 
ENDROOT
BRANCH   3  14
HETATM   14  C   UNK N   1      49.168  30.710  47.889  0.00  0.00     0.150 C 
BRANCH  14  15
HETATM   15  O   UNK N   1      50.080  29.944  48.633  0.00  0.00    -0.391 OA
HETATM   16  H   UNK N   1      49.673  29.802  49.527  0.00  0.00     0.210 HD
ENDBRANCH  14  15
BRANCH  14  17
HETATM   17  C   UNK N   1      49.920  31.869  47.197  0.00  0.00     0.071 C 
BRANCH  17  18
HETATM   18  C   UNK N   1      51.347  31.456  46.728  0.00  0.00     0.155 C 
HETATM   19  O   UNK N   1      51.345  30.267  45.938  0.00  0.00    -0.381 OA
HETATM   20  C   UNK N   1      50.772  30.466  44.652  0.00  0.00     0.202 C 
HETATM   21  C   UNK N   1      51.538  31.524  43.842  0.00  0.00     0.173 C 
HETATM   22  C   UNK N   1      51.571  32.851  44.620  0.00  0.00     0.180 C 
HETATM   23  C   UNK N   1      52.143  32.586  46.024  0.00  0.00     0.178 C 
BRANCH  21  24
HETATM   24  O   UNK N   1      50.967  31.694  42.568  0.00  0.00    -0.391 OA
HETATM   25  H   UNK N   1      51.613  32.207  42.015  0.00  0.00     0.210 HD
ENDBRANCH  21  24
BRANCH  22  26
HETATM   26  O   UNK N   1      52.328  33.816  43.931  0.00  0.00    -0.390 OA
HETATM   27  H   UNK N   1      53.202  33.905  44.397  0.00  0.00     0.210 HD
ENDBRANCH  22  26
BRANCH  23  28
HETATM   28  O   UNK N   1      52.126  33.751  46.807  0.00  0.00    -0.390 OA
HETATM   29  H   UNK N   1      52.750  34.396  46.383  0.00  0.00     0.210 HD
ENDBRANCH  23  28
ENDBRANCH  17  18
ENDBRANCH  14  17
ENDBRANCH   3  14
BRANCH   4  30
HETATM   30  C   UNK N   1      49.640  32.903  49.890  0.00  0.00     0.038 C 
BRANCH  30  31
HETATM   31  C   UNK N   1      50.472  32.281  51.025  0.00  0.00     0.040 C 
BRANCH  31  32
HETATM   32  C   UNK N   1      51.012  33.300  52.052  0.00  0.00     0.140 C 
BRANCH  32  33
HETATM   33  O   UNK N   1      52.390  33.084  52.258  0.00  0.00    -0.392 OA
HETATM   34  H   UNK N   1      52.803  33.951  52.514  0.00  0.00     0.210 HD
ENDBRANCH  32  33
BRANCH  32  35
HETATM   35  C   UNK N   1      50.232  33.278  53.358  0.00  0.00    -0.006 C 
HETATM   36  C   UNK N   1      49.763  34.378  53.962  0.00  0.00     0.009 C 
ENDBRANCH  32  35
ENDBRANCH  31  32
ENDBRANCH  30  31
ENDBRANCH   4  30
TORSDOF 12
ENDMDL
MODEL 5
REMARK VINA RESULT:      -5.5     22.930     25.379
REMARK  12 active torsions:
REMARK  status: ('A' for Active; 'I' for Inactive)
REMARK    1  A    between atoms: O_1  and  C_7 
REMARK    2  A    between atoms: O_2  and  C_8 
REMARK    3  A    between atoms: O_4  and  C_9 
REMARK    4  A    between atoms: O_5  and  C_10 
REMARK    5  A    between atoms: O_6  and  C_12 
REMARK    6  A    between atoms: C_7  and  C_16 
REMARK    7  A    between atoms: C_7  and  C_17 
REMARK    8  A    between atoms: C_8  and  C_18 
REMARK    9  A    between atoms: C_8  and  C_19 
REMARK   10  A    between atoms: C_11  and  C_16 
REMARK   11  A    between atoms: C_19  and  C_27 
REMARK   12  A    between atoms: C_20  and  C_27 
ROOT
HETATM    1  C   UNK N   1      30.676  44.904  58.610  0.00  0.00    -0.016 C 
HETATM    2  C   UNK N   1      31.935  43.955  58.591  0.00  0.00     0.006 C 
HETATM    3  C   UNK N   1      29.475  43.153  57.197  0.00  0.00    -0.048 C 
HETATM    4  C   UNK N   1      29.390  44.154  58.154  0.00  0.00    -0.066 C 
HETATM    5  C   UNK N   1      32.031  42.936  59.808  0.00  0.00    -0.043 C 
HETATM    6  C   UNK N   1      30.595  45.571  60.018  0.00  0.00     0.014 C 
HETATM    7  C   UNK N   1      32.082  43.364  57.175  0.00  0.00     0.011 C 
HETATM    8  C   UNK N   1      30.878  46.084  57.611  0.00  0.00     0.020 C 
HETATM    9  C   UNK N   1      30.825  42.644  56.673  0.00  0.00     0.037 C 
HETATM   10  C   UNK N   1      31.864  43.735  61.131  0.00  0.00     0.009 C 
HETATM   11  C   UNK N   1      30.571  44.553  61.162  0.00  0.00     0.002 C 
HETATM   12  C   UNK N   1      33.442  42.299  59.837  0.00  0.00     0.015 C 
HETATM   13  C   UNK N   1      31.005  41.776  59.794  0.00  0.00     0.015 C 
ENDROOT
BRANCH   3  14
HETATM   14  C   UNK N   1      28.232  42.422  56.649  0.00  0.00     0.150 C 
BRANCH  14  15
HETATM   15  O   UNK N   1      28.393  41.036  56.808  0.00  0.00    -0.391 OA
HETATM   16  H   UNK N   1      29.165  40.771  56.242  0.00  0.00     0.210 HD
ENDBRANCH  14  15
BRANCH  14  17
HETATM   17  C   UNK N   1      27.992  42.740  55.156  0.00  0.00     0.071 C 
BRANCH  17  18
HETATM   18  C   UNK N   1      27.992  41.459  54.268  0.00  0.00     0.155 C 
HETATM   19  O   UNK N   1      26.731  41.222  53.643  0.00  0.00    -0.381 OA
HETATM   20  C   UNK N   1      26.443  42.165  52.618  0.00  0.00     0.202 C 
HETATM   21  C   UNK N   1      27.496  42.132  51.498  0.00  0.00     0.173 C 
HETATM   22  C   UNK N   1      28.891  42.399  52.089  0.00  0.00     0.180 C 
HETATM   23  C   UNK N   1      29.143  41.399  53.231  0.00  0.00     0.178 C 
BRANCH  21  24
HETATM   24  O   UNK N   1      27.184  43.058  50.487  0.00  0.00    -0.391 OA
HETATM   25  H   UNK N   1      26.571  42.609  49.847  0.00  0.00     0.210 HD
ENDBRANCH  21  24
BRANCH  22  26
HETATM   26  O   UNK N   1      29.881  42.303  51.094  0.00  0.00    -0.390 OA
HETATM   27  H   UNK N   1      29.801  41.407  50.672  0.00  0.00     0.210 HD
ENDBRANCH  22  26
BRANCH  23  28
HETATM   28  O   UNK N   1      30.375  41.645  53.858  0.00  0.00    -0.390 OA
HETATM   29  H   UNK N   1      30.553  42.618  53.779  0.00  0.00     0.210 HD
ENDBRANCH  23  28
ENDBRANCH  17  18
ENDBRANCH  14  17
ENDBRANCH   3  14
BRANCH   4  30
HETATM   30  C   UNK N   1      28.027  44.582  58.729  0.00  0.00     0.038 C 
BRANCH  30  31
HETATM   31  C   UNK N   1      27.155  45.302  57.686  0.00  0.00     0.040 C 
BRANCH  31  32
HETATM   32  C   UNK N   1      27.011  46.823  57.915  0.00  0.00     0.140 C 
BRANCH  32  33
HETATM   33  O   UNK N   1      27.631  47.524  56.861  0.00  0.00    -0.392 OA
HETATM   34  H   UNK N   1      27.126  47.336  56.026  0.00  0.00     0.210 HD
ENDBRANCH  32  33
BRANCH  32  35
HETATM   35  C   UNK N   1      27.539  47.258  59.274  0.00  0.00    -0.006 C 
HETATM   36  C   UNK N   1      28.299  48.345  59.463  0.00  0.00     0.009 C 
ENDBRANCH  32  35
ENDBRANCH  31  32
ENDBRANCH  30  31
ENDBRANCH   4  30
TORSDOF 12
ENDMDL
MODEL 6
REMARK VINA RESULT:      -5.4      2.023      4.568
REMARK  12 active torsions:
REMARK  status: ('A' for Active; 'I' for Inactive)
REMARK    1  A    between atoms: O_1  and  C_7 
REMARK    2  A    between atoms: O_2  and  C_8 
REMARK    3  A    between atoms: O_4  and  C_9 
REMARK    4  A    between atoms: O_5  and  C_10 
REMARK    5  A    between atoms: O_6  and  C_12 
REMARK    6  A    between atoms: C_7  and  C_16 
REMARK    7  A    between atoms: C_7  and  C_17 
REMARK    8  A    between atoms: C_8  and  C_18 
REMARK    9  A    between atoms: C_8  and  C_19 
REMARK   10  A    between atoms: C_11  and  C_16 
REMARK   11  A    between atoms: C_19  and  C_27 
REMARK   12  A    between atoms: C_20  and  C_27 
ROOT
HETATM    1  C   UNK N   1      47.201  31.675  50.353  0.00  0.00    -0.016 C 
HETATM    2  C   UNK N   1      46.121  32.677  49.793  0.00  0.00     0.006 C 
HETATM    3  C   UNK N   1      48.538  32.102  48.223  0.00  0.00    -0.048 C 
HETATM    4  C   UNK N   1      48.545  31.793  49.576  0.00  0.00    -0.066 C 
HETATM    5  C   UNK N   1      46.309  34.191  50.239  0.00  0.00    -0.043 C 
HETATM    6  C   UNK N   1      47.302  31.886  51.895  0.00  0.00     0.014 C 
HETATM    7  C   UNK N   1      45.941  32.412  48.286  0.00  0.00     0.011 C 
HETATM    8  C   UNK N   1      46.713  30.205  50.173  0.00  0.00     0.020 C 
HETATM    9  C   UNK N   1      47.247  32.487  47.486  0.00  0.00     0.037 C 
HETATM   10  C   UNK N   1      46.465  34.232  51.785  0.00  0.00     0.009 C 
HETATM   11  C   UNK N   1      47.602  33.337  52.283  0.00  0.00     0.002 C 
HETATM   12  C   UNK N   1      45.032  34.995  49.890  0.00  0.00     0.015 C 
HETATM   13  C   UNK N   1      47.507  34.935  49.598  0.00  0.00     0.015 C 
ENDROOT
BRANCH   3  14
HETATM   14  C   UNK N   1      49.827  32.163  47.379  0.00  0.00     0.150 C 
BRANCH  14  15
HETATM   15  O   UNK N   1      50.444  33.413  47.552  0.00  0.00    -0.391 OA
HETATM   16  H   UNK N   1      51.398  33.235  47.758  0.00  0.00     0.210 HD
ENDBRANCH  14  15
BRANCH  14  17
HETATM   17  C   UNK N   1      49.540  31.938  45.877  0.00  0.00     0.071 C 
BRANCH  17  18
HETATM   18  C   UNK N   1      50.544  30.942  45.222  0.00  0.00     0.155 C 
HETATM   19  O   UNK N   1      49.895  29.934  44.448  0.00  0.00    -0.381 OA
HETATM   20  C   UNK N   1      49.326  30.446  43.250  0.00  0.00     0.202 C 
HETATM   21  C   UNK N   1      50.388  31.079  42.336  0.00  0.00     0.173 C 
HETATM   22  C   UNK N   1      51.126  32.196  43.094  0.00  0.00     0.180 C 
HETATM   23  C   UNK N   1      51.679  31.619  44.410  0.00  0.00     0.178 C 
BRANCH  21  24
HETATM   24  O   UNK N   1      49.809  31.563  41.150  0.00  0.00    -0.391 OA
HETATM   25  H   UNK N   1      48.898  31.890  41.372  0.00  0.00     0.210 HD
ENDBRANCH  21  24
BRANCH  22  26
HETATM   26  O   UNK N   1      52.153  32.742  42.302  0.00  0.00    -0.390 OA
HETATM   27  H   UNK N   1      52.891  33.016  42.909  0.00  0.00     0.210 HD
ENDBRANCH  22  26
BRANCH  23  28
HETATM   28  O   UNK N   1      52.300  32.615  45.180  0.00  0.00    -0.390 OA
HETATM   29  H   UNK N   1      51.579  33.183  45.557  0.00  0.00     0.210 HD
ENDBRANCH  23  28
ENDBRANCH  17  18
ENDBRANCH  14  17
ENDBRANCH   3  14
BRANCH   4  30
HETATM   30  C   UNK N   1      49.866  31.500  50.311  0.00  0.00     0.038 C 
BRANCH  30  31
HETATM   31  C   UNK N   1      50.614  32.786  50.699  0.00  0.00     0.040 C 
BRANCH  31  32
HETATM   32  C   UNK N   1      52.150  32.636  50.763  0.00  0.00     0.140 C 
BRANCH  32  33
HETATM   33  O   UNK N   1      52.757  33.903  50.650  0.00  0.00    -0.392 OA
HETATM   34  H   UNK N   1      53.328  34.045  51.451  0.00  0.00     0.210 HD
ENDBRANCH  32  33
BRANCH  32  35
HETATM   35  C   UNK N   1      52.682  31.656  49.728  0.00  0.00    -0.006 C 
HETATM   36  C   UNK N   1      53.426  30.585  50.032  0.00  0.00     0.009 C 
ENDBRANCH  32  35
ENDBRANCH  31  32
ENDBRANCH  30  31
ENDBRANCH   4  30
TORSDOF 12
ENDMDL
MODEL 7
REMARK VINA RESULT:      -5.1     23.546     26.292
REMARK  12 active torsions:
REMARK  status: ('A' for Active; 'I' for Inactive)
REMARK    1  A    between atoms: O_1  and  C_7 
REMARK    2  A    between atoms: O_2  and  C_8 
REMARK    3  A    between atoms: O_4  and  C_9 
REMARK    4  A    between atoms: O_5  and  C_10 
REMARK    5  A    between atoms: O_6  and  C_12 
REMARK    6  A    between atoms: C_7  and  C_16 
REMARK    7  A    between atoms: C_7  and  C_17 
REMARK    8  A    between atoms: C_8  and  C_18 
REMARK    9  A    between atoms: C_8  and  C_19 
REMARK   10  A    between atoms: C_11  and  C_16 
REMARK   11  A    between atoms: C_19  and  C_27 
REMARK   12  A    between atoms: C_20  and  C_27 
ROOT
HETATM    1  C   UNK N   1      36.526  47.670  63.719  0.00  0.00    -0.016 C 
HETATM    2  C   UNK N   1      37.776  46.711  63.685  0.00  0.00     0.006 C 
HETATM    3  C   UNK N   1      35.065  45.595  63.470  0.00  0.00    -0.048 C 
HETATM    4  C   UNK N   1      35.208  46.881  63.970  0.00  0.00    -0.066 C 
HETATM    5  C   UNK N   1      38.281  46.208  65.106  0.00  0.00    -0.043 C 
HETATM    6  C   UNK N   1      36.823  48.813  64.739  0.00  0.00     0.014 C 
HETATM    7  C   UNK N   1      37.535  45.632  62.610  0.00  0.00     0.011 C 
HETATM    8  C   UNK N   1      36.359  48.385  62.343  0.00  0.00     0.020 C 
HETATM    9  C   UNK N   1      36.230  44.852  62.800  0.00  0.00     0.037 C 
HETATM   10  C   UNK N   1      38.464  47.447  66.027  0.00  0.00     0.009 C 
HETATM   11  C   UNK N   1      37.192  48.293  66.131  0.00  0.00     0.002 C 
HETATM   12  C   UNK N   1      39.673  45.547  64.954  0.00  0.00     0.015 C 
HETATM   13  C   UNK N   1      37.364  45.187  65.821  0.00  0.00     0.015 C 
ENDROOT
BRANCH   3  14
HETATM   14  C   UNK N   1      33.760  44.786  63.620  0.00  0.00     0.150 C 
BRANCH  14  15
HETATM   15  O   UNK N   1      34.029  43.577  64.282  0.00  0.00    -0.391 OA
HETATM   16  H   UNK N   1      34.486  43.812  65.132  0.00  0.00     0.210 HD
ENDBRANCH  14  15
BRANCH  14  17
HETATM   17  C   UNK N   1      33.113  44.484  62.249  0.00  0.00     0.071 C 
BRANCH  17  18
HETATM   18  C   UNK N   1      33.211  42.977  61.865  0.00  0.00     0.155 C 
HETATM   19  O   UNK N   1      31.976  42.283  62.036  0.00  0.00    -0.381 OA
HETATM   20  C   UNK N   1      30.998  42.662  61.076  0.00  0.00     0.202 C 
HETATM   21  C   UNK N   1      31.464  42.371  59.640  0.00  0.00     0.173 C 
HETATM   22  C   UNK N   1      32.789  43.102  59.365  0.00  0.00     0.180 C 
HETATM   23  C   UNK N   1      33.803  42.713  60.456  0.00  0.00     0.178 C 
BRANCH  21  24
HETATM   24  O   UNK N   1      30.477  42.735  58.706  0.00  0.00    -0.391 OA
HETATM   25  H   UNK N   1      30.436  43.727  58.684  0.00  0.00     0.210 HD
ENDBRANCH  21  24
BRANCH  22  26
HETATM   26  O   UNK N   1      33.273  42.794  58.081  0.00  0.00    -0.390 OA
HETATM   27  H   UNK N   1      33.848  43.548  57.784  0.00  0.00     0.210 HD
ENDBRANCH  22  26
BRANCH  23  28
HETATM   28  O   UNK N   1      35.011  43.410  60.299  0.00  0.00    -0.390 OA
HETATM   29  H   UNK N   1      35.155  43.528  59.324  0.00  0.00     0.210 HD
ENDBRANCH  23  28
ENDBRANCH  17  18
ENDBRANCH  14  17
ENDBRANCH   3  14
BRANCH   4  30
HETATM   30  C   UNK N   1      34.050  47.569  64.718  0.00  0.00     0.038 C 
BRANCH  30  31
HETATM   31  C   UNK N   1      33.109  48.326  63.765  0.00  0.00     0.040 C 
BRANCH  31  32
HETATM   32  C   UNK N   1      32.754  49.757  64.223  0.00  0.00     0.140 C 
BRANCH  32  33
HETATM   33  O   UNK N   1      31.577  50.186  63.577  0.00  0.00    -0.392 OA
HETATM   34  H   UNK N   1      31.161  50.897  64.132  0.00  0.00     0.210 HD
ENDBRANCH  32  33
BRANCH  32  35
HETATM   35  C   UNK N   1      33.902  50.734  64.019  0.00  0.00    -0.006 C 
HETATM   36  C   UNK N   1      34.165  51.339  62.853  0.00  0.00     0.009 C 
ENDBRANCH  32  35
ENDBRANCH  31  32
ENDBRANCH  30  31
ENDBRANCH   4  30
TORSDOF 12
ENDMDL
MODEL 8
REMARK VINA RESULT:      -5.0     21.775     24.425
REMARK  12 active torsions:
REMARK  status: ('A' for Active; 'I' for Inactive)
REMARK    1  A    between atoms: O_1  and  C_7 
REMARK    2  A    between atoms: O_2  and  C_8 
REMARK    3  A    between atoms: O_4  and  C_9 
REMARK    4  A    between atoms: O_5  and  C_10 
REMARK    5  A    between atoms: O_6  and  C_12 
REMARK    6  A    between atoms: C_7  and  C_16 
REMARK    7  A    between atoms: C_7  and  C_17 
REMARK    8  A    between atoms: C_8  and  C_18 
REMARK    9  A    between atoms: C_8  and  C_19 
REMARK   10  A    between atoms: C_11  and  C_16 
REMARK   11  A    between atoms: C_19  and  C_27 
REMARK   12  A    between atoms: C_20  and  C_27 
ROOT
HETATM    1  C   UNK N   1      28.565  40.616  57.923  0.00  0.00    -0.016 C 
HETATM    2  C   UNK N   1      28.867  42.056  58.489  0.00  0.00     0.006 C 
HETATM    3  C   UNK N   1      29.452  41.434  55.676  0.00  0.00    -0.048 C 
HETATM    4  C   UNK N   1      29.277  40.379  56.559  0.00  0.00    -0.066 C 
HETATM    5  C   UNK N   1      30.304  42.237  59.144  0.00  0.00    -0.043 C 
HETATM    6  C   UNK N   1      28.901  39.579  59.040  0.00  0.00     0.014 C 
HETATM    7  C   UNK N   1      28.448  43.095  57.430  0.00  0.00     0.011 C 
HETATM    8  C   UNK N   1      27.038  40.451  57.659  0.00  0.00     0.020 C 
HETATM    9  C   UNK N   1      29.102  42.879  56.061  0.00  0.00     0.037 C 
HETATM   10  C   UNK N   1      30.518  41.097  60.179  0.00  0.00     0.009 C 
HETATM   11  C   UNK N   1      30.334  39.707  59.565  0.00  0.00     0.002 C 
HETATM   12  C   UNK N   1      30.349  43.574  59.926  0.00  0.00     0.015 C 
HETATM   13  C   UNK N   1      31.496  42.244  58.156  0.00  0.00     0.015 C 
ENDROOT
BRANCH   3  14
HETATM   14  C   UNK N   1      30.084  41.253  54.281  0.00  0.00     0.150 C 
BRANCH  14  15
HETATM   15  O   UNK N   1      31.406  41.725  54.298  0.00  0.00    -0.391 OA
HETATM   16  H   UNK N   1      31.429  42.537  53.727  0.00  0.00     0.210 HD
ENDBRANCH  14  15
BRANCH  14  17
HETATM   17  C   UNK N   1      29.288  42.005  53.190  0.00  0.00     0.071 C 
BRANCH  17  18
HETATM   18  C   UNK N   1      27.937  41.307  52.851  0.00  0.00     0.155 C 
HETATM   19  O   UNK N   1      26.891  41.661  53.754  0.00  0.00    -0.381 OA
HETATM   20  C   UNK N   1      26.457  43.004  53.589  0.00  0.00     0.202 C 
HETATM   21  C   UNK N   1      25.913  43.260  52.173  0.00  0.00     0.173 C 
HETATM   22  C   UNK N   1      26.993  42.918  51.133  0.00  0.00     0.180 C 
HETATM   23  C   UNK N   1      27.479  41.478  51.379  0.00  0.00     0.178 C 
BRANCH  21  24
HETATM   24  O   UNK N   1      25.473  44.588  52.034  0.00  0.00    -0.391 OA
HETATM   25  H   UNK N   1      24.480  44.580  52.055  0.00  0.00     0.210 HD
ENDBRANCH  21  24
BRANCH  22  26
HETATM   26  O   UNK N   1      26.495  43.075  49.826  0.00  0.00    -0.390 OA
HETATM   27  H   UNK N   1      25.891  42.309  49.638  0.00  0.00     0.210 HD
ENDBRANCH  22  26
BRANCH  23  28
HETATM   28  O   UNK N   1      28.522  41.137  50.503  0.00  0.00    -0.390 OA
HETATM   29  H   UNK N   1      28.113  40.970  49.615  0.00  0.00     0.210 HD
ENDBRANCH  23  28
ENDBRANCH  17  18
ENDBRANCH  14  17
ENDBRANCH   3  14
BRANCH   4  30
HETATM   30  C   UNK N   1      29.722  38.953  56.181  0.00  0.00     0.038 C 
BRANCH  30  31
HETATM   31  C   UNK N   1      28.719  38.260  55.243  0.00  0.00     0.040 C 
BRANCH  31  32
HETATM   32  C   UNK N   1      29.246  36.961  54.594  0.00  0.00     0.140 C 
BRANCH  32  33
HETATM   33  O   UNK N   1      28.171  36.086  54.339  0.00  0.00    -0.392 OA
HETATM   34  H   UNK N   1      28.449  35.170  54.605  0.00  0.00     0.210 HD
ENDBRANCH  32  33
BRANCH  32  35
HETATM   35  C   UNK N   1      30.335  36.298  55.423  0.00  0.00    -0.006 C 
HETATM   36  C   UNK N   1      30.334  34.998  55.748  0.00  0.00     0.009 C 
ENDBRANCH  32  35
ENDBRANCH  31  32
ENDBRANCH  30  31
ENDBRANCH   4  30
TORSDOF 12
ENDMDL
MODEL 9
REMARK VINA RESULT:      -5.0      5.317      8.176
REMARK  12 active torsions:
REMARK  status: ('A' for Active; 'I' for Inactive)
REMARK    1  A    between atoms: O_1  and  C_7 
REMARK    2  A    between atoms: O_2  and  C_8 
REMARK    3  A    between atoms: O_4  and  C_9 
REMARK    4  A    between atoms: O_5  and  C_10 
REMARK    5  A    between atoms: O_6  and  C_12 
REMARK    6  A    between atoms: C_7  and  C_16 
REMARK    7  A    between atoms: C_7  and  C_17 
REMARK    8  A    between atoms: C_8  and  C_18 
REMARK    9  A    between atoms: C_8  and  C_19 
REMARK   10  A    between atoms: C_11  and  C_16 
REMARK   11  A    between atoms: C_19  and  C_27 
REMARK   12  A    between atoms: C_20  and  C_27 
ROOT
HETATM    1  C   UNK N   1      47.719  31.540  49.012  0.00  0.00    -0.016 C 
HETATM    2  C   UNK N   1      47.867  32.889  48.211  0.00  0.00     0.006 C 
HETATM    3  C   UNK N   1      49.739  32.265  50.390  0.00  0.00    -0.048 C 
HETATM    4  C   UNK N   1      48.541  31.568  50.334  0.00  0.00    -0.066 C 
HETATM    5  C   UNK N   1      47.018  34.108  48.778  0.00  0.00    -0.043 C 
HETATM    6  C   UNK N   1      46.196  31.243  49.180  0.00  0.00     0.014 C 
HETATM    7  C   UNK N   1      49.365  33.144  47.955  0.00  0.00     0.011 C 
HETATM    8  C   UNK N   1      48.276  30.351  48.170  0.00  0.00     0.020 C 
HETATM    9  C   UNK N   1      50.218  33.148  49.228  0.00  0.00     0.037 C 
HETATM   10  C   UNK N   1      45.547  33.640  48.956  0.00  0.00     0.009 C 
HETATM   11  C   UNK N   1      45.430  32.394  49.838  0.00  0.00     0.002 C 
HETATM   12  C   UNK N   1      47.007  35.256  47.739  0.00  0.00     0.015 C 
HETATM   13  C   UNK N   1      47.515  34.707  50.116  0.00  0.00     0.015 C 
ENDROOT
BRANCH   3  14
HETATM   14  C   UNK N   1      50.636  32.274  51.644  0.00  0.00     0.150 C 
BRANCH  14  15
HETATM   15  O   UNK N   1      50.471  31.071  52.349  0.00  0.00    -0.391 OA
HETATM   16  H   UNK N   1      49.873  30.498  51.802  0.00  0.00     0.210 HD
ENDBRANCH  14  15
BRANCH  14  17
HETATM   17  C   UNK N   1      50.306  33.462  52.576  0.00  0.00     0.071 C 
BRANCH  17  18
HETATM   18  C   UNK N   1      51.060  33.377  53.938  0.00  0.00     0.155 C 
HETATM   19  O   UNK N   1      52.285  32.650  53.846  0.00  0.00    -0.381 OA
HETATM   20  C   UNK N   1      53.284  33.353  53.119  0.00  0.00     0.202 C 
HETATM   21  C   UNK N   1      53.627  34.701  53.774  0.00  0.00     0.173 C 
HETATM   22  C   UNK N   1      52.355  35.558  53.894  0.00  0.00     0.180 C 
HETATM   23  C   UNK N   1      51.279  34.744  54.635  0.00  0.00     0.178 C 
BRANCH  21  24
HETATM   24  O   UNK N   1      54.629  35.372  53.051  0.00  0.00    -0.391 OA
HETATM   25  H   UNK N   1      54.679  34.957  52.150  0.00  0.00     0.210 HD
ENDBRANCH  21  24
BRANCH  22  26
HETATM   26  O   UNK N   1      52.630  36.769  54.557  0.00  0.00    -0.390 OA
HETATM   27  H   UNK N   1      53.542  36.700  54.947  0.00  0.00     0.210 HD
ENDBRANCH  22  26
BRANCH  23  28
HETATM   28  O   UNK N   1      50.068  35.451  54.708  0.00  0.00    -0.390 OA
HETATM   29  H   UNK N   1      49.381  34.819  55.043  0.00  0.00     0.210 HD
ENDBRANCH  23  28
ENDBRANCH  17  18
ENDBRANCH  14  17
ENDBRANCH   3  14
BRANCH   4  30
HETATM   30  C   UNK N   1      48.040  30.763  51.548  0.00  0.00     0.038 C 
BRANCH  30  31
HETATM   31  C   UNK N   1      47.060  31.570  52.418  0.00  0.00     0.040 C 
BRANCH  31  32
HETATM   32  C   UNK N   1      47.477  31.695  53.899  0.00  0.00     0.140 C 
BRANCH  32  33
HETATM   33  O   UNK N   1      46.848  30.688  54.658  0.00  0.00    -0.392 OA
HETATM   34  H   UNK N   1      45.897  30.636  54.375  0.00  0.00     0.210 HD
ENDBRANCH  32  33
BRANCH  32  35
HETATM   35  C   UNK N   1      47.209  33.083  54.464  0.00  0.00    -0.006 C 
HETATM   36  C   UNK N   1      46.895  34.144  53.709  0.00  0.00     0.009 C 
ENDBRANCH  32  35
ENDBRANCH  31  32
ENDBRANCH  30  31
ENDBRANCH   4  30
TORSDOF 12
ENDMDL
