MODEL 1
REMARK VINA RESULT:      -6.9      0.000      0.000
REMARK  1 active torsions:
REMARK  status: ('A' for Active; 'I' for Inactive)
REMARK    1  A    between atoms: O_1  and  C_3 
ROOT
HETATM    1  O   UNK N   1      45.800  33.681  46.512  0.00  0.00    -0.297 OA
HETATM    2  C   UNK N   1      49.968  34.615  53.648  0.00  0.00     0.150 C 
HETATM    3  C   UNK N   1      49.187  33.256  53.439  0.00  0.00    -0.000 C 
HETATM    4  C   UNK N   1      48.173  33.281  52.186  0.00  0.00    -0.029 C 
HETATM    5  C   UNK N   1      48.255  32.467  49.542  0.00  0.00    -0.035 C 
HETATM    6  C   UNK N   1      48.964  33.267  50.772  0.00  0.00     0.003 C 
HETATM    7  C   UNK N   1      50.331  32.181  53.314  0.00  0.00     0.019 C 
HETATM    8  C   UNK N   1      46.704  32.623  49.704  0.00  0.00     0.009 C 
HETATM    9  C   UNK N   1      46.420  32.917  47.237  0.00  0.00     0.135 C 
HETATM   10  C   UNK N   1      51.289  34.159  54.149  0.00  0.00     0.002 C 
HETATM   11  C   UNK N   1      51.484  32.869  53.970  0.00  0.00    -0.023 C 
HETATM   12  C   UNK N   1      45.768  32.293  48.466  0.00  0.00     0.017 C 
HETATM   13  C   UNK N   1      47.237  32.048  52.212  0.00  0.00     0.011 C 
HETATM   14  C   UNK N   1      48.677  33.160  48.196  0.00  0.00     0.017 C 
HETATM   15  C   UNK N   1      50.487  32.933  50.904  0.00  0.00     0.007 C 
HETATM   16  C   UNK N   1      50.715  31.779  51.879  0.00  0.00     0.010 C 
HETATM   17  C   UNK N   1      46.214  32.003  51.048  0.00  0.00     0.007 C 
HETATM   18  C   UNK N   1      48.470  32.933  54.798  0.00  0.00     0.020 C 
HETATM   19  C   UNK N   1      47.273  34.558  52.309  0.00  0.00     0.016 C 
HETATM   20  C   UNK N   1      48.684  30.968  49.455  0.00  0.00     0.016 C 
HETATM   21  C   UNK N   1      47.879  32.671  46.974  0.00  0.00     0.080 C 
HETATM   22  C   UNK N   1      44.370  32.930  48.699  0.00  0.00     0.023 C 
HETATM   23  C   UNK N   1      45.510  30.787  48.197  0.00  0.00     0.023 C 
ENDROOT
BRANCH   2  24
HETATM   24  O   UNK N   1      49.381  35.457  54.611  0.00  0.00    -0.391 OA
HETATM   25  H   UNK N   1      49.971  36.241  54.728  0.00  0.00     0.210 HD
ENDBRANCH   2  24
TORSDOF 1
ENDMDL
MODEL 2
REMARK VINA RESULT:      -6.7      2.921      6.215
REMARK  1 active torsions:
REMARK  status: ('A' for Active; 'I' for Inactive)
REMARK    1  A    between atoms: O_1  and  C_3 
ROOT
HETATM    1  O   UNK N   1      44.978  34.595  50.149  0.00  0.00    -0.297 OA
HETATM    2  C   UNK N   1      51.063  32.331  44.951  0.00  0.00     0.150 C 
HETATM    3  C   UNK N   1      50.546  31.244  45.977  0.00  0.00    -0.000 C 
HETATM    4  C   UNK N   1      49.597  31.847  47.131  0.00  0.00    -0.029 C 
HETATM    5  C   UNK N   1      46.871  32.073  47.553  0.00  0.00    -0.035 C 
HETATM    6  C   UNK N   1      48.143  32.272  46.555  0.00  0.00     0.003 C 
HETATM    7  C   UNK N   1      49.839  30.172  45.064  0.00  0.00     0.019 C 
HETATM    8  C   UNK N   1      47.368  32.329  49.016  0.00  0.00     0.009 C 
HETATM    9  C   UNK N   1      45.261  33.551  49.578  0.00  0.00     0.135 C 
HETATM   10  C   UNK N   1      51.113  31.576  43.673  0.00  0.00     0.002 C 
HETATM   11  C   UNK N   1      50.462  30.433  43.730  0.00  0.00    -0.023 C 
HETATM   12  C   UNK N   1      46.295  32.591  50.156  0.00  0.00     0.017 C 
HETATM   13  C   UNK N   1      49.369  30.806  48.254  0.00  0.00     0.011 C 
HETATM   14  C   UNK N   1      45.797  33.166  47.204  0.00  0.00     0.017 C 
HETATM   15  C   UNK N   1      47.859  31.746  45.109  0.00  0.00     0.007 C 
HETATM   16  C   UNK N   1      48.309  30.294  44.954  0.00  0.00     0.010 C 
HETATM   17  C   UNK N   1      48.480  31.312  49.419  0.00  0.00     0.007 C 
HETATM   18  C   UNK N   1      51.817  30.520  46.547  0.00  0.00     0.020 C 
HETATM   19  C   UNK N   1      50.325  33.078  47.772  0.00  0.00     0.016 C 
HETATM   20  C   UNK N   1      46.187  30.676  47.406  0.00  0.00     0.016 C 
HETATM   21  C   UNK N   1      44.656  33.260  48.234  0.00  0.00     0.080 C 
HETATM   22  C   UNK N   1      46.996  33.248  51.377  0.00  0.00     0.023 C 
HETATM   23  C   UNK N   1      45.572  31.333  50.704  0.00  0.00     0.023 C 
ENDROOT
BRANCH   2  24
HETATM   24  O   UNK N   1      52.351  32.813  45.246  0.00  0.00    -0.391 OA
HETATM   25  H   UNK N   1      52.949  32.557  44.502  0.00  0.00     0.210 HD
ENDBRANCH   2  24
TORSDOF 1
ENDMDL
MODEL 3
REMARK VINA RESULT:      -6.3      1.676      6.427
REMARK  1 active torsions:
REMARK  status: ('A' for Active; 'I' for Inactive)
REMARK    1  A    between atoms: O_1  and  C_3 
ROOT
HETATM    1  O   UNK N   1      51.328  32.881  54.889  0.00  0.00    -0.297 OA
HETATM    2  C   UNK N   1      46.674  32.275  48.023  0.00  0.00     0.150 C 
HETATM    3  C   UNK N   1      45.980  31.924  49.400  0.00  0.00    -0.000 C 
HETATM    4  C   UNK N   1      47.018  31.773  50.624  0.00  0.00    -0.029 C 
HETATM    5  C   UNK N   1      47.943  33.401  52.663  0.00  0.00    -0.035 C 
HETATM    6  C   UNK N   1      47.628  33.205  51.077  0.00  0.00     0.003 C 
HETATM    7  C   UNK N   1      44.926  33.079  49.595  0.00  0.00     0.019 C 
HETATM    8  C   UNK N   1      48.389  32.012  53.235  0.00  0.00     0.009 C 
HETATM    9  C   UNK N   1      50.149  33.094  54.642  0.00  0.00     0.135 C 
HETATM   10  C   UNK N   1      45.670  33.150  47.365  0.00  0.00     0.002 C 
HETATM   11  C   UNK N   1      44.745  33.579  48.198  0.00  0.00    -0.023 C 
HETATM   12  C   UNK N   1      49.127  31.963  54.639  0.00  0.00     0.017 C 
HETATM   13  C   UNK N   1      46.323  31.149  51.859  0.00  0.00     0.011 C 
HETATM   14  C   UNK N   1      49.150  34.397  52.805  0.00  0.00     0.017 C 
HETATM   15  C   UNK N   1      46.880  34.433  50.458  0.00  0.00     0.007 C 
HETATM   16  C   UNK N   1      45.366  34.237  50.507  0.00  0.00     0.010 C 
HETATM   17  C   UNK N   1      47.257  30.950  53.081  0.00  0.00     0.007 C 
HETATM   18  C   UNK N   1      45.127  30.629  49.160  0.00  0.00     0.020 C 
HETATM   19  C   UNK N   1      48.159  30.795  50.182  0.00  0.00     0.016 C 
HETATM   20  C   UNK N   1      46.740  34.000  53.459  0.00  0.00     0.016 C 
HETATM   21  C   UNK N   1      49.720  34.475  54.233  0.00  0.00     0.080 C 
HETATM   22  C   UNK N   1      49.855  30.598  54.786  0.00  0.00     0.023 C 
HETATM   23  C   UNK N   1      48.214  32.097  55.886  0.00  0.00     0.023 C 
ENDROOT
BRANCH   2  24
HETATM   24  O   UNK N   1      46.903  31.151  47.208  0.00  0.00    -0.391 OA
HETATM   25  H   UNK N   1      46.266  30.445  47.480  0.00  0.00     0.210 HD
ENDBRANCH   2  24
TORSDOF 1
ENDMDL
MODEL 4
REMARK VINA RESULT:      -6.2      2.333      6.132
REMARK  1 active torsions:
REMARK  status: ('A' for Active; 'I' for Inactive)
REMARK    1  A    between atoms: O_1  and  C_3 
ROOT
HETATM    1  O   UNK N   1      53.069  33.974  51.514  0.00  0.00    -0.297 OA
HETATM    2  C   UNK N   1      45.107  32.902  49.364  0.00  0.00     0.150 C 
HETATM    3  C   UNK N   1      46.205  32.463  48.314  0.00  0.00    -0.000 C 
HETATM    4  C   UNK N   1      47.687  32.980  48.678  0.00  0.00    -0.029 C 
HETATM    5  C   UNK N   1      49.915  31.917  49.932  0.00  0.00    -0.035 C 
HETATM    6  C   UNK N   1      48.308  32.184  49.947  0.00  0.00     0.003 C 
HETATM    7  C   UNK N   1      46.070  30.895  48.263  0.00  0.00     0.019 C 
HETATM    8  C   UNK N   1      50.593  33.133  49.214  0.00  0.00     0.009 C 
HETATM    9  C   UNK N   1      52.474  33.128  50.862  0.00  0.00     0.135 C 
HETATM   10  C   UNK N   1      44.175  31.746  49.365  0.00  0.00     0.002 C 
HETATM   11  C   UNK N   1      44.685  30.680  48.784  0.00  0.00    -0.023 C 
HETATM   12  C   UNK N   1      52.156  33.350  49.387  0.00  0.00     0.017 C 
HETATM   13  C   UNK N   1      48.649  32.775  47.483  0.00  0.00     0.011 C 
HETATM   14  C   UNK N   1      50.421  31.884  51.420  0.00  0.00     0.017 C 
HETATM   15  C   UNK N   1      47.492  30.912  50.354  0.00  0.00     0.007 C 
HETATM   16  C   UNK N   1      47.075  30.109  49.123  0.00  0.00     0.010 C 
HETATM   17  C   UNK N   1      50.098  33.264  47.741  0.00  0.00     0.007 C 
HETATM   18  C   UNK N   1      45.713  32.962  46.910  0.00  0.00     0.020 C 
HETATM   19  C   UNK N   1      47.615  34.518  48.966  0.00  0.00     0.016 C 
HETATM   20  C   UNK N   1      50.306  30.557  49.271  0.00  0.00     0.016 C 
HETATM   21  C   UNK N   1      51.955  31.897  51.548  0.00  0.00     0.080 C 
HETATM   22  C   UNK N   1      52.517  34.808  48.986  0.00  0.00     0.023 C 
HETATM   23  C   UNK N   1      53.064  32.434  48.526  0.00  0.00     0.023 C 
ENDROOT
BRANCH   2  24
HETATM   24  O   UNK N   1      44.399  34.058  48.986  0.00  0.00    -0.391 OA
HETATM   25  H   UNK N   1      43.964  33.876  48.117  0.00  0.00     0.210 HD
ENDBRANCH   2  24
TORSDOF 1
ENDMDL
MODEL 5
REMARK VINA RESULT:      -6.0      1.299      6.378
REMARK  1 active torsions:
REMARK  status: ('A' for Active; 'I' for Inactive)
REMARK    1  A    between atoms: O_1  and  C_3 
ROOT
HETATM    1  O   UNK N   1      52.174  34.963  53.769  0.00  0.00    -0.297 OA
HETATM    2  C   UNK N   1      46.260  33.732  48.052  0.00  0.00     0.150 C 
HETATM    3  C   UNK N   1      47.067  32.463  48.543  0.00  0.00    -0.000 C 
HETATM    4  C   UNK N   1      48.377  32.828  49.408  0.00  0.00    -0.029 C 
HETATM    5  C   UNK N   1      49.000  33.008  52.099  0.00  0.00    -0.035 C 
HETATM    6  C   UNK N   1      47.991  33.390  50.879  0.00  0.00     0.003 C 
HETATM    7  C   UNK N   1      45.995  31.620  49.332  0.00  0.00     0.019 C 
HETATM    8  C   UNK N   1      50.452  32.943  51.514  0.00  0.00     0.009 C 
HETATM    9  C   UNK N   1      51.382  34.058  53.550  0.00  0.00     0.135 C 
HETATM   10  C   UNK N   1      44.853  33.261  48.095  0.00  0.00     0.002 C 
HETATM   11  C   UNK N   1      44.710  32.143  48.776  0.00  0.00    -0.023 C 
HETATM   12  C   UNK N   1      51.683  32.980  52.514  0.00  0.00     0.017 C 
HETATM   13  C   UNK N   1      49.270  31.579  49.605  0.00  0.00     0.011 C 
HETATM   14  C   UNK N   1      48.952  34.169  53.158  0.00  0.00     0.017 C 
HETATM   15  C   UNK N   1      46.486  33.183  51.258  0.00  0.00     0.007 C 
HETATM   16  C   UNK N   1      46.006  31.788  50.861  0.00  0.00     0.010 C 
HETATM   17  C   UNK N   1      50.566  31.844  50.413  0.00  0.00     0.007 C 
HETATM   18  C   UNK N   1      47.396  31.614  47.265  0.00  0.00     0.020 C 
HETATM   19  C   UNK N   1      49.214  33.884  48.609  0.00  0.00     0.016 C 
HETATM   20  C   UNK N   1      48.607  31.686  52.831  0.00  0.00     0.016 C 
HETATM   21  C   UNK N   1      50.045  34.065  54.236  0.00  0.00     0.080 C 
HETATM   22  C   UNK N   1      52.970  33.353  51.727  0.00  0.00     0.023 C 
HETATM   23  C   UNK N   1      52.000  31.647  53.243  0.00  0.00     0.023 C 
ENDROOT
BRANCH   2  24
HETATM   24  O   UNK N   1      46.571  34.119  46.736  0.00  0.00    -0.391 OA
HETATM   25  H   UNK N   1      47.480  33.788  46.529  0.00  0.00     0.210 HD
ENDBRANCH   2  24
TORSDOF 1
ENDMDL
MODEL 6
REMARK VINA RESULT:      -5.9      2.375      5.830
REMARK  1 active torsions:
REMARK  status: ('A' for Active; 'I' for Inactive)
REMARK    1  A    between atoms: O_1  and  C_3 
ROOT
HETATM    1  O   UNK N   1      47.873  35.557  53.861  0.00  0.00    -0.297 OA
HETATM    2  C   UNK N   1      51.577  32.897  46.906  0.00  0.00     0.150 C 
HETATM    3  C   UNK N   1      50.985  31.798  47.876  0.00  0.00    -0.000 C 
HETATM    4  C   UNK N   1      50.565  32.372  49.322  0.00  0.00    -0.029 C 
HETATM    5  C   UNK N   1      48.223  33.238  50.517  0.00  0.00    -0.035 C 
HETATM    6  C   UNK N   1      49.233  33.293  49.240  0.00  0.00     0.003 C 
HETATM    7  C   UNK N   1      49.786  31.184  47.060  0.00  0.00     0.019 C 
HETATM    8  C   UNK N   1      49.092  33.026  51.803  0.00  0.00     0.009 C 
HETATM    9  C   UNK N   1      47.670  34.626  53.096  0.00  0.00     0.135 C 
HETATM   10  C   UNK N   1      51.095  32.452  45.575  0.00  0.00     0.002 C 
HETATM   11  C   UNK N   1      50.142  31.546  45.654  0.00  0.00    -0.023 C 
HETATM   12  C   UNK N   1      48.444  33.318  53.223  0.00  0.00     0.017 C 
HETATM   13  C   UNK N   1      50.274  31.216  50.310  0.00  0.00     0.011 C 
HETATM   14  C   UNK N   1      47.506  34.631  50.637  0.00  0.00     0.017 C 
HETATM   15  C   UNK N   1      48.478  33.189  47.874  0.00  0.00     0.007 C 
HETATM   16  C   UNK N   1      48.392  31.739  47.401  0.00  0.00     0.010 C 
HETATM   17  C   UNK N   1      49.880  31.681  51.735  0.00  0.00     0.007 C 
HETATM   18  C   UNK N   1      52.051  30.648  47.962  0.00  0.00     0.020 C 
HETATM   19  C   UNK N   1      51.773  33.189  49.895  0.00  0.00     0.016 C 
HETATM   20  C   UNK N   1      47.114  32.147  50.377  0.00  0.00     0.016 C 
HETATM   21  C   UNK N   1      46.718  34.808  51.948  0.00  0.00     0.080 C 
HETATM   22  C   UNK N   1      49.575  33.478  54.277  0.00  0.00     0.023 C 
HETATM   23  C   UNK N   1      47.500  32.217  53.773  0.00  0.00     0.023 C 
ENDROOT
BRANCH   2  24
HETATM   24  O   UNK N   1      52.984  32.933  46.892  0.00  0.00    -0.391 OA
HETATM   25  H   UNK N   1      53.306  32.535  47.738  0.00  0.00     0.210 HD
ENDBRANCH   2  24
TORSDOF 1
ENDMDL
MODEL 7
REMARK VINA RESULT:      -5.9      1.806      3.106
REMARK  1 active torsions:
REMARK  status: ('A' for Active; 'I' for Inactive)
REMARK    1  A    between atoms: O_1  and  C_3 
ROOT
HETATM    1  O   UNK N   1      43.697  33.160  48.023  0.00  0.00    -0.297 OA
HETATM    2  C   UNK N   1      48.248  31.297  54.729  0.00  0.00     0.150 C 
HETATM    3  C   UNK N   1      49.029  31.682  53.409  0.00  0.00    -0.000 C 
HETATM    4  C   UNK N   1      48.094  31.728  52.098  0.00  0.00    -0.029 C 
HETATM    5  C   UNK N   1      46.760  33.691  50.672  0.00  0.00    -0.035 C 
HETATM    6  C   UNK N   1      47.100  33.009  52.112  0.00  0.00     0.003 C 
HETATM    7  C   UNK N   1      49.704  33.060  53.762  0.00  0.00     0.019 C 
HETATM    8  C   UNK N   1      46.742  32.551  49.598  0.00  0.00     0.009 C 
HETATM    9  C   UNK N   1      44.759  33.570  48.467  0.00  0.00     0.135 C 
HETATM   10  C   UNK N   1      48.947  32.095  55.767  0.00  0.00     0.002 C 
HETATM   11  C   UNK N   1      49.717  33.033  55.257  0.00  0.00    -0.023 C 
HETATM   12  C   UNK N   1      46.066  32.835  48.190  0.00  0.00     0.017 C 
HETATM   13  C   UNK N   1      48.953  31.818  50.813  0.00  0.00     0.011 C 
HETATM   14  C   UNK N   1      45.317  34.310  50.750  0.00  0.00     0.017 C 
HETATM   15  C   UNK N   1      47.452  34.069  53.209  0.00  0.00     0.007 C 
HETATM   16  C   UNK N   1      48.958  34.314  53.273  0.00  0.00     0.010 C 
HETATM   17  C   UNK N   1      48.132  31.849  49.499  0.00  0.00     0.007 C 
HETATM   18  C   UNK N   1      50.218  30.666  53.275  0.00  0.00     0.020 C 
HETATM   19  C   UNK N   1      47.280  30.391  52.027  0.00  0.00     0.016 C 
HETATM   20  C   UNK N   1      47.746  34.839  50.287  0.00  0.00     0.016 C 
HETATM   21  C   UNK N   1      44.765  34.760  49.385  0.00  0.00     0.080 C 
HETATM   22  C   UNK N   1      45.767  31.482  47.484  0.00  0.00     0.023 C 
HETATM   23  C   UNK N   1      46.914  33.660  47.188  0.00  0.00     0.023 C 
ENDROOT
BRANCH   2  24
HETATM   24  O   UNK N   1      48.345  29.933  55.061  0.00  0.00    -0.391 OA
HETATM   25  H   UNK N   1      49.301  29.723  55.207  0.00  0.00     0.210 HD
ENDBRANCH   2  24
TORSDOF 1
ENDMDL
MODEL 8
REMARK VINA RESULT:      -5.8      1.588      2.747
REMARK  1 active torsions:
REMARK  status: ('A' for Active; 'I' for Inactive)
REMARK    1  A    between atoms: O_1  and  C_3 
ROOT
HETATM    1  O   UNK N   1      46.762  31.647  45.971  0.00  0.00    -0.297 OA
HETATM    2  C   UNK N   1      50.288  31.544  53.502  0.00  0.00     0.150 C 
HETATM    3  C   UNK N   1      48.929  32.338  53.351  0.00  0.00    -0.000 C 
HETATM    4  C   UNK N   1      48.481  32.561  51.819  0.00  0.00    -0.029 C 
HETATM    5  C   UNK N   1      46.771  31.306  50.041  0.00  0.00    -0.035 C 
HETATM    6  C   UNK N   1      47.974  31.183  51.133  0.00  0.00     0.003 C 
HETATM    7  C   UNK N   1      47.905  31.494  54.200  0.00  0.00     0.019 C 
HETATM    8  C   UNK N   1      46.942  32.672  49.294  0.00  0.00     0.009 C 
HETATM    9  C   UNK N   1      46.324  31.621  47.112  0.00  0.00     0.135 C 
HETATM   10  C   UNK N   1      50.070  30.758  54.743  0.00  0.00     0.002 C 
HETATM   11  C   UNK N   1      48.807  30.727  55.112  0.00  0.00    -0.023 C 
HETATM   12  C   UNK N   1      46.169  32.900  47.927  0.00  0.00     0.017 C 
HETATM   13  C   UNK N   1      47.320  33.582  51.730  0.00  0.00     0.011 C 
HETATM   14  C   UNK N   1      46.943  30.150  48.989  0.00  0.00     0.017 C 
HETATM   15  C   UNK N   1      47.742  30.019  52.152  0.00  0.00     0.007 C 
HETATM   16  C   UNK N   1      47.022  30.518  53.403  0.00  0.00     0.010 C 
HETATM   17  C   UNK N   1      46.837  33.872  50.285  0.00  0.00     0.007 C 
HETATM   18  C   UNK N   1      49.101  33.684  54.139  0.00  0.00     0.020 C 
HETATM   19  C   UNK N   1      49.697  33.162  51.034  0.00  0.00     0.016 C 
HETATM   20  C   UNK N   1      45.350  31.161  50.673  0.00  0.00     0.016 C 
HETATM   21  C   UNK N   1      46.030  30.297  47.758  0.00  0.00     0.080 C 
HETATM   22  C   UNK N   1      46.818  34.089  47.165  0.00  0.00     0.023 C 
HETATM   23  C   UNK N   1      44.662  33.246  48.053  0.00  0.00     0.023 C 
ENDROOT
BRANCH   2  24
HETATM   24  O   UNK N   1      51.407  32.377  53.682  0.00  0.00    -0.391 OA
HETATM   25  H   UNK N   1      52.056  32.173  52.964  0.00  0.00     0.210 HD
ENDBRANCH   2  24
TORSDOF 1
ENDMDL
MODEL 9
REMARK VINA RESULT:      -5.7      1.293      6.332
REMARK  1 active torsions:
REMARK  status: ('A' for Active; 'I' for Inactive)
REMARK    1  A    between atoms: O_1  and  C_3 
ROOT
HETATM    1  O   UNK N   1      49.938  35.558  54.611  0.00  0.00    -0.297 OA
HETATM    2  C   UNK N   1      48.053  32.693  47.034  0.00  0.00     0.150 C 
HETATM    3  C   UNK N   1      48.089  31.643  48.216  0.00  0.00    -0.000 C 
HETATM    4  C   UNK N   1      48.751  32.218  49.568  0.00  0.00    -0.029 C 
HETATM    5  C   UNK N   1      47.818  33.323  51.929  0.00  0.00    -0.035 C 
HETATM    6  C   UNK N   1      47.787  33.296  50.300  0.00  0.00     0.003 C 
HETATM    7  C   UNK N   1      46.583  31.208  48.377  0.00  0.00     0.019 C 
HETATM    8  C   UNK N   1      49.274  32.965  52.383  0.00  0.00     0.009 C 
HETATM    9  C   UNK N   1      49.191  34.684  54.197  0.00  0.00     0.135 C 
HETATM   10  C   UNK N   1      46.788  32.354  46.335  0.00  0.00     0.002 C 
HETATM   11  C   UNK N   1      46.006  31.570  47.046  0.00  0.00    -0.023 C 
HETATM   12  C   UNK N   1      49.712  33.288  53.874  0.00  0.00     0.017 C 
HETATM   13  C   UNK N   1      49.022  31.074  50.576  0.00  0.00     0.011 C 
HETATM   14  C   UNK N   1      47.506  34.789  52.402  0.00  0.00     0.017 C 
HETATM   15  C   UNK N   1      46.330  33.331  49.728  0.00  0.00     0.007 C 
HETATM   16  C   UNK N   1      45.798  31.918  49.493  0.00  0.00     0.010 C 
HETATM   17  C   UNK N   1      49.678  31.537  51.902  0.00  0.00     0.007 C 
HETATM   18  C   UNK N   1      48.826  30.370  47.669  0.00  0.00     0.020 C 
HETATM   19  C   UNK N   1      50.132  32.861  49.204  0.00  0.00     0.016 C 
HETATM   20  C   UNK N   1      46.755  32.382  52.580  0.00  0.00     0.016 C 
HETATM   21  C   UNK N   1      47.755  35.018  53.903  0.00  0.00     0.080 C 
HETATM   22  C   UNK N   1      51.264  33.273  53.964  0.00  0.00     0.023 C 
HETATM   23  C   UNK N   1      49.213  32.293  54.955  0.00  0.00     0.023 C 
ENDROOT
BRANCH   2  24
HETATM   24  O   UNK N   1      49.123  32.558  46.131  0.00  0.00    -0.391 OA
HETATM   25  H   UNK N   1      49.775  31.926  46.525  0.00  0.00     0.210 HD
ENDBRANCH   2  24
TORSDOF 1
ENDMDL
