MODEL 1
REMARK VINA RESULT:      -5.4      0.000      0.000
REMARK  18 active torsions:
REMARK  status: ('A' for Active; 'I' for Inactive)
REMARK    1  A    between atoms: O_2  and  C_4 
REMARK    2  A    between atoms: O_3  and  C_5 
REMARK    3  A    between atoms: C_4  and  C_14 
REMARK    4  A    between atoms: C_5  and  C_15 
REMARK    5  A    between atoms: C_6  and  C_7 
REMARK    6  A    between atoms: C_6  and  C_8 
REMARK    7  A    between atoms: C_7  and  C_9 
REMARK    8  A    between atoms: C_8  and  C_10 
REMARK    9  A    between atoms: C_9  and  C_11 
REMARK   10  A    between atoms: C_10  and  C_12 
REMARK   11  A    between atoms: C_12  and  C_15 
REMARK   12  A    between atoms: C_13  and  C_16 
REMARK   13  A    between atoms: C_14  and  C_17 
REMARK   14  A    between atoms: C_16  and  C_18 
REMARK   15  A    between atoms: C_17  and  C_19 
REMARK   16  A    between atoms: C_18  and  C_20 
REMARK   17  A    between atoms: C_19  and  C_21 
REMARK   18  A    between atoms: C_20  and  C_21 
ROOT
HETATM    1  C   UNK N   1      39.382  48.580  44.845  0.00  0.00    -0.014 C 
HETATM    2  C   UNK N   1      39.162  49.262  43.882  0.00  0.00    -0.092 C 
ENDROOT
BRANCH   2   3
HETATM    3  C   UNK N   1      38.899  50.095  42.722  0.00  0.00     0.095 C 
BRANCH   3   4
HETATM    4  C   UNK N   1      37.636  49.689  41.987  0.00  0.00     0.012 C 
BRANCH   4   5
HETATM    5  C   UNK N   1      36.454  49.286  42.873  0.00  0.00     0.001 C 
BRANCH   5   6
HETATM    6  C   UNK N   1      35.541  50.444  43.317  0.00  0.00     0.000 C 
BRANCH   6   7
HETATM    7  C   UNK N   1      34.041  50.122  43.359  0.00  0.00     0.001 C 
BRANCH   7   8
HETATM    8  C   UNK N   1      33.130  51.269  43.835  0.00  0.00     0.010 C 
BRANCH   8   9
HETATM    9  C   UNK N   1      33.781  52.262  44.790  0.00  0.00     0.110 C 
BRANCH   9  10
HETATM   10  C   UNK N   1      33.398  53.681  44.494  0.00  0.00     0.139 C 
HETATM   11  O   UNK N   1      34.072  54.660  44.782  0.00  0.00    -0.650 OA
BRANCH  10  12
HETATM   12  O   UNK N   1      32.193  53.744  43.877  0.00  0.00    -0.776 OA
HETATM   13  H   UNK N   1      31.581  54.361  44.330  0.00  0.00     0.167 HD
ENDBRANCH  10  12
ENDBRANCH   9  10
ENDBRANCH   8   9
ENDBRANCH   7   8
ENDBRANCH   6   7
ENDBRANCH   5   6
ENDBRANCH   4   5
ENDBRANCH   3   4
ENDBRANCH   2   3
BRANCH   1  14
HETATM   14  C   UNK N   1      39.639  47.797  45.951  0.00  0.00    -0.001 C 
BRANCH  14  15
HETATM   15  C   UNK N   1      39.861  47.112  46.911  0.00  0.00    -0.000 C 
BRANCH  15  16
HETATM   16  C   UNK N   1      40.117  46.322  48.012  0.00  0.00    -0.000 C 
BRANCH  16  17
HETATM   17  C   UNK N   1      40.337  45.632  48.972  0.00  0.00    -0.001 C 
BRANCH  17  18
HETATM   18  C   UNK N   1      40.588  44.847  50.079  0.00  0.00    -0.014 C 
BRANCH  18  19
HETATM   19  C   UNK N   1      40.807  44.171  51.046  0.00  0.00    -0.090 C 
BRANCH  19  20
HETATM   20  C   UNK N   1      41.072  43.341  52.220  0.00  0.00     0.121 C 
BRANCH  20  21
HETATM   21  C   UNK N   1      41.390  44.184  53.451  0.00  0.00     0.176 C 
BRANCH  21  22
HETATM   22  O   UNK N   1      42.338  45.195  53.144  0.00  0.00    -0.400 OA
HETATM   23  H   UNK N   1      41.844  45.980  52.845  0.00  0.00     0.209 HD
ENDBRANCH  21  22
ENDBRANCH  20  21
ENDBRANCH  19  20
ENDBRANCH  18  19
ENDBRANCH  17  18
ENDBRANCH  16  17
ENDBRANCH  15  16
ENDBRANCH  14  15
ENDBRANCH   1  14
TORSDOF 18
ENDMDL
MODEL 2
REMARK VINA RESULT:      -5.4      2.304      2.842
REMARK  18 active torsions:
REMARK  status: ('A' for Active; 'I' for Inactive)
REMARK    1  A    between atoms: O_2  and  C_4 
REMARK    2  A    between atoms: O_3  and  C_5 
REMARK    3  A    between atoms: C_4  and  C_14 
REMARK    4  A    between atoms: C_5  and  C_15 
REMARK    5  A    between atoms: C_6  and  C_7 
REMARK    6  A    between atoms: C_6  and  C_8 
REMARK    7  A    between atoms: C_7  and  C_9 
REMARK    8  A    between atoms: C_8  and  C_10 
REMARK    9  A    between atoms: C_9  and  C_11 
REMARK   10  A    between atoms: C_10  and  C_12 
REMARK   11  A    between atoms: C_12  and  C_15 
REMARK   12  A    between atoms: C_13  and  C_16 
REMARK   13  A    between atoms: C_14  and  C_17 
REMARK   14  A    between atoms: C_16  and  C_18 
REMARK   15  A    between atoms: C_17  and  C_19 
REMARK   16  A    between atoms: C_18  and  C_20 
REMARK   17  A    between atoms: C_19  and  C_21 
REMARK   18  A    between atoms: C_20  and  C_21 
ROOT
HETATM    1  C   UNK N   1      39.295  48.593  44.814  0.00  0.00    -0.014 C 
HETATM    2  C   UNK N   1      39.033  49.272  43.861  0.00  0.00    -0.092 C 
ENDROOT
BRANCH   2   3
HETATM    3  C   UNK N   1      38.709  50.099  42.711  0.00  0.00     0.095 C 
BRANCH   3   4
HETATM    4  C   UNK N   1      37.400  49.701  42.057  0.00  0.00     0.012 C 
BRANCH   4   5
HETATM    5  C   UNK N   1      36.261  49.343  43.016  0.00  0.00     0.001 C 
BRANCH   5   6
HETATM    6  C   UNK N   1      35.189  50.434  43.199  0.00  0.00     0.000 C 
BRANCH   6   7
HETATM    7  C   UNK N   1      33.817  49.936  43.674  0.00  0.00     0.001 C 
BRANCH   7   8
HETATM    8  C   UNK N   1      32.641  50.231  42.725  0.00  0.00     0.010 C 
BRANCH   8   9
HETATM    9  C   UNK N   1      31.856  49.010  42.263  0.00  0.00     0.110 C 
BRANCH   9  10
HETATM   10  C   UNK N   1      30.963  49.308  41.096  0.00  0.00     0.139 C 
HETATM   11  O   UNK N   1      30.516  50.413  40.823  0.00  0.00    -0.650 OA
BRANCH  10  12
HETATM   12  O   UNK N   1      30.696  48.185  40.387  0.00  0.00    -0.776 OA
HETATM   13  H   UNK N   1      30.771  48.334  39.421  0.00  0.00     0.167 HD
ENDBRANCH  10  12
ENDBRANCH   9  10
ENDBRANCH   8   9
ENDBRANCH   7   8
ENDBRANCH   6   7
ENDBRANCH   5   6
ENDBRANCH   4   5
ENDBRANCH   3   4
ENDBRANCH   2   3
BRANCH   1  14
HETATM   14  C   UNK N   1      39.596  47.815  45.913  0.00  0.00    -0.001 C 
BRANCH  14  15
HETATM   15  C   UNK N   1      39.858  47.135  46.867  0.00  0.00    -0.000 C 
BRANCH  15  16
HETATM   16  C   UNK N   1      40.156  46.354  47.964  0.00  0.00    -0.000 C 
BRANCH  16  17
HETATM   17  C   UNK N   1      40.414  45.676  48.923  0.00  0.00    -0.001 C 
BRANCH  17  18
HETATM   18  C   UNK N   1      40.700  44.893  50.023  0.00  0.00    -0.014 C 
BRANCH  18  19
HETATM   19  C   UNK N   1      40.942  44.211  50.980  0.00  0.00    -0.090 C 
BRANCH  19  20
HETATM   20  C   UNK N   1      41.244  43.384  52.146  0.00  0.00     0.121 C 
BRANCH  20  21
HETATM   21  C   UNK N   1      40.269  43.640  53.292  0.00  0.00     0.176 C 
BRANCH  21  22
HETATM   22  O   UNK N   1      39.051  42.939  53.089  0.00  0.00    -0.400 OA
HETATM   23  H   UNK N   1      39.203  42.009  53.333  0.00  0.00     0.209 HD
ENDBRANCH  21  22
ENDBRANCH  20  21
ENDBRANCH  19  20
ENDBRANCH  18  19
ENDBRANCH  17  18
ENDBRANCH  16  17
ENDBRANCH  15  16
ENDBRANCH  14  15
ENDBRANCH   1  14
TORSDOF 18
ENDMDL
MODEL 3
REMARK VINA RESULT:      -5.2      3.882     10.319
REMARK  18 active torsions:
REMARK  status: ('A' for Active; 'I' for Inactive)
REMARK    1  A    between atoms: O_2  and  C_4 
REMARK    2  A    between atoms: O_3  and  C_5 
REMARK    3  A    between atoms: C_4  and  C_14 
REMARK    4  A    between atoms: C_5  and  C_15 
REMARK    5  A    between atoms: C_6  and  C_7 
REMARK    6  A    between atoms: C_6  and  C_8 
REMARK    7  A    between atoms: C_7  and  C_9 
REMARK    8  A    between atoms: C_8  and  C_10 
REMARK    9  A    between atoms: C_9  and  C_11 
REMARK   10  A    between atoms: C_10  and  C_12 
REMARK   11  A    between atoms: C_12  and  C_15 
REMARK   12  A    between atoms: C_13  and  C_16 
REMARK   13  A    between atoms: C_14  and  C_17 
REMARK   14  A    between atoms: C_16  and  C_18 
REMARK   15  A    between atoms: C_17  and  C_19 
REMARK   16  A    between atoms: C_18  and  C_20 
REMARK   17  A    between atoms: C_19  and  C_21 
REMARK   18  A    between atoms: C_20  and  C_21 
ROOT
HETATM    1  C   UNK N   1      39.728  44.622  49.679  0.00  0.00    -0.014 C 
HETATM    2  C   UNK N   1      39.863  43.898  50.626  0.00  0.00    -0.092 C 
ENDROOT
BRANCH   2   3
HETATM    3  C   UNK N   1      40.025  43.013  51.766  0.00  0.00     0.095 C 
BRANCH   3   4
HETATM    4  C   UNK N   1      39.969  43.753  53.089  0.00  0.00     0.012 C 
BRANCH   4   5
HETATM    5  C   UNK N   1      41.214  44.571  53.445  0.00  0.00     0.001 C 
BRANCH   5   6
HETATM    6  C   UNK N   1      42.246  44.725  52.312  0.00  0.00     0.000 C 
BRANCH   6   7
HETATM    7  C   UNK N   1      42.304  46.111  51.656  0.00  0.00     0.001 C 
BRANCH   7   8
HETATM    8  C   UNK N   1      42.796  46.133  50.197  0.00  0.00     0.010 C 
BRANCH   8   9
HETATM    9  C   UNK N   1      42.554  47.438  49.449  0.00  0.00     0.110 C 
BRANCH   9  10
HETATM   10  C   UNK N   1      42.802  47.311  47.976  0.00  0.00     0.139 C 
HETATM   11  O   UNK N   1      43.043  48.247  47.226  0.00  0.00    -0.650 OA
BRANCH  10  12
HETATM   12  O   UNK N   1      42.708  46.021  47.573  0.00  0.00    -0.776 OA
HETATM   13  H   UNK N   1      43.395  45.791  46.914  0.00  0.00     0.167 HD
ENDBRANCH  10  12
ENDBRANCH   9  10
ENDBRANCH   8   9
ENDBRANCH   7   8
ENDBRANCH   6   7
ENDBRANCH   5   6
ENDBRANCH   4   5
ENDBRANCH   3   4
ENDBRANCH   2   3
BRANCH   1  14
HETATM   14  C   UNK N   1      39.576  45.454  48.588  0.00  0.00    -0.001 C 
BRANCH  14  15
HETATM   15  C   UNK N   1      39.446  46.175  47.637  0.00  0.00    -0.000 C 
BRANCH  15  16
HETATM   16  C   UNK N   1      39.297  47.006  46.547  0.00  0.00    -0.000 C 
BRANCH  16  17
HETATM   17  C   UNK N   1      39.170  47.730  45.596  0.00  0.00    -0.001 C 
BRANCH  17  18
HETATM   18  C   UNK N   1      39.032  48.564  44.505  0.00  0.00    -0.014 C 
BRANCH  18  19
HETATM   19  C   UNK N   1      38.906  49.284  43.553  0.00  0.00    -0.090 C 
BRANCH  19  20
HETATM   20  C   UNK N   1      38.759  50.168  42.398  0.00  0.00     0.121 C 
BRANCH  20  21
HETATM   21  C   UNK N   1      39.640  51.407  42.516  0.00  0.00     0.176 C 
BRANCH  21  22
HETATM   22  O   UNK N   1      40.280  51.458  43.783  0.00  0.00    -0.400 OA
HETATM   23  H   UNK N   1      41.117  51.943  43.670  0.00  0.00     0.209 HD
ENDBRANCH  21  22
ENDBRANCH  20  21
ENDBRANCH  19  20
ENDBRANCH  18  19
ENDBRANCH  17  18
ENDBRANCH  16  17
ENDBRANCH  15  16
ENDBRANCH  14  15
ENDBRANCH   1  14
TORSDOF 18
ENDMDL
MODEL 4
REMARK VINA RESULT:      -5.2      3.854     10.185
REMARK  18 active torsions:
REMARK  status: ('A' for Active; 'I' for Inactive)
REMARK    1  A    between atoms: O_2  and  C_4 
REMARK    2  A    between atoms: O_3  and  C_5 
REMARK    3  A    between atoms: C_4  and  C_14 
REMARK    4  A    between atoms: C_5  and  C_15 
REMARK    5  A    between atoms: C_6  and  C_7 
REMARK    6  A    between atoms: C_6  and  C_8 
REMARK    7  A    between atoms: C_7  and  C_9 
REMARK    8  A    between atoms: C_8  and  C_10 
REMARK    9  A    between atoms: C_9  and  C_11 
REMARK   10  A    between atoms: C_10  and  C_12 
REMARK   11  A    between atoms: C_12  and  C_15 
REMARK   12  A    between atoms: C_13  and  C_16 
REMARK   13  A    between atoms: C_14  and  C_17 
REMARK   14  A    between atoms: C_16  and  C_18 
REMARK   15  A    between atoms: C_17  and  C_19 
REMARK   16  A    between atoms: C_18  and  C_20 
REMARK   17  A    between atoms: C_19  and  C_21 
REMARK   18  A    between atoms: C_20  and  C_21 
ROOT
HETATM    1  C   UNK N   1      41.879  46.671  49.722  0.00  0.00    -0.014 C 
HETATM    2  C   UNK N   1      42.250  46.146  50.736  0.00  0.00    -0.092 C 
ENDROOT
BRANCH   2   3
HETATM    3  C   UNK N   1      42.694  45.504  51.960  0.00  0.00     0.095 C 
BRANCH   3   4
HETATM    4  C   UNK N   1      41.626  44.621  52.575  0.00  0.00     0.012 C 
BRANCH   4   5
HETATM    5  C   UNK N   1      41.340  43.312  51.834  0.00  0.00     0.001 C 
BRANCH   5   6
HETATM    6  C   UNK N   1      40.367  43.429  50.645  0.00  0.00     0.000 C 
BRANCH   6   7
HETATM    7  C   UNK N   1      40.952  43.058  49.276  0.00  0.00     0.001 C 
BRANCH   7   8
HETATM    8  C   UNK N   1      40.502  43.946  48.101  0.00  0.00     0.010 C 
BRANCH   8   9
HETATM    9  C   UNK N   1      41.494  44.053  46.950  0.00  0.00     0.110 C 
BRANCH   9  10
HETATM   10  C   UNK N   1      40.874  44.618  45.707  0.00  0.00     0.139 C 
HETATM   11  O   UNK N   1      41.474  45.269  44.862  0.00  0.00    -0.650 OA
BRANCH  10  12
HETATM   12  O   UNK N   1      39.552  44.331  45.646  0.00  0.00    -0.776 OA
HETATM   13  H   UNK N   1      39.313  43.879  44.810  0.00  0.00     0.167 HD
ENDBRANCH  10  12
ENDBRANCH   9  10
ENDBRANCH   8   9
ENDBRANCH   7   8
ENDBRANCH   6   7
ENDBRANCH   5   6
ENDBRANCH   4   5
ENDBRANCH   3   4
ENDBRANCH   2   3
BRANCH   1  14
HETATM   14  C   UNK N   1      41.452  47.271  48.555  0.00  0.00    -0.001 C 
BRANCH  14  15
HETATM   15  C   UNK N   1      41.083  47.796  47.541  0.00  0.00    -0.000 C 
BRANCH  15  16
HETATM   16  C   UNK N   1      40.655  48.399  46.377  0.00  0.00    -0.000 C 
BRANCH  16  17
HETATM   17  C   UNK N   1      40.279  48.923  45.363  0.00  0.00    -0.001 C 
BRANCH  17  18
HETATM   18  C   UNK N   1      39.856  49.522  44.193  0.00  0.00    -0.014 C 
BRANCH  18  19
HETATM   19  C   UNK N   1      39.493  50.037  43.172  0.00  0.00    -0.090 C 
BRANCH  19  20
HETATM   20  C   UNK N   1      39.043  50.666  41.932  0.00  0.00     0.121 C 
BRANCH  20  21
HETATM   21  C   UNK N   1      37.626  50.239  41.562  0.00  0.00     0.176 C 
BRANCH  21  22
HETATM   22  O   UNK N   1      37.401  48.878  41.897  0.00  0.00    -0.400 OA
HETATM   23  H   UNK N   1      36.507  48.643  41.588  0.00  0.00     0.209 HD
ENDBRANCH  21  22
ENDBRANCH  20  21
ENDBRANCH  19  20
ENDBRANCH  18  19
ENDBRANCH  17  18
ENDBRANCH  16  17
ENDBRANCH  15  16
ENDBRANCH  14  15
ENDBRANCH   1  14
TORSDOF 18
ENDMDL
MODEL 5
REMARK VINA RESULT:      -4.4      4.099     11.223
REMARK  18 active torsions:
REMARK  status: ('A' for Active; 'I' for Inactive)
REMARK    1  A    between atoms: O_2  and  C_4 
REMARK    2  A    between atoms: O_3  and  C_5 
REMARK    3  A    between atoms: C_4  and  C_14 
REMARK    4  A    between atoms: C_5  and  C_15 
REMARK    5  A    between atoms: C_6  and  C_7 
REMARK    6  A    between atoms: C_6  and  C_8 
REMARK    7  A    between atoms: C_7  and  C_9 
REMARK    8  A    between atoms: C_8  and  C_10 
REMARK    9  A    between atoms: C_9  and  C_11 
REMARK   10  A    between atoms: C_10  and  C_12 
REMARK   11  A    between atoms: C_12  and  C_15 
REMARK   12  A    between atoms: C_13  and  C_16 
REMARK   13  A    between atoms: C_14  and  C_17 
REMARK   14  A    between atoms: C_16  and  C_18 
REMARK   15  A    between atoms: C_17  and  C_19 
REMARK   16  A    between atoms: C_18  and  C_20 
REMARK   17  A    between atoms: C_19  and  C_21 
REMARK   18  A    between atoms: C_20  and  C_21 
ROOT
HETATM    1  C   UNK N   1      39.641  45.486  47.975  0.00  0.00    -0.014 C 
HETATM    2  C   UNK N   1      39.620  44.586  48.768  0.00  0.00    -0.092 C 
ENDROOT
BRANCH   2   3
HETATM    3  C   UNK N   1      39.588  43.501  49.733  0.00  0.00     0.095 C 
BRANCH   3   4
HETATM    4  C   UNK N   1      40.975  43.043  50.140  0.00  0.00     0.012 C 
BRANCH   4   5
HETATM    5  C   UNK N   1      42.131  43.931  49.673  0.00  0.00     0.001 C 
BRANCH   5   6
HETATM    6  C   UNK N   1      42.490  45.094  50.618  0.00  0.00     0.000 C 
BRANCH   6   7
HETATM    7  C   UNK N   1      41.498  45.345  51.762  0.00  0.00     0.001 C 
BRANCH   7   8
HETATM    8  C   UNK N   1      41.953  44.863  53.151  0.00  0.00     0.010 C 
BRANCH   8   9
HETATM    9  C   UNK N   1      41.444  43.487  53.561  0.00  0.00     0.110 C 
BRANCH   9  10
HETATM   10  C   UNK N   1      39.948  43.430  53.649  0.00  0.00     0.139 C 
HETATM   11  O   UNK N   1      39.263  42.492  53.265  0.00  0.00    -0.650 OA
BRANCH  10  12
HETATM   12  O   UNK N   1      39.447  44.563  54.196  0.00  0.00    -0.776 OA
HETATM   13  H   UNK N   1      38.927  45.084  53.549  0.00  0.00     0.167 HD
ENDBRANCH  10  12
ENDBRANCH   9  10
ENDBRANCH   8   9
ENDBRANCH   7   8
ENDBRANCH   6   7
ENDBRANCH   5   6
ENDBRANCH   4   5
ENDBRANCH   3   4
ENDBRANCH   2   3
BRANCH   1  14
HETATM   14  C   UNK N   1      39.662  46.521  47.062  0.00  0.00    -0.001 C 
BRANCH  14  15
HETATM   15  C   UNK N   1      39.677  47.420  46.268  0.00  0.00    -0.000 C 
BRANCH  15  16
HETATM   16  C   UNK N   1      39.698  48.453  45.354  0.00  0.00    -0.000 C 
BRANCH  16  17
HETATM   17  C   UNK N   1      39.713  49.353  44.558  0.00  0.00    -0.001 C 
BRANCH  17  18
HETATM   18  C   UNK N   1      39.741  50.387  43.643  0.00  0.00    -0.014 C 
BRANCH  18  19
HETATM   19  C   UNK N   1      39.759  51.289  42.853  0.00  0.00    -0.090 C 
BRANCH  19  20
HETATM   20  C   UNK N   1      39.777  52.394  41.896  0.00  0.00     0.121 C 
BRANCH  20  21
HETATM   21  C   UNK N   1      39.692  53.749  42.593  0.00  0.00     0.176 C 
BRANCH  21  22
HETATM   22  O   UNK N   1      40.977  54.344  42.703  0.00  0.00    -0.400 OA
HETATM   23  H   UNK N   1      41.430  54.225  41.849  0.00  0.00     0.209 HD
ENDBRANCH  21  22
ENDBRANCH  20  21
ENDBRANCH  19  20
ENDBRANCH  18  19
ENDBRANCH  17  18
ENDBRANCH  16  17
ENDBRANCH  15  16
ENDBRANCH  14  15
ENDBRANCH   1  14
TORSDOF 18
ENDMDL
MODEL 6
REMARK VINA RESULT:      -4.3      4.424     11.265
REMARK  18 active torsions:
REMARK  status: ('A' for Active; 'I' for Inactive)
REMARK    1  A    between atoms: O_2  and  C_4 
REMARK    2  A    between atoms: O_3  and  C_5 
REMARK    3  A    between atoms: C_4  and  C_14 
REMARK    4  A    between atoms: C_5  and  C_15 
REMARK    5  A    between atoms: C_6  and  C_7 
REMARK    6  A    between atoms: C_6  and  C_8 
REMARK    7  A    between atoms: C_7  and  C_9 
REMARK    8  A    between atoms: C_8  and  C_10 
REMARK    9  A    between atoms: C_9  and  C_11 
REMARK   10  A    between atoms: C_10  and  C_12 
REMARK   11  A    between atoms: C_12  and  C_15 
REMARK   12  A    between atoms: C_13  and  C_16 
REMARK   13  A    between atoms: C_14  and  C_17 
REMARK   14  A    between atoms: C_16  and  C_18 
REMARK   15  A    between atoms: C_17  and  C_19 
REMARK   16  A    between atoms: C_18  and  C_20 
REMARK   17  A    between atoms: C_19  and  C_21 
REMARK   18  A    between atoms: C_20  and  C_21 
ROOT
HETATM    1  C   UNK N   1      39.705  45.809  48.416  0.00  0.00    -0.014 C 
HETATM    2  C   UNK N   1      39.683  44.958  49.262  0.00  0.00    -0.092 C 
ENDROOT
BRANCH   2   3
HETATM    3  C   UNK N   1      39.648  43.928  50.286  0.00  0.00     0.095 C 
BRANCH   3   4
HETATM    4  C   UNK N   1      41.011  43.316  50.543  0.00  0.00     0.012 C 
BRANCH   4   5
HETATM    5  C   UNK N   1      42.051  43.524  49.439  0.00  0.00     0.001 C 
BRANCH   5   6
HETATM    6  C   UNK N   1      41.807  42.721  48.146  0.00  0.00     0.000 C 
BRANCH   6   7
HETATM    7  C   UNK N   1      41.629  43.558  46.873  0.00  0.00     0.001 C 
BRANCH   7   8
HETATM    8  C   UNK N   1      42.207  42.939  45.587  0.00  0.00     0.010 C 
BRANCH   8   9
HETATM    9  C   UNK N   1      43.083  41.710  45.794  0.00  0.00     0.110 C 
BRANCH   9  10
HETATM   10  C   UNK N   1      44.485  41.913  45.303  0.00  0.00     0.139 C 
HETATM   11  O   UNK N   1      44.821  41.901  44.127  0.00  0.00    -0.650 OA
BRANCH  10  12
HETATM   12  O   UNK N   1      45.343  42.095  46.336  0.00  0.00    -0.776 OA
HETATM   13  H   UNK N   1      45.387  41.308  46.919  0.00  0.00     0.167 HD
ENDBRANCH  10  12
ENDBRANCH   9  10
ENDBRANCH   8   9
ENDBRANCH   7   8
ENDBRANCH   6   7
ENDBRANCH   5   6
ENDBRANCH   4   5
ENDBRANCH   3   4
ENDBRANCH   2   3
BRANCH   1  14
HETATM   14  C   UNK N   1      39.728  46.785  47.441  0.00  0.00    -0.001 C 
BRANCH  14  15
HETATM   15  C   UNK N   1      39.747  47.632  46.591  0.00  0.00    -0.000 C 
BRANCH  15  16
HETATM   16  C   UNK N   1      39.765  48.605  45.614  0.00  0.00    -0.000 C 
BRANCH  16  17
HETATM   17  C   UNK N   1      39.781  49.456  44.765  0.00  0.00    -0.001 C 
BRANCH  17  18
HETATM   18  C   UNK N   1      39.793  50.427  43.784  0.00  0.00    -0.014 C 
BRANCH  18  19
HETATM   19  C   UNK N   1      39.811  51.270  42.930  0.00  0.00    -0.090 C 
BRANCH  19  20
HETATM   20  C   UNK N   1      39.839  52.290  41.884  0.00  0.00     0.121 C 
BRANCH  20  21
HETATM   21  C   UNK N   1      39.624  53.690  42.451  0.00  0.00     0.176 C 
BRANCH  21  22
HETATM   22  O   UNK N   1      40.808  54.174  43.070  0.00  0.00    -0.400 OA
HETATM   23  H   UNK N   1      41.304  53.403  43.398  0.00  0.00     0.209 HD
ENDBRANCH  21  22
ENDBRANCH  20  21
ENDBRANCH  19  20
ENDBRANCH  18  19
ENDBRANCH  17  18
ENDBRANCH  16  17
ENDBRANCH  15  16
ENDBRANCH  14  15
ENDBRANCH   1  14
TORSDOF 18
ENDMDL
MODEL 7
REMARK VINA RESULT:      -4.2     13.123     17.895
REMARK  18 active torsions:
REMARK  status: ('A' for Active; 'I' for Inactive)
REMARK    1  A    between atoms: O_2  and  C_4 
REMARK    2  A    between atoms: O_3  and  C_5 
REMARK    3  A    between atoms: C_4  and  C_14 
REMARK    4  A    between atoms: C_5  and  C_15 
REMARK    5  A    between atoms: C_6  and  C_7 
REMARK    6  A    between atoms: C_6  and  C_8 
REMARK    7  A    between atoms: C_7  and  C_9 
REMARK    8  A    between atoms: C_8  and  C_10 
REMARK    9  A    between atoms: C_9  and  C_11 
REMARK   10  A    between atoms: C_10  and  C_12 
REMARK   11  A    between atoms: C_12  and  C_15 
REMARK   12  A    between atoms: C_13  and  C_16 
REMARK   13  A    between atoms: C_14  and  C_17 
REMARK   14  A    between atoms: C_16  and  C_18 
REMARK   15  A    between atoms: C_17  and  C_19 
REMARK   16  A    between atoms: C_18  and  C_20 
REMARK   17  A    between atoms: C_19  and  C_21 
REMARK   18  A    between atoms: C_20  and  C_21 
ROOT
HETATM    1  C   UNK N   1      33.606  43.674  61.316  0.00  0.00    -0.014 C 
HETATM    2  C   UNK N   1      34.180  43.954  62.332  0.00  0.00    -0.092 C 
ENDROOT
BRANCH   2   3
HETATM    3  C   UNK N   1      34.867  44.292  63.566  0.00  0.00     0.095 C 
BRANCH   3   4
HETATM    4  C   UNK N   1      34.237  45.472  64.279  0.00  0.00     0.012 C 
BRANCH   4   5
HETATM    5  C   UNK N   1      34.135  46.764  63.463  0.00  0.00     0.001 C 
BRANCH   5   6
HETATM    6  C   UNK N   1      35.270  47.780  63.695  0.00  0.00     0.000 C 
BRANCH   6   7
HETATM    7  C   UNK N   1      36.100  48.137  62.455  0.00  0.00     0.001 C 
BRANCH   7   8
HETATM    8  C   UNK N   1      37.228  47.149  62.106  0.00  0.00     0.010 C 
BRANCH   8   9
HETATM    9  C   UNK N   1      38.148  46.779  63.262  0.00  0.00     0.110 C 
BRANCH   9  10
HETATM   10  C   UNK N   1      38.627  45.359  63.184  0.00  0.00     0.139 C 
HETATM   11  O   UNK N   1      38.180  44.513  62.423  0.00  0.00    -0.650 OA
BRANCH  10  12
HETATM   12  O   UNK N   1      39.612  45.127  64.084  0.00  0.00    -0.776 OA
HETATM   13  H   UNK N   1      39.496  44.267  64.541  0.00  0.00     0.167 HD
ENDBRANCH  10  12
ENDBRANCH   9  10
ENDBRANCH   8   9
ENDBRANCH   7   8
ENDBRANCH   6   7
ENDBRANCH   5   6
ENDBRANCH   4   5
ENDBRANCH   3   4
ENDBRANCH   2   3
BRANCH   1  14
HETATM   14  C   UNK N   1      32.945  43.350  60.149  0.00  0.00    -0.001 C 
BRANCH  14  15
HETATM   15  C   UNK N   1      32.367  43.066  59.137  0.00  0.00    -0.000 C 
BRANCH  15  16
HETATM   16  C   UNK N   1      31.707  42.738  57.971  0.00  0.00    -0.000 C 
BRANCH  16  17
HETATM   17  C   UNK N   1      31.130  42.456  56.955  0.00  0.00    -0.001 C 
BRANCH  17  18
HETATM   18  C   UNK N   1      30.468  42.140  55.785  0.00  0.00    -0.014 C 
BRANCH  18  19
HETATM   19  C   UNK N   1      29.899  41.860  54.767  0.00  0.00    -0.090 C 
BRANCH  19  20
HETATM   20  C   UNK N   1      29.204  41.510  53.530  0.00  0.00     0.121 C 
BRANCH  20  21
HETATM   21  C   UNK N   1      29.250  42.646  52.512  0.00  0.00     0.176 C 
BRANCH  21  22
HETATM   22  O   UNK N   1      29.336  42.140  51.188  0.00  0.00    -0.400 OA
HETATM   23  H   UNK N   1      30.256  41.855  51.043  0.00  0.00     0.209 HD
ENDBRANCH  21  22
ENDBRANCH  20  21
ENDBRANCH  19  20
ENDBRANCH  18  19
ENDBRANCH  17  18
ENDBRANCH  16  17
ENDBRANCH  15  16
ENDBRANCH  14  15
ENDBRANCH   1  14
TORSDOF 18
ENDMDL
MODEL 8
REMARK VINA RESULT:      -4.2     14.280     15.880
REMARK  18 active torsions:
REMARK  status: ('A' for Active; 'I' for Inactive)
REMARK    1  A    between atoms: O_2  and  C_4 
REMARK    2  A    between atoms: O_3  and  C_5 
REMARK    3  A    between atoms: C_4  and  C_14 
REMARK    4  A    between atoms: C_5  and  C_15 
REMARK    5  A    between atoms: C_6  and  C_7 
REMARK    6  A    between atoms: C_6  and  C_8 
REMARK    7  A    between atoms: C_7  and  C_9 
REMARK    8  A    between atoms: C_8  and  C_10 
REMARK    9  A    between atoms: C_9  and  C_11 
REMARK   10  A    between atoms: C_10  and  C_12 
REMARK   11  A    between atoms: C_12  and  C_15 
REMARK   12  A    between atoms: C_13  and  C_16 
REMARK   13  A    between atoms: C_14  and  C_17 
REMARK   14  A    between atoms: C_16  and  C_18 
REMARK   15  A    between atoms: C_17  and  C_19 
REMARK   16  A    between atoms: C_18  and  C_20 
REMARK   17  A    between atoms: C_19  and  C_21 
REMARK   18  A    between atoms: C_20  and  C_21 
ROOT
HETATM    1  C   UNK N   1      31.188  40.944  59.741  0.00  0.00    -0.014 C 
HETATM    2  C   UNK N   1      30.266  40.272  59.369  0.00  0.00    -0.092 C 
ENDROOT
BRANCH   2   3
HETATM    3  C   UNK N   1      29.145  39.462  58.925  0.00  0.00     0.095 C 
BRANCH   3   4
HETATM    4  C   UNK N   1      28.271  40.181  57.916  0.00  0.00     0.012 C 
BRANCH   4   5
HETATM    5  C   UNK N   1      28.601  39.915  56.444  0.00  0.00     0.001 C 
BRANCH   5   6
HETATM    6  C   UNK N   1      29.637  40.869  55.820  0.00  0.00     0.000 C 
BRANCH   6   7
HETATM    7  C   UNK N   1      29.492  42.347  56.209  0.00  0.00     0.001 C 
BRANCH   7   8
HETATM    8  C   UNK N   1      30.751  43.001  56.806  0.00  0.00     0.010 C 
BRANCH   8   9
HETATM    9  C   UNK N   1      30.491  44.146  57.776  0.00  0.00     0.110 C 
BRANCH   9  10
HETATM   10  C   UNK N   1      31.309  45.364  57.462  0.00  0.00     0.139 C 
HETATM   11  O   UNK N   1      30.913  46.516  57.568  0.00  0.00    -0.650 OA
BRANCH  10  12
HETATM   12  O   UNK N   1      32.545  45.023  57.026  0.00  0.00    -0.776 OA
HETATM   13  H   UNK N   1      33.080  44.602  57.732  0.00  0.00     0.167 HD
ENDBRANCH  10  12
ENDBRANCH   9  10
ENDBRANCH   8   9
ENDBRANCH   7   8
ENDBRANCH   6   7
ENDBRANCH   5   6
ENDBRANCH   4   5
ENDBRANCH   3   4
ENDBRANCH   2   3
BRANCH   1  14
HETATM   14  C   UNK N   1      32.246  41.720  60.169  0.00  0.00    -0.001 C 
BRANCH  14  15
HETATM   15  C   UNK N   1      33.167  42.395  60.538  0.00  0.00    -0.000 C 
BRANCH  15  16
HETATM   16  C   UNK N   1      34.223  43.172  60.964  0.00  0.00    -0.000 C 
BRANCH  16  17
HETATM   17  C   UNK N   1      35.143  43.852  61.336  0.00  0.00    -0.001 C 
BRANCH  17  18
HETATM   18  C   UNK N   1      36.199  44.635  61.754  0.00  0.00    -0.014 C 
BRANCH  18  19
HETATM   19  C   UNK N   1      37.112  45.321  62.122  0.00  0.00    -0.090 C 
BRANCH  19  20
HETATM   20  C   UNK N   1      38.228  46.157  62.562  0.00  0.00     0.121 C 
BRANCH  20  21
HETATM   21  C   UNK N   1      37.883  47.642  62.500  0.00  0.00     0.176 C 
BRANCH  21  22
HETATM   22  O   UNK N   1      37.185  47.952  61.302  0.00  0.00    -0.400 OA
HETATM   23  H   UNK N   1      37.822  47.894  60.568  0.00  0.00     0.209 HD
ENDBRANCH  21  22
ENDBRANCH  20  21
ENDBRANCH  19  20
ENDBRANCH  18  19
ENDBRANCH  17  18
ENDBRANCH  16  17
ENDBRANCH  15  16
ENDBRANCH  14  15
ENDBRANCH   1  14
TORSDOF 18
ENDMDL
MODEL 9
REMARK VINA RESULT:      -4.2     18.091     19.800
REMARK  18 active torsions:
REMARK  status: ('A' for Active; 'I' for Inactive)
REMARK    1  A    between atoms: O_2  and  C_4 
REMARK    2  A    between atoms: O_3  and  C_5 
REMARK    3  A    between atoms: C_4  and  C_14 
REMARK    4  A    between atoms: C_5  and  C_15 
REMARK    5  A    between atoms: C_6  and  C_7 
REMARK    6  A    between atoms: C_6  and  C_8 
REMARK    7  A    between atoms: C_7  and  C_9 
REMARK    8  A    between atoms: C_8  and  C_10 
REMARK    9  A    between atoms: C_9  and  C_11 
REMARK   10  A    between atoms: C_10  and  C_12 
REMARK   11  A    between atoms: C_12  and  C_15 
REMARK   12  A    between atoms: C_13  and  C_16 
REMARK   13  A    between atoms: C_14  and  C_17 
REMARK   14  A    between atoms: C_16  and  C_18 
REMARK   15  A    between atoms: C_17  and  C_19 
REMARK   16  A    between atoms: C_18  and  C_20 
REMARK   17  A    between atoms: C_19  and  C_21 
REMARK   18  A    between atoms: C_20  and  C_21 
ROOT
HETATM    1  C   UNK N   1      48.029  33.471  50.836  0.00  0.00    -0.014 C 
HETATM    2  C   UNK N   1      48.161  33.706  49.667  0.00  0.00    -0.092 C 
ENDROOT
BRANCH   2   3
HETATM    3  C   UNK N   1      48.329  33.989  48.252  0.00  0.00     0.095 C 
BRANCH   3   4
HETATM    4  C   UNK N   1      48.906  32.814  47.487  0.00  0.00     0.012 C 
BRANCH   4   5
HETATM    5  C   UNK N   1      48.018  32.245  46.377  0.00  0.00     0.001 C 
BRANCH   5   6
HETATM    6  C   UNK N   1      46.512  32.197  46.698  0.00  0.00     0.000 C 
BRANCH   6   7
HETATM    7  C   UNK N   1      46.032  30.933  47.424  0.00  0.00     0.001 C 
BRANCH   7   8
HETATM    8  C   UNK N   1      45.900  31.058  48.953  0.00  0.00     0.010 C 
BRANCH   8   9
HETATM    9  C   UNK N   1      44.506  31.410  49.458  0.00  0.00     0.110 C 
BRANCH   9  10
HETATM   10  C   UNK N   1      44.152  32.847  49.215  0.00  0.00     0.139 C 
HETATM   11  O   UNK N   1      44.715  33.801  49.734  0.00  0.00    -0.650 OA
BRANCH  10  12
HETATM   12  O   UNK N   1      43.111  32.955  48.355  0.00  0.00    -0.776 OA
HETATM   13  H   UNK N   1      42.376  33.481  48.733  0.00  0.00     0.167 HD
ENDBRANCH  10  12
ENDBRANCH   9  10
ENDBRANCH   8   9
ENDBRANCH   7   8
ENDBRANCH   6   7
ENDBRANCH   5   6
ENDBRANCH   4   5
ENDBRANCH   3   4
ENDBRANCH   2   3
BRANCH   1  14
HETATM   14  C   UNK N   1      47.881  33.199  52.181  0.00  0.00    -0.001 C 
BRANCH  14  15
HETATM   15  C   UNK N   1      47.748  32.961  53.350  0.00  0.00    -0.000 C 
BRANCH  15  16
HETATM   16  C   UNK N   1      47.592  32.686  54.692  0.00  0.00    -0.000 C 
BRANCH  16  17
HETATM   17  C   UNK N   1      47.454  32.444  55.861  0.00  0.00    -0.001 C 
BRANCH  17  18
HETATM   18  C   UNK N   1      47.289  32.172  57.205  0.00  0.00    -0.014 C 
BRANCH  18  19
HETATM   19  C   UNK N   1      47.144  31.944  58.374  0.00  0.00    -0.090 C 
BRANCH  19  20
HETATM   20  C   UNK N   1      46.974  31.659  59.797  0.00  0.00     0.121 C 
BRANCH  20  21
HETATM   21  C   UNK N   1      48.235  31.976  60.594  0.00  0.00     0.176 C 
BRANCH  21  22
HETATM   22  O   UNK N   1      49.098  32.833  59.861  0.00  0.00    -0.400 OA
HETATM   23  H   UNK N   1      50.010  32.651  60.154  0.00  0.00     0.209 HD
ENDBRANCH  21  22
ENDBRANCH  20  21
ENDBRANCH  19  20
ENDBRANCH  18  19
ENDBRANCH  17  18
ENDBRANCH  16  17
ENDBRANCH  15  16
ENDBRANCH  14  15
ENDBRANCH   1  14
TORSDOF 18
ENDMDL
