MODEL 1
REMARK VINA RESULT:      -7.1      0.000      0.000
REMARK  7 active torsions:
REMARK  status: ('A' for Active; 'I' for Inactive)
REMARK    1  A    between atoms: O_3  and  C_10 
REMARK    2  A    between atoms: O_4  and  C_11 
REMARK    3  A    between atoms: O_5  and  C_12 
REMARK    4  A    between atoms: O_6  and  C_13 
REMARK    5  A    between atoms: C_15  and  C_16 
REMARK    6  A    between atoms: C_17  and  C_22 
REMARK    7  A    between atoms: C_22  and  C_24 
ROOT
HETATM    1  O   UNK N   1      39.616  46.496  48.086  0.00  0.00    -0.320 OA
HETATM    2  O   UNK N   1      41.407  46.300  44.544  0.00  0.00    -0.286 OA
HETATM    3  C   UNK N   1      40.359  45.421  47.826  0.00  0.00     0.101 A 
HETATM    4  C   UNK N   1      39.458  47.493  47.224  0.00  0.00     0.159 A 
HETATM    5  C   UNK N   1      40.866  46.350  45.635  0.00  0.00     0.200 A 
HETATM    6  C   UNK N   1      41.812  44.152  46.326  0.00  0.00     0.085 A 
HETATM    7  C   UNK N   1      41.291  43.279  48.543  0.00  0.00     0.077 A 
HETATM    8  C   UNK N   1      41.023  45.302  46.580  0.00  0.00     0.083 A 
HETATM    9  C   UNK N   1      40.073  47.463  45.971  0.00  0.00     0.050 A 
HETATM   10  C   UNK N   1      40.478  44.410  48.808  0.00  0.00     0.013 A 
HETATM   11  C   UNK N   1      41.938  43.162  47.313  0.00  0.00     0.074 A 
ENDROOT
BRANCH   9  12
HETATM   12  C   UNK N   1      39.862  48.600  45.040  0.00  0.00     0.013 A 
HETATM   13  C   UNK N   1      38.748  48.634  44.176  0.00  0.00     0.079 A 
HETATM   14  C   UNK N   1      38.594  49.704  43.276  0.00  0.00     0.073 A 
HETATM   15  C   UNK N   1      39.542  50.730  43.227  0.00  0.00     0.068 A 
HETATM   16  C   UNK N   1      40.651  50.692  44.083  0.00  0.00     0.037 A 
HETATM   17  C   UNK N   1      40.810  49.633  44.983  0.00  0.00     0.018 A 
BRANCH  13  18
HETATM   18  O   UNK N   1      37.837  47.639  44.205  0.00  0.00    -0.360 OA
HETATM   19  H   UNK N   1      37.749  47.012  43.472  0.00  0.00     0.217 HD
ENDBRANCH  13  18
BRANCH  15  20
HETATM   20  O   UNK N   1      39.380  51.745  42.352  0.00  0.00    -0.361 OA
HETATM   21  H   UNK N   1      39.953  52.526  42.364  0.00  0.00     0.217 HD
ENDBRANCH  15  20
ENDBRANCH   9  12
BRANCH   6  22
HETATM   22  O   UNK N   1      42.455  43.996  45.149  0.00  0.00    -0.360 OA
HETATM   23  H   UNK N   1      41.996  44.092  44.301  0.00  0.00     0.217 HD
ENDBRANCH   6  22
BRANCH  10  24
HETATM   24  C   UNK N   1      39.727  44.556  50.117  0.00  0.00     0.072 C 
BRANCH  24  25
HETATM   25  C   UNK N   1      40.685  44.909  51.231  0.00  0.00    -0.020 C 
HETATM   26  C   UNK N   1      40.745  44.319  52.453  0.00  0.00    -0.091 C 
HETATM   27  C   UNK N   1      41.757  44.810  53.456  0.00  0.00     0.042 C 
HETATM   28  C   UNK N   1      39.857  43.177  52.897  0.00  0.00     0.042 C 
ENDBRANCH  24  25
ENDBRANCH  10  24
BRANCH   7  29
HETATM   29  O   UNK N   1      41.481  42.295  49.454  0.00  0.00    -0.360 OA
HETATM   30  H   UNK N   1      41.430  42.420  50.410  0.00  0.00     0.217 HD
ENDBRANCH   7  29
TORSDOF 7
ENDMDL
MODEL 2
REMARK VINA RESULT:      -6.6      8.434     12.415
REMARK  7 active torsions:
REMARK  status: ('A' for Active; 'I' for Inactive)
REMARK    1  A    between atoms: O_3  and  C_10 
REMARK    2  A    between atoms: O_4  and  C_11 
REMARK    3  A    between atoms: O_5  and  C_12 
REMARK    4  A    between atoms: O_6  and  C_13 
REMARK    5  A    between atoms: C_15  and  C_16 
REMARK    6  A    between atoms: C_17  and  C_22 
REMARK    7  A    between atoms: C_22  and  C_24 
ROOT
HETATM    1  O   UNK N   1      32.129  50.924  41.867  0.00  0.00    -0.320 OA
HETATM    2  O   UNK N   1      30.199  54.365  42.344  0.00  0.00    -0.286 OA
HETATM    3  C   UNK N   1      32.450  51.674  42.921  0.00  0.00     0.101 A 
HETATM    4  C   UNK N   1      31.198  51.272  40.987  0.00  0.00     0.159 A 
HETATM    5  C   UNK N   1      30.795  53.310  42.211  0.00  0.00     0.200 A 
HETATM    6  C   UNK N   1      32.144  53.688  44.270  0.00  0.00     0.085 A 
HETATM    7  C   UNK N   1      33.771  52.003  44.950  0.00  0.00     0.077 A 
HETATM    8  C   UNK N   1      31.790  52.909  43.141  0.00  0.00     0.083 A 
HETATM    9  C   UNK N   1      30.496  52.471  41.121  0.00  0.00     0.050 A 
HETATM   10  C   UNK N   1      33.449  51.219  43.813  0.00  0.00     0.013 A 
HETATM   11  C   UNK N   1      33.124  53.221  45.159  0.00  0.00     0.074 A 
ENDROOT
BRANCH   9  12
HETATM   12  C   UNK N   1      29.468  52.818  40.107  0.00  0.00     0.013 A 
HETATM   13  C   UNK N   1      29.784  53.637  39.004  0.00  0.00     0.079 A 
HETATM   14  C   UNK N   1      28.781  53.983  38.081  0.00  0.00     0.073 A 
HETATM   15  C   UNK N   1      27.471  53.527  38.254  0.00  0.00     0.068 A 
HETATM   16  C   UNK N   1      27.157  52.717  39.354  0.00  0.00     0.037 A 
HETATM   17  C   UNK N   1      28.150  52.366  40.275  0.00  0.00     0.018 A 
BRANCH  13  18
HETATM   18  O   UNK N   1      31.042  54.097  38.839  0.00  0.00    -0.360 OA
HETATM   19  H   UNK N   1      31.220  55.033  38.663  0.00  0.00     0.217 HD
ENDBRANCH  13  18
BRANCH  15  20
HETATM   20  O   UNK N   1      26.521  53.875  37.361  0.00  0.00    -0.361 OA
HETATM   21  H   UNK N   1      26.741  54.128  36.453  0.00  0.00     0.217 HD
ENDBRANCH  15  20
ENDBRANCH   9  12
BRANCH   6  22
HETATM   22  O   UNK N   1      31.544  54.874  44.512  0.00  0.00    -0.360 OA
HETATM   23  H   UNK N   1      31.953  55.546  45.078  0.00  0.00     0.217 HD
ENDBRANCH   6  22
BRANCH  10  24
HETATM   24  C   UNK N   1      34.157  49.909  43.528  0.00  0.00     0.072 C 
BRANCH  24  25
HETATM   25  C   UNK N   1      35.569  50.172  43.056  0.00  0.00    -0.020 C 
HETATM   26  C   UNK N   1      36.495  49.231  42.741  0.00  0.00    -0.091 C 
HETATM   27  C   UNK N   1      37.868  49.672  42.300  0.00  0.00     0.042 C 
HETATM   28  C   UNK N   1      36.252  47.738  42.794  0.00  0.00     0.042 C 
ENDBRANCH  24  25
ENDBRANCH  10  24
BRANCH   7  29
HETATM   29  O   UNK N   1      34.688  51.608  45.865  0.00  0.00    -0.360 OA
HETATM   30  H   UNK N   1      35.471  51.082  45.660  0.00  0.00     0.217 HD
ENDBRANCH   7  29
TORSDOF 7
ENDMDL
MODEL 3
REMARK VINA RESULT:      -6.2      2.030      7.980
REMARK  7 active torsions:
REMARK  status: ('A' for Active; 'I' for Inactive)
REMARK    1  A    between atoms: O_3  and  C_10 
REMARK    2  A    between atoms: O_4  and  C_11 
REMARK    3  A    between atoms: O_5  and  C_12 
REMARK    4  A    between atoms: O_6  and  C_13 
REMARK    5  A    between atoms: C_15  and  C_16 
REMARK    6  A    between atoms: C_17  and  C_22 
REMARK    7  A    between atoms: C_22  and  C_24 
ROOT
HETATM    1  O   UNK N   1      38.194  47.293  45.012  0.00  0.00    -0.320 OA
HETATM    2  O   UNK N   1      41.737  47.824  46.730  0.00  0.00    -0.286 OA
HETATM    3  C   UNK N   1      38.938  48.317  44.594  0.00  0.00     0.101 A 
HETATM    4  C   UNK N   1      38.586  46.451  45.960  0.00  0.00     0.159 A 
HETATM    5  C   UNK N   1      40.654  47.670  46.193  0.00  0.00     0.200 A 
HETATM    6  C   UNK N   1      40.988  49.642  44.708  0.00  0.00     0.085 A 
HETATM    7  C   UNK N   1      39.245  50.231  43.107  0.00  0.00     0.077 A 
HETATM    8  C   UNK N   1      40.211  48.550  45.171  0.00  0.00     0.083 A 
HETATM    9  C   UNK N   1      39.825  46.603  46.586  0.00  0.00     0.050 A 
HETATM   10  C   UNK N   1      38.443  49.159  43.571  0.00  0.00     0.013 A 
HETATM   11  C   UNK N   1      40.495  50.461  43.682  0.00  0.00     0.074 A 
ENDROOT
BRANCH   9  12
HETATM   12  C   UNK N   1      40.217  45.638  47.645  0.00  0.00     0.013 A 
HETATM   13  C   UNK N   1      41.216  44.670  47.412  0.00  0.00     0.079 A 
HETATM   14  C   UNK N   1      41.538  43.743  48.419  0.00  0.00     0.073 A 
HETATM   15  C   UNK N   1      40.871  43.770  49.647  0.00  0.00     0.068 A 
HETATM   16  C   UNK N   1      39.874  44.729  49.874  0.00  0.00     0.037 A 
HETATM   17  C   UNK N   1      39.549  45.657  48.879  0.00  0.00     0.018 A 
BRANCH  13  18
HETATM   18  O   UNK N   1      41.853  44.626  46.223  0.00  0.00    -0.360 OA
HETATM   19  H   UNK N   1      41.413  44.302  45.424  0.00  0.00     0.217 HD
ENDBRANCH  13  18
BRANCH  15  20
HETATM   20  O   UNK N   1      41.190  42.868  50.599  0.00  0.00    -0.361 OA
HETATM   21  H   UNK N   1      40.789  41.987  50.624  0.00  0.00     0.217 HD
ENDBRANCH  15  20
ENDBRANCH   9  12
BRANCH   6  22
HETATM   22  O   UNK N   1      42.203  49.903  45.236  0.00  0.00    -0.360 OA
HETATM   23  H   UNK N   1      42.683  50.720  45.032  0.00  0.00     0.217 HD
ENDBRANCH   6  22
BRANCH  10  24
HETATM   24  C   UNK N   1      37.062  48.899  43.001  0.00  0.00     0.072 C 
BRANCH  24  25
HETATM   25  C   UNK N   1      36.152  50.072  43.283  0.00  0.00    -0.020 C 
HETATM   26  C   UNK N   1      34.799  50.028  43.393  0.00  0.00    -0.091 C 
HETATM   27  C   UNK N   1      34.043  51.304  43.663  0.00  0.00     0.042 C 
HETATM   28  C   UNK N   1      33.971  48.768  43.267  0.00  0.00     0.042 C 
ENDBRANCH  24  25
ENDBRANCH  10  24
BRANCH   7  29
HETATM   29  O   UNK N   1      38.849  51.050  42.103  0.00  0.00    -0.360 OA
HETATM   30  H   UNK N   1      38.145  51.705  42.181  0.00  0.00     0.217 HD
ENDBRANCH   7  29
TORSDOF 7
ENDMDL
MODEL 4
REMARK VINA RESULT:      -5.8      2.038      7.980
REMARK  7 active torsions:
REMARK  status: ('A' for Active; 'I' for Inactive)
REMARK    1  A    between atoms: O_3  and  C_10 
REMARK    2  A    between atoms: O_4  and  C_11 
REMARK    3  A    between atoms: O_5  and  C_12 
REMARK    4  A    between atoms: O_6  and  C_13 
REMARK    5  A    between atoms: C_15  and  C_16 
REMARK    6  A    between atoms: C_17  and  C_22 
REMARK    7  A    between atoms: C_22  and  C_24 
ROOT
HETATM    1  O   UNK N   1      39.611  46.866  47.216  0.00  0.00    -0.320 OA
HETATM    2  O   UNK N   1      43.257  46.797  48.794  0.00  0.00    -0.286 OA
HETATM    3  C   UNK N   1      40.533  47.664  46.679  0.00  0.00     0.101 A 
HETATM    4  C   UNK N   1      39.859  46.055  48.236  0.00  0.00     0.159 A 
HETATM    5  C   UNK N   1      42.143  46.825  48.298  0.00  0.00     0.200 A 
HETATM    6  C   UNK N   1      42.817  48.530  46.612  0.00  0.00     0.085 A 
HETATM    7  C   UNK N   1      41.169  49.318  44.996  0.00  0.00     0.077 A 
HETATM    8  C   UNK N   1      41.850  47.676  47.201  0.00  0.00     0.083 A 
HETATM    9  C   UNK N   1      41.128  46.000  48.816  0.00  0.00     0.050 A 
HETATM   10  C   UNK N   1      40.181  48.489  45.585  0.00  0.00     0.013 A 
HETATM   11  C   UNK N   1      42.463  49.332  45.517  0.00  0.00     0.074 A 
ENDROOT
BRANCH   9  12
HETATM   12  C   UNK N   1      41.355  45.080  49.960  0.00  0.00     0.013 A 
HETATM   13  C   UNK N   1      41.456  43.688  49.764  0.00  0.00     0.079 A 
HETATM   14  C   UNK N   1      41.630  42.837  50.870  0.00  0.00     0.073 A 
HETATM   15  C   UNK N   1      41.697  43.361  52.164  0.00  0.00     0.068 A 
HETATM   16  C   UNK N   1      41.591  44.745  52.358  0.00  0.00     0.037 A 
HETATM   17  C   UNK N   1      41.420  45.599  51.263  0.00  0.00     0.018 A 
BRANCH  13  18
HETATM   18  O   UNK N   1      41.375  43.171  48.519  0.00  0.00    -0.360 OA
HETATM   19  H   UNK N   1      40.738  43.508  47.872  0.00  0.00     0.217 HD
ENDBRANCH  13  18
BRANCH  15  20
HETATM   20  O   UNK N   1      41.859  42.529  53.213  0.00  0.00    -0.361 OA
HETATM   21  H   UNK N   1      42.423  42.758  53.966  0.00  0.00     0.217 HD
ENDBRANCH  15  20
ENDBRANCH   9  12
BRANCH   6  22
HETATM   22  O   UNK N   1      44.082  48.577  47.084  0.00  0.00    -0.360 OA
HETATM   23  H   UNK N   1      44.520  47.792  47.445  0.00  0.00     0.217 HD
ENDBRANCH   6  22
BRANCH  10  24
HETATM   24  C   UNK N   1      38.753  48.474  45.075  0.00  0.00     0.072 C 
BRANCH  24  25
HETATM   25  C   UNK N   1      38.647  49.277  43.799  0.00  0.00    -0.020 C 
HETATM   26  C   UNK N   1      37.717  49.112  42.824  0.00  0.00    -0.091 C 
HETATM   27  C   UNK N   1      37.769  49.995  41.603  0.00  0.00     0.042 C 
HETATM   28  C   UNK N   1      36.604  48.088  42.867  0.00  0.00     0.042 C 
ENDBRANCH  24  25
ENDBRANCH  10  24
BRANCH   7  29
HETATM   29  O   UNK N   1      40.910  50.101  43.923  0.00  0.00    -0.360 OA
HETATM   30  H   UNK N   1      40.363  50.896  43.948  0.00  0.00     0.217 HD
ENDBRANCH   7  29
TORSDOF 7
ENDMDL
MODEL 5
REMARK VINA RESULT:      -5.5      2.115      7.453
REMARK  7 active torsions:
REMARK  status: ('A' for Active; 'I' for Inactive)
REMARK    1  A    between atoms: O_3  and  C_10 
REMARK    2  A    between atoms: O_4  and  C_11 
REMARK    3  A    between atoms: O_5  and  C_12 
REMARK    4  A    between atoms: O_6  and  C_13 
REMARK    5  A    between atoms: C_15  and  C_16 
REMARK    6  A    between atoms: C_17  and  C_22 
REMARK    7  A    between atoms: C_22  and  C_24 
ROOT
HETATM    1  O   UNK N   1      41.058  46.121  47.581  0.00  0.00    -0.320 OA
HETATM    2  O   UNK N   1      41.773  42.440  48.895  0.00  0.00    -0.286 OA
HETATM    3  C   UNK N   1      41.456  45.212  46.691  0.00  0.00     0.101 A 
HETATM    4  C   UNK N   1      40.885  45.848  48.868  0.00  0.00     0.159 A 
HETATM    5  C   UNK N   1      41.553  43.564  48.479  0.00  0.00     0.200 A 
HETATM    6  C   UNK N   1      42.140  42.931  46.142  0.00  0.00     0.085 A 
HETATM    7  C   UNK N   1      42.001  44.617  44.385  0.00  0.00     0.077 A 
HETATM    8  C   UNK N   1      41.721  43.883  47.106  0.00  0.00     0.083 A 
HETATM    9  C   UNK N   1      41.123  44.567  49.368  0.00  0.00     0.050 A 
HETATM   10  C   UNK N   1      41.604  45.590  45.336  0.00  0.00     0.013 A 
HETATM   11  C   UNK N   1      42.268  43.311  44.798  0.00  0.00     0.074 A 
ENDROOT
BRANCH   9  12
HETATM   12  C   UNK N   1      40.922  44.313  50.817  0.00  0.00     0.013 A 
HETATM   13  C   UNK N   1      41.726  44.948  51.785  0.00  0.00     0.079 A 
HETATM   14  C   UNK N   1      41.541  44.658  53.148  0.00  0.00     0.073 A 
HETATM   15  C   UNK N   1      40.568  43.739  53.551  0.00  0.00     0.068 A 
HETATM   16  C   UNK N   1      39.773  43.103  52.587  0.00  0.00     0.037 A 
HETATM   17  C   UNK N   1      39.949  43.388  51.229  0.00  0.00     0.018 A 
BRANCH  13  18
HETATM   18  O   UNK N   1      42.680  45.825  51.404  0.00  0.00    -0.360 OA
HETATM   19  H   UNK N   1      43.316  46.188  52.038  0.00  0.00     0.217 HD
ENDBRANCH  13  18
BRANCH  15  20
HETATM   20  O   UNK N   1      40.408  43.469  54.863  0.00  0.00    -0.361 OA
HETATM   21  H   UNK N   1      40.546  44.143  55.544  0.00  0.00     0.217 HD
ENDBRANCH  15  20
ENDBRANCH   9  12
BRANCH   6  22
HETATM   22  O   UNK N   1      42.410  41.656  46.497  0.00  0.00    -0.360 OA
HETATM   23  H   UNK N   1      41.933  41.216  47.217  0.00  0.00     0.217 HD
ENDBRANCH   6  22
BRANCH  10  24
HETATM   24  C   UNK N   1      41.343  47.029  44.935  0.00  0.00     0.072 C 
BRANCH  24  25
HETATM   25  C   UNK N   1      40.381  47.674  45.906  0.00  0.00    -0.020 C 
HETATM   26  C   UNK N   1      39.798  48.892  45.765  0.00  0.00    -0.091 C 
HETATM   27  C   UNK N   1      38.871  49.391  46.844  0.00  0.00     0.042 C 
HETATM   28  C   UNK N   1      40.008  49.810  44.581  0.00  0.00     0.042 C 
ENDBRANCH  24  25
ENDBRANCH  10  24
BRANCH   7  29
HETATM   29  O   UNK N   1      42.122  44.901  43.067  0.00  0.00    -0.360 OA
HETATM   30  H   UNK N   1      42.143  44.238  42.366  0.00  0.00     0.217 HD
ENDBRANCH   7  29
TORSDOF 7
ENDMDL
MODEL 6
REMARK VINA RESULT:      -5.4     14.492     17.671
REMARK  7 active torsions:
REMARK  status: ('A' for Active; 'I' for Inactive)
REMARK    1  A    between atoms: O_3  and  C_10 
REMARK    2  A    between atoms: O_4  and  C_11 
REMARK    3  A    between atoms: O_5  and  C_12 
REMARK    4  A    between atoms: O_6  and  C_13 
REMARK    5  A    between atoms: C_15  and  C_16 
REMARK    6  A    between atoms: C_17  and  C_22 
REMARK    7  A    between atoms: C_22  and  C_24 
ROOT
HETATM    1  O   UNK N   1      35.380  43.970  61.202  0.00  0.00    -0.320 OA
HETATM    2  O   UNK N   1      35.028  45.281  64.937  0.00  0.00    -0.286 OA
HETATM    3  C   UNK N   1      34.253  43.688  61.854  0.00  0.00     0.101 A 
HETATM    4  C   UNK N   1      36.373  44.668  61.740  0.00  0.00     0.159 A 
HETATM    5  C   UNK N   1      35.122  44.876  63.791  0.00  0.00     0.200 A 
HETATM    6  C   UNK N   1      32.865  43.826  63.860  0.00  0.00     0.085 A 
HETATM    7  C   UNK N   1      32.032  42.668  61.882  0.00  0.00     0.077 A 
HETATM    8  C   UNK N   1      34.074  44.134  63.187  0.00  0.00     0.083 A 
HETATM    9  C   UNK N   1      36.286  45.148  63.048  0.00  0.00     0.050 A 
HETATM   10  C   UNK N   1      33.243  42.945  61.198  0.00  0.00     0.013 A 
HETATM   11  C   UNK N   1      31.863  43.104  63.196  0.00  0.00     0.074 A 
ENDROOT
BRANCH   9  12
HETATM   12  C   UNK N   1      37.426  45.920  63.606  0.00  0.00     0.013 A 
HETATM   13  C   UNK N   1      38.504  45.267  64.238  0.00  0.00     0.079 A 
HETATM   14  C   UNK N   1      39.550  46.024  64.794  0.00  0.00     0.073 A 
HETATM   15  C   UNK N   1      39.525  47.421  64.731  0.00  0.00     0.068 A 
HETATM   16  C   UNK N   1      38.450  48.068  64.108  0.00  0.00     0.037 A 
HETATM   17  C   UNK N   1      37.406  47.322  63.549  0.00  0.00     0.018 A 
BRANCH  13  18
HETATM   18  O   UNK N   1      38.528  43.920  64.319  0.00  0.00    -0.360 OA
HETATM   19  H   UNK N   1      38.213  43.363  63.591  0.00  0.00     0.217 HD
ENDBRANCH  13  18
BRANCH  15  20
HETATM   20  O   UNK N   1      40.535  48.131  65.276  0.00  0.00    -0.361 OA
HETATM   21  H   UNK N   1      40.377  48.945  65.775  0.00  0.00     0.217 HD
ENDBRANCH  15  20
ENDBRANCH   9  12
BRANCH   6  22
HETATM   22  O   UNK N   1      32.657  44.227  65.133  0.00  0.00    -0.360 OA
HETATM   23  H   UNK N   1      32.218  45.066  65.338  0.00  0.00     0.217 HD
ENDBRANCH   6  22
BRANCH  10  24
HETATM   24  C   UNK N   1      33.483  42.456  59.784  0.00  0.00     0.072 C 
BRANCH  24  25
HETATM   25  C   UNK N   1      33.091  43.524  58.789  0.00  0.00    -0.020 C 
HETATM   26  C   UNK N   1      31.964  43.538  58.031  0.00  0.00    -0.091 C 
HETATM   27  C   UNK N   1      31.739  44.679  57.074  0.00  0.00     0.042 C 
HETATM   28  C   UNK N   1      30.890  42.474  58.076  0.00  0.00     0.042 C 
ENDBRANCH  24  25
ENDBRANCH  10  24
BRANCH   7  29
HETATM   29  O   UNK N   1      31.010  41.998  61.300  0.00  0.00    -0.360 OA
HETATM   30  H   UNK N   1      30.325  42.411  60.759  0.00  0.00     0.217 HD
ENDBRANCH   7  29
TORSDOF 7
ENDMDL
MODEL 7
REMARK VINA RESULT:      -5.3     13.238     17.152
REMARK  7 active torsions:
REMARK  status: ('A' for Active; 'I' for Inactive)
REMARK    1  A    between atoms: O_3  and  C_10 
REMARK    2  A    between atoms: O_4  and  C_11 
REMARK    3  A    between atoms: O_5  and  C_12 
REMARK    4  A    between atoms: O_6  and  C_13 
REMARK    5  A    between atoms: C_15  and  C_16 
REMARK    6  A    between atoms: C_17  and  C_22 
REMARK    7  A    between atoms: C_22  and  C_24 
ROOT
HETATM    1  O   UNK N   1      28.808  55.621  41.912  0.00  0.00    -0.320 OA
HETATM    2  O   UNK N   1      24.948  55.173  41.084  0.00  0.00    -0.286 OA
HETATM    3  C   UNK N   1      28.429  54.487  41.325  0.00  0.00     0.101 A 
HETATM    4  C   UNK N   1      27.963  56.596  42.220  0.00  0.00     0.159 A 
HETATM    5  C   UNK N   1      26.135  55.300  41.329  0.00  0.00     0.200 A 
HETATM    6  C   UNK N   1      26.682  53.065  40.376  0.00  0.00     0.085 A 
HETATM    7  C   UNK N   1      29.001  52.309  40.375  0.00  0.00     0.077 A 
HETATM    8  C   UNK N   1      27.064  54.277  41.004  0.00  0.00     0.083 A 
HETATM    9  C   UNK N   1      26.600  56.478  41.943  0.00  0.00     0.050 A 
HETATM   10  C   UNK N   1      29.401  53.504  41.025  0.00  0.00     0.013 A 
HETATM   11  C   UNK N   1      27.656  52.104  40.067  0.00  0.00     0.074 A 
ENDROOT
BRANCH   9  12
HETATM   12  C   UNK N   1      25.693  57.595  42.311  0.00  0.00     0.013 A 
HETATM   13  C   UNK N   1      24.997  57.591  43.538  0.00  0.00     0.079 A 
HETATM   14  C   UNK N   1      24.114  58.641  43.844  0.00  0.00     0.073 A 
HETATM   15  C   UNK N   1      23.915  59.686  42.937  0.00  0.00     0.068 A 
HETATM   16  C   UNK N   1      24.603  59.686  41.716  0.00  0.00     0.037 A 
HETATM   17  C   UNK N   1      25.486  58.646  41.405  0.00  0.00     0.018 A 
BRANCH  13  18
HETATM   18  O   UNK N   1      25.170  56.577  44.412  0.00  0.00    -0.360 OA
HETATM   19  H   UNK N   1      25.087  55.652  44.137  0.00  0.00     0.217 HD
ENDBRANCH  13  18
BRANCH  15  20
HETATM   20  O   UNK N   1      23.058  60.683  43.245  0.00  0.00    -0.361 OA
HETATM   21  H   UNK N   1      22.173  60.733  42.857  0.00  0.00     0.217 HD
ENDBRANCH  15  20
ENDBRANCH   9  12
BRANCH   6  22
HETATM   22  O   UNK N   1      25.392  52.822  40.060  0.00  0.00    -0.360 OA
HETATM   23  H   UNK N   1      24.704  52.756  40.740  0.00  0.00     0.217 HD
ENDBRANCH   6  22
BRANCH  10  24
HETATM   24  C   UNK N   1      30.846  53.749  41.413  0.00  0.00     0.072 C 
BRANCH  24  25
HETATM   25  C   UNK N   1      31.110  53.220  42.803  0.00  0.00    -0.020 C 
HETATM   26  C   UNK N   1      31.488  53.954  43.881  0.00  0.00    -0.091 C 
HETATM   27  C   UNK N   1      31.724  53.258  45.197  0.00  0.00     0.042 C 
HETATM   28  C   UNK N   1      31.691  55.454  43.867  0.00  0.00     0.042 C 
ENDBRANCH  24  25
ENDBRANCH  10  24
BRANCH   7  29
HETATM   29  O   UNK N   1      29.886  51.346  40.023  0.00  0.00    -0.360 OA
HETATM   30  H   UNK N   1      30.426  50.848  40.648  0.00  0.00     0.217 HD
ENDBRANCH   7  29
TORSDOF 7
ENDMDL
MODEL 8
REMARK VINA RESULT:      -5.3     14.301     17.078
REMARK  7 active torsions:
REMARK  status: ('A' for Active; 'I' for Inactive)
REMARK    1  A    between atoms: O_3  and  C_10 
REMARK    2  A    between atoms: O_4  and  C_11 
REMARK    3  A    between atoms: O_5  and  C_12 
REMARK    4  A    between atoms: O_6  and  C_13 
REMARK    5  A    between atoms: C_15  and  C_16 
REMARK    6  A    between atoms: C_17  and  C_22 
REMARK    7  A    between atoms: C_22  and  C_24 
ROOT
HETATM    1  O   UNK N   1      25.612  41.252  50.020  0.00  0.00    -0.320 OA
HETATM    2  O   UNK N   1      26.206  44.384  52.393  0.00  0.00    -0.286 OA
HETATM    3  C   UNK N   1      24.903  42.354  49.780  0.00  0.00     0.101 A 
HETATM    4  C   UNK N   1      26.502  41.162  51.000  0.00  0.00     0.159 A 
HETATM    5  C   UNK N   1      26.017  43.431  51.655  0.00  0.00     0.200 A 
HETATM    6  C   UNK N   1      24.316  44.664  50.318  0.00  0.00     0.085 A 
HETATM    7  C   UNK N   1      23.248  43.545  48.433  0.00  0.00     0.077 A 
HETATM    8  C   UNK N   1      25.078  43.501  50.594  0.00  0.00     0.083 A 
HETATM    9  C   UNK N   1      26.741  42.241  51.853  0.00  0.00     0.050 A 
HETATM   10  C   UNK N   1      23.982  42.364  48.706  0.00  0.00     0.013 A 
HETATM   11  C   UNK N   1      23.418  44.670  49.240  0.00  0.00     0.074 A 
ENDROOT
BRANCH   9  12
HETATM   12  C   UNK N   1      27.743  42.089  52.940  0.00  0.00     0.013 A 
HETATM   13  C   UNK N   1      29.122  42.225  52.680  0.00  0.00     0.079 A 
HETATM   14  C   UNK N   1      30.050  42.036  53.719  0.00  0.00     0.073 A 
HETATM   15  C   UNK N   1      29.616  41.707  55.006  0.00  0.00     0.068 A 
HETATM   16  C   UNK N   1      28.245  41.567  55.261  0.00  0.00     0.037 A 
HETATM   17  C   UNK N   1      27.314  41.756  54.234  0.00  0.00     0.018 A 
BRANCH  13  18
HETATM   18  O   UNK N   1      29.551  42.525  51.436  0.00  0.00    -0.360 OA
HETATM   19  H   UNK N   1      28.930  42.728  50.721  0.00  0.00     0.217 HD
ENDBRANCH  13  18
BRANCH  15  20
HETATM   20  O   UNK N   1      30.522  41.524  55.989  0.00  0.00    -0.361 OA
HETATM   21  H   UNK N   1      30.302  41.667  56.921  0.00  0.00     0.217 HD
ENDBRANCH  15  20
ENDBRANCH   9  12
BRANCH   6  22
HETATM   22  O   UNK N   1      24.447  45.776  51.073  0.00  0.00    -0.360 OA
HETATM   23  H   UNK N   1      24.735  45.733  51.998  0.00  0.00     0.217 HD
ENDBRANCH   6  22
BRANCH  10  24
HETATM   24  C   UNK N   1      23.798  41.107  47.877  0.00  0.00     0.072 C 
BRANCH  24  25
HETATM   25  C   UNK N   1      24.834  41.050  46.779  0.00  0.00    -0.020 C 
HETATM   26  C   UNK N   1      24.588  41.090  45.444  0.00  0.00    -0.091 C 
HETATM   27  C   UNK N   1      25.746  41.006  44.482  0.00  0.00     0.042 C 
HETATM   28  C   UNK N   1      23.212  41.220  44.830  0.00  0.00     0.042 C 
ENDBRANCH  24  25
ENDBRANCH  10  24
BRANCH   7  29
HETATM   29  O   UNK N   1      22.381  43.635  47.396  0.00  0.00    -0.360 OA
HETATM   30  H   UNK N   1      22.515  43.218  46.537  0.00  0.00     0.217 HD
ENDBRANCH   7  29
TORSDOF 7
ENDMDL
MODEL 9
REMARK VINA RESULT:      -5.3      9.732     13.620
REMARK  7 active torsions:
REMARK  status: ('A' for Active; 'I' for Inactive)
REMARK    1  A    between atoms: O_3  and  C_10 
REMARK    2  A    between atoms: O_4  and  C_11 
REMARK    3  A    between atoms: O_5  and  C_12 
REMARK    4  A    between atoms: O_6  and  C_13 
REMARK    5  A    between atoms: C_15  and  C_16 
REMARK    6  A    between atoms: C_17  and  C_22 
REMARK    7  A    between atoms: C_22  and  C_24 
ROOT
HETATM    1  O   UNK N   1      31.594  51.843  42.119  0.00  0.00    -0.320 OA
HETATM    2  O   UNK N   1      29.009  54.761  41.350  0.00  0.00    -0.286 OA
HETATM    3  C   UNK N   1      31.768  53.005  42.746  0.00  0.00     0.101 A 
HETATM    4  C   UNK N   1      30.603  51.621  41.266  0.00  0.00     0.159 A 
HETATM    5  C   UNK N   1      29.807  53.873  41.597  0.00  0.00     0.200 A 
HETATM    6  C   UNK N   1      31.074  55.305  43.193  0.00  0.00     0.085 A 
HETATM    7  C   UNK N   1      33.018  54.377  44.336  0.00  0.00     0.077 A 
HETATM    8  C   UNK N   1      30.873  54.079  42.511  0.00  0.00     0.083 A 
HETATM    9  C   UNK N   1      29.672  52.620  40.971  0.00  0.00     0.050 A 
HETATM   10  C   UNK N   1      32.849  53.150  43.647  0.00  0.00     0.013 A 
HETATM   11  C   UNK N   1      32.139  55.434  44.097  0.00  0.00     0.074 A 
ENDROOT
BRANCH   9  12
HETATM   12  C   UNK N   1      28.584  52.324  40.005  0.00  0.00     0.013 A 
HETATM   13  C   UNK N   1      28.695  52.694  38.649  0.00  0.00     0.079 A 
HETATM   14  C   UNK N   1      27.632  52.439  37.765  0.00  0.00     0.073 A 
HETATM   15  C   UNK N   1      26.462  51.827  38.223  0.00  0.00     0.068 A 
HETATM   16  C   UNK N   1      26.350  51.465  39.572  0.00  0.00     0.037 A 
HETATM   17  C   UNK N   1      27.404  51.713  40.458  0.00  0.00     0.018 A 
BRANCH  13  18
HETATM   18  O   UNK N   1      29.815  53.301  38.202  0.00  0.00    -0.360 OA
HETATM   19  H   UNK N   1      30.693  53.044  38.522  0.00  0.00     0.217 HD
ENDBRANCH  13  18
BRANCH  15  20
HETATM   20  O   UNK N   1      25.450  51.595  37.361  0.00  0.00    -0.361 OA
HETATM   21  H   UNK N   1      25.238  50.703  37.049  0.00  0.00     0.217 HD
ENDBRANCH  15  20
ENDBRANCH   9  12
BRANCH   6  22
HETATM   22  O   UNK N   1      30.248  56.355  42.992  0.00  0.00    -0.360 OA
HETATM   23  H   UNK N   1      30.070  56.701  42.104  0.00  0.00     0.217 HD
ENDBRANCH   6  22
BRANCH  10  24
HETATM   24  C   UNK N   1      33.806  51.991  43.848  0.00  0.00     0.072 C 
BRANCH  24  25
HETATM   25  C   UNK N   1      33.195  50.966  44.776  0.00  0.00    -0.020 C 
HETATM   26  C   UNK N   1      32.917  49.673  44.468  0.00  0.00    -0.091 C 
HETATM   27  C   UNK N   1      32.289  48.788  45.515  0.00  0.00     0.042 C 
HETATM   28  C   UNK N   1      33.197  49.033  43.126  0.00  0.00     0.042 C 
ENDBRANCH  24  25
ENDBRANCH  10  24
BRANCH   7  29
HETATM   29  O   UNK N   1      34.006  54.569  45.241  0.00  0.00    -0.360 OA
HETATM   30  H   UNK N   1      34.387  55.429  45.459  0.00  0.00     0.217 HD
ENDBRANCH   7  29
TORSDOF 7
ENDMDL
