MODEL 1
REMARK VINA RESULT:      -8.0      0.000      0.000
REMARK  5 active torsions:
REMARK  status: ('A' for Active; 'I' for Inactive)
REMARK    1  A    between atoms: O_2  and  C_7 
REMARK    2  A    between atoms: O_3  and  C_8 
REMARK    3  A    between atoms: O_4  and  C_9 
REMARK    4  A    between atoms: C_6  and  C_20 
REMARK    5  A    between atoms: C_11  and  C_20 
ROOT
HETATM    1  O   UNK N   1      42.143  44.931  48.940  0.00  0.00    -0.311 OA
HETATM    2  C   UNK N   1      41.909  45.272  47.699  0.00  0.00     0.122 A 
HETATM    3  C   UNK N   1      42.295  46.024  49.654  0.00  0.00     0.059 A 
HETATM    4  C   UNK N   1      41.722  44.419  46.602  0.00  0.00     0.136 A 
HETATM    5  C   UNK N   1      41.477  45.021  45.348  0.00  0.00     0.101 A 
HETATM    6  C   UNK N   1      41.883  46.632  47.583  0.00  0.00     0.003 A 
HETATM    7  C   UNK N   1      42.140  47.145  48.839  0.00  0.00     0.047 A 
HETATM    8  C   UNK N   1      41.427  46.436  45.233  0.00  0.00     0.040 A 
HETATM    9  C   UNK N   1      41.635  47.255  46.362  0.00  0.00     0.017 A 
ENDROOT
BRANCH   3  10
HETATM   10  C   UNK N   1      42.603  45.988  51.118  0.00  0.00     0.103 C 
BRANCH  10  11
HETATM   11  C   UNK N   1      41.675  45.017  51.809  0.00  0.00    -0.052 A 
HETATM   12  C   UNK N   1      41.764  44.786  53.190  0.00  0.00     0.010 A 
HETATM   13  C   UNK N   1      40.903  43.870  53.808  0.00  0.00     0.037 A 
HETATM   14  C   UNK N   1      39.946  43.178  53.055  0.00  0.00     0.065 A 
HETATM   15  C   UNK N   1      39.855  43.403  51.674  0.00  0.00     0.037 A 
HETATM   16  C   UNK N   1      40.715  44.314  51.055  0.00  0.00     0.010 A 
BRANCH  14  17
HETATM   17  O   UNK N   1      39.122  42.300  53.663  0.00  0.00    -0.361 OA
HETATM   18  H   UNK N   1      38.844  42.415  54.584  0.00  0.00     0.217 HD
ENDBRANCH  14  17
ENDBRANCH  10  11
ENDBRANCH   3  10
BRANCH   4  19
HETATM   19  O   UNK N   1      41.784  43.064  46.707  0.00  0.00    -0.351 OA
HETATM   20  C   UNK N   1      42.866  42.292  46.321  0.00  0.00     0.210 C 
ENDBRANCH   4  19
BRANCH   5  21
HETATM   21  O   UNK N   1      41.298  44.241  44.261  0.00  0.00    -0.358 OA
HETATM   22  H   UNK N   1      41.216  43.279  44.332  0.00  0.00     0.218 HD
ENDBRANCH   5  21
TORSDOF 5
ENDMDL
MODEL 2
REMARK VINA RESULT:      -7.9      2.152      6.651
REMARK  5 active torsions:
REMARK  status: ('A' for Active; 'I' for Inactive)
REMARK    1  A    between atoms: O_2  and  C_7 
REMARK    2  A    between atoms: O_3  and  C_8 
REMARK    3  A    between atoms: O_4  and  C_9 
REMARK    4  A    between atoms: C_6  and  C_20 
REMARK    5  A    between atoms: C_11  and  C_20 
ROOT
HETATM    1  O   UNK N   1      41.395  45.128  48.534  0.00  0.00    -0.311 OA
HETATM    2  C   UNK N   1      41.348  44.950  49.828  0.00  0.00     0.122 A 
HETATM    3  C   UNK N   1      40.542  44.305  47.965  0.00  0.00     0.059 A 
HETATM    4  C   UNK N   1      42.117  45.596  50.806  0.00  0.00     0.136 A 
HETATM    5  C   UNK N   1      41.884  45.240  52.153  0.00  0.00     0.101 A 
HETATM    6  C   UNK N   1      40.420  43.996  50.137  0.00  0.00     0.003 A 
HETATM    7  C   UNK N   1      39.889  43.555  48.941  0.00  0.00     0.047 A 
HETATM    8  C   UNK N   1      40.904  44.265  52.474  0.00  0.00     0.040 A 
HETATM    9  C   UNK N   1      40.162  43.630  51.456  0.00  0.00     0.017 A 
ENDROOT
BRANCH   3  10
HETATM   10  C   UNK N   1      40.366  44.234  46.481  0.00  0.00     0.103 C 
BRANCH  10  11
HETATM   11  C   UNK N   1      41.566  43.560  45.858  0.00  0.00    -0.052 A 
HETATM   12  C   UNK N   1      42.093  44.003  44.636  0.00  0.00     0.010 A 
HETATM   13  C   UNK N   1      43.198  43.353  44.068  0.00  0.00     0.037 A 
HETATM   14  C   UNK N   1      43.785  42.259  44.716  0.00  0.00     0.065 A 
HETATM   15  C   UNK N   1      43.260  41.811  45.935  0.00  0.00     0.037 A 
HETATM   16  C   UNK N   1      42.157  42.455  46.502  0.00  0.00     0.010 A 
BRANCH  14  17
HETATM   17  O   UNK N   1      44.849  41.644  44.160  0.00  0.00    -0.361 OA
HETATM   18  H   UNK N   1      45.085  40.731  44.383  0.00  0.00     0.217 HD
ENDBRANCH  14  17
ENDBRANCH  10  11
ENDBRANCH   3  10
BRANCH   4  19
HETATM   19  O   UNK N   1      43.067  46.520  50.500  0.00  0.00    -0.351 OA
HETATM   20  C   UNK N   1      42.916  47.527  49.563  0.00  0.00     0.210 C 
ENDBRANCH   4  19
BRANCH   5  21
HETATM   21  O   UNK N   1      42.606  45.830  53.129  0.00  0.00    -0.358 OA
HETATM   22  H   UNK N   1      42.318  45.822  54.052  0.00  0.00     0.218 HD
ENDBRANCH   5  21
TORSDOF 5
ENDMDL
MODEL 3
REMARK VINA RESULT:      -7.9      1.833      6.580
REMARK  5 active torsions:
REMARK  status: ('A' for Active; 'I' for Inactive)
REMARK    1  A    between atoms: O_2  and  C_7 
REMARK    2  A    between atoms: O_3  and  C_8 
REMARK    3  A    between atoms: O_4  and  C_9 
REMARK    4  A    between atoms: C_6  and  C_20 
REMARK    5  A    between atoms: C_11  and  C_20 
ROOT
HETATM    1  O   UNK N   1      40.634  43.750  49.438  0.00  0.00    -0.311 OA
HETATM    2  C   UNK N   1      41.156  44.294  50.507  0.00  0.00     0.122 A 
HETATM    3  C   UNK N   1      40.953  44.484  48.395  0.00  0.00     0.059 A 
HETATM    4  C   UNK N   1      41.032  43.856  51.832  0.00  0.00     0.136 A 
HETATM    5  C   UNK N   1      41.694  44.607  52.828  0.00  0.00     0.101 A 
HETATM    6  C   UNK N   1      41.863  45.412  50.167  0.00  0.00     0.003 A 
HETATM    7  C   UNK N   1      41.739  45.562  48.800  0.00  0.00     0.047 A 
HETATM    8  C   UNK N   1      42.447  45.757  52.471  0.00  0.00     0.040 A 
HETATM    9  C   UNK N   1      42.533  46.169  51.125  0.00  0.00     0.017 A 
ENDROOT
BRANCH   3  10
HETATM   10  C   UNK N   1      40.490  44.153  47.011  0.00  0.00     0.103 C 
BRANCH  10  11
HETATM   11  C   UNK N   1      41.607  43.479  46.249  0.00  0.00    -0.052 A 
HETATM   12  C   UNK N   1      42.294  42.381  46.789  0.00  0.00     0.010 A 
HETATM   13  C   UNK N   1      43.337  41.781  46.071  0.00  0.00     0.037 A 
HETATM   14  C   UNK N   1      43.701  42.268  44.810  0.00  0.00     0.065 A 
HETATM   15  C   UNK N   1      43.020  43.367  44.268  0.00  0.00     0.037 A 
HETATM   16  C   UNK N   1      41.981  43.970  44.983  0.00  0.00     0.010 A 
BRANCH  14  17
HETATM   17  O   UNK N   1      44.705  41.680  44.129  0.00  0.00    -0.361 OA
HETATM   18  H   UNK N   1      44.538  41.120  43.356  0.00  0.00     0.217 HD
ENDBRANCH  14  17
ENDBRANCH  10  11
ENDBRANCH   3  10
BRANCH   4  19
HETATM   19  O   UNK N   1      40.299  42.763  52.179  0.00  0.00    -0.351 OA
HETATM   20  C   UNK N   1      39.336  42.742  53.173  0.00  0.00     0.210 C 
ENDBRANCH   4  19
BRANCH   5  21
HETATM   21  O   UNK N   1      41.598  44.228  54.120  0.00  0.00    -0.358 OA
HETATM   22  H   UNK N   1      42.065  43.452  54.460  0.00  0.00     0.218 HD
ENDBRANCH   5  21
TORSDOF 5
ENDMDL
MODEL 4
REMARK VINA RESULT:      -7.8      2.129      2.422
REMARK  5 active torsions:
REMARK  status: ('A' for Active; 'I' for Inactive)
REMARK    1  A    between atoms: O_2  and  C_7 
REMARK    2  A    between atoms: O_3  and  C_8 
REMARK    3  A    between atoms: O_4  and  C_9 
REMARK    4  A    between atoms: C_6  and  C_20 
REMARK    5  A    between atoms: C_11  and  C_20 
ROOT
HETATM    1  O   UNK N   1      41.016  46.242  49.207  0.00  0.00    -0.311 OA
HETATM    2  C   UNK N   1      40.807  46.760  48.024  0.00  0.00     0.122 A 
HETATM    3  C   UNK N   1      42.237  46.544  49.588  0.00  0.00     0.059 A 
HETATM    4  C   UNK N   1      39.653  46.649  47.237  0.00  0.00     0.136 A 
HETATM    5  C   UNK N   1      39.656  47.304  45.986  0.00  0.00     0.101 A 
HETATM    6  C   UNK N   1      41.913  47.447  47.612  0.00  0.00     0.003 A 
HETATM    7  C   UNK N   1      42.861  47.314  48.608  0.00  0.00     0.047 A 
HETATM    8  C   UNK N   1      40.798  48.038  45.568  0.00  0.00     0.040 A 
HETATM    9  C   UNK N   1      41.944  48.110  46.386  0.00  0.00     0.017 A 
ENDROOT
BRANCH   3  10
HETATM   10  C   UNK N   1      42.807  46.080  50.891  0.00  0.00     0.103 C 
BRANCH  10  11
HETATM   11  C   UNK N   1      41.848  45.117  51.552  0.00  0.00    -0.052 A 
HETATM   12  C   UNK N   1      41.084  44.219  50.791  0.00  0.00     0.010 A 
HETATM   13  C   UNK N   1      40.190  43.344  51.424  0.00  0.00     0.037 A 
HETATM   14  C   UNK N   1      40.052  43.358  52.817  0.00  0.00     0.065 A 
HETATM   15  C   UNK N   1      40.811  44.256  53.581  0.00  0.00     0.037 A 
HETATM   16  C   UNK N   1      41.702  45.131  52.953  0.00  0.00     0.010 A 
BRANCH  14  17
HETATM   17  O   UNK N   1      39.189  42.510  53.413  0.00  0.00    -0.361 OA
HETATM   18  H   UNK N   1      39.308  41.550  53.373  0.00  0.00     0.217 HD
ENDBRANCH  14  17
ENDBRANCH  10  11
ENDBRANCH   3  10
BRANCH   4  19
HETATM   19  O   UNK N   1      38.563  45.935  47.629  0.00  0.00    -0.351 OA
HETATM   20  C   UNK N   1      38.540  44.563  47.802  0.00  0.00     0.210 C 
ENDBRANCH   4  19
BRANCH   5  21
HETATM   21  O   UNK N   1      38.569  47.221  45.190  0.00  0.00    -0.358 OA
HETATM   22  H   UNK N   1      37.679  47.109  45.552  0.00  0.00     0.218 HD
ENDBRANCH   5  21
TORSDOF 5
ENDMDL
MODEL 5
REMARK VINA RESULT:      -7.3      3.921      6.479
REMARK  5 active torsions:
REMARK  status: ('A' for Active; 'I' for Inactive)
REMARK    1  A    between atoms: O_2  and  C_7 
REMARK    2  A    between atoms: O_3  and  C_8 
REMARK    3  A    between atoms: O_4  and  C_9 
REMARK    4  A    between atoms: C_6  and  C_20 
REMARK    5  A    between atoms: C_11  and  C_20 
ROOT
HETATM    1  O   UNK N   1      38.829  47.890  45.054  0.00  0.00    -0.311 OA
HETATM    2  C   UNK N   1      38.932  48.832  44.153  0.00  0.00     0.122 A 
HETATM    3  C   UNK N   1      39.723  48.107  45.993  0.00  0.00     0.059 A 
HETATM    4  C   UNK N   1      38.195  48.961  42.968  0.00  0.00     0.136 A 
HETATM    5  C   UNK N   1      38.480  50.073  42.145  0.00  0.00     0.101 A 
HETATM    6  C   UNK N   1      39.909  49.718  44.510  0.00  0.00     0.003 A 
HETATM    7  C   UNK N   1      40.445  49.264  45.699  0.00  0.00     0.047 A 
HETATM    8  C   UNK N   1      39.480  51.006  42.529  0.00  0.00     0.040 A 
HETATM    9  C   UNK N   1      40.207  50.828  43.723  0.00  0.00     0.017 A 
ENDROOT
BRANCH   3  10
HETATM   10  C   UNK N   1      39.891  47.195  47.166  0.00  0.00     0.103 C 
BRANCH  10  11
HETATM   11  C   UNK N   1      40.630  45.948  46.740  0.00  0.00    -0.052 A 
HETATM   12  C   UNK N   1      40.803  44.870  47.622  0.00  0.00     0.010 A 
HETATM   13  C   UNK N   1      41.506  43.730  47.210  0.00  0.00     0.037 A 
HETATM   14  C   UNK N   1      42.039  43.654  45.918  0.00  0.00     0.065 A 
HETATM   15  C   UNK N   1      41.872  44.730  45.035  0.00  0.00     0.037 A 
HETATM   16  C   UNK N   1      41.174  45.870  45.443  0.00  0.00     0.010 A 
BRANCH  14  17
HETATM   17  O   UNK N   1      42.711  42.550  45.534  0.00  0.00    -0.361 OA
HETATM   18  H   UNK N   1      42.275  41.688  45.458  0.00  0.00     0.217 HD
ENDBRANCH  14  17
ENDBRANCH  10  11
ENDBRANCH   3  10
BRANCH   4  19
HETATM   19  O   UNK N   1      37.247  48.061  42.591  0.00  0.00    -0.351 OA
HETATM   20  C   UNK N   1      35.915  48.117  42.960  0.00  0.00     0.210 C 
ENDBRANCH   4  19
BRANCH   5  21
HETATM   21  O   UNK N   1      37.800  50.237  40.991  0.00  0.00    -0.358 OA
HETATM   22  H   UNK N   1      37.831  51.065  40.493  0.00  0.00     0.218 HD
ENDBRANCH   5  21
TORSDOF 5
ENDMDL
MODEL 6
REMARK VINA RESULT:      -7.1      3.361      7.499
REMARK  5 active torsions:
REMARK  status: ('A' for Active; 'I' for Inactive)
REMARK    1  A    between atoms: O_2  and  C_7 
REMARK    2  A    between atoms: O_3  and  C_8 
REMARK    3  A    between atoms: O_4  and  C_9 
REMARK    4  A    between atoms: C_6  and  C_20 
REMARK    5  A    between atoms: C_11  and  C_20 
ROOT
HETATM    1  O   UNK N   1      40.029  47.043  47.551  0.00  0.00    -0.311 OA
HETATM    2  C   UNK N   1      40.619  45.895  47.341  0.00  0.00     0.122 A 
HETATM    3  C   UNK N   1      40.080  47.750  46.443  0.00  0.00     0.059 A 
HETATM    4  C   UNK N   1      40.820  44.860  48.264  0.00  0.00     0.136 A 
HETATM    5  C   UNK N   1      41.484  43.701  47.804  0.00  0.00     0.101 A 
HETATM    6  C   UNK N   1      41.059  45.823  46.050  0.00  0.00     0.003 A 
HETATM    7  C   UNK N   1      40.728  47.021  45.448  0.00  0.00     0.047 A 
HETATM    8  C   UNK N   1      41.921  43.617  46.455  0.00  0.00     0.040 A 
HETATM    9  C   UNK N   1      41.710  44.690  45.565  0.00  0.00     0.017 A 
ENDROOT
BRANCH   3  10
HETATM   10  C   UNK N   1      39.515  49.132  46.349  0.00  0.00     0.103 C 
BRANCH  10  11
HETATM   11  C   UNK N   1      39.245  49.474  44.902  0.00  0.00    -0.052 A 
HETATM   12  C   UNK N   1      39.960  50.492  44.252  0.00  0.00     0.010 A 
HETATM   13  C   UNK N   1      39.682  50.802  42.914  0.00  0.00     0.037 A 
HETATM   14  C   UNK N   1      38.693  50.100  42.215  0.00  0.00     0.065 A 
HETATM   15  C   UNK N   1      37.974  49.085  42.861  0.00  0.00     0.037 A 
HETATM   16  C   UNK N   1      38.247  48.775  44.196  0.00  0.00     0.010 A 
BRANCH  14  17
HETATM   17  O   UNK N   1      38.438  50.408  40.927  0.00  0.00    -0.361 OA
HETATM   18  H   UNK N   1      38.892  51.136  40.476  0.00  0.00     0.217 HD
ENDBRANCH  14  17
ENDBRANCH  10  11
ENDBRANCH   3  10
BRANCH   4  19
HETATM   19  O   UNK N   1      40.416  44.943  49.560  0.00  0.00    -0.351 OA
HETATM   20  C   UNK N   1      41.193  45.426  50.599  0.00  0.00     0.210 C 
ENDBRANCH   4  19
BRANCH   5  21
HETATM   21  O   UNK N   1      41.706  42.680  48.658  0.00  0.00    -0.358 OA
HETATM   22  H   UNK N   1      42.546  42.200  48.671  0.00  0.00     0.218 HD
ENDBRANCH   5  21
TORSDOF 5
ENDMDL
MODEL 7
REMARK VINA RESULT:      -7.0      2.152      3.239
REMARK  5 active torsions:
REMARK  status: ('A' for Active; 'I' for Inactive)
REMARK    1  A    between atoms: O_2  and  C_7 
REMARK    2  A    between atoms: O_3  and  C_8 
REMARK    3  A    between atoms: O_4  and  C_9 
REMARK    4  A    between atoms: C_6  and  C_20 
REMARK    5  A    between atoms: C_11  and  C_20 
ROOT
HETATM    1  O   UNK N   1      40.438  46.260  47.715  0.00  0.00    -0.311 OA
HETATM    2  C   UNK N   1      41.400  47.066  47.347  0.00  0.00     0.122 A 
HETATM    3  C   UNK N   1      40.790  45.672  48.838  0.00  0.00     0.059 A 
HETATM    4  C   UNK N   1      41.451  47.859  46.192  0.00  0.00     0.136 A 
HETATM    5  C   UNK N   1      42.599  48.661  46.008  0.00  0.00     0.101 A 
HETATM    6  C   UNK N   1      42.414  47.034  48.261  0.00  0.00     0.003 A 
HETATM    7  C   UNK N   1      42.046  46.128  49.235  0.00  0.00     0.047 A 
HETATM    8  C   UNK N   1      43.644  48.644  46.970  0.00  0.00     0.040 A 
HETATM    9  C   UNK N   1      43.555  47.820  48.110  0.00  0.00     0.017 A 
ENDROOT
BRANCH   3  10
HETATM   10  C   UNK N   1      39.921  44.663  49.519  0.00  0.00     0.103 C 
BRANCH  10  11
HETATM   11  C   UNK N   1      40.443  44.400  50.912  0.00  0.00    -0.052 A 
HETATM   12  C   UNK N   1      41.453  45.198  51.471  0.00  0.00     0.010 A 
HETATM   13  C   UNK N   1      41.933  44.927  52.759  0.00  0.00     0.037 A 
HETATM   14  C   UNK N   1      41.409  43.861  53.500  0.00  0.00     0.065 A 
HETATM   15  C   UNK N   1      40.403  43.058  52.945  0.00  0.00     0.037 A 
HETATM   16  C   UNK N   1      39.924  43.324  51.659  0.00  0.00     0.010 A 
BRANCH  14  17
HETATM   17  O   UNK N   1      41.879  43.612  54.740  0.00  0.00    -0.361 OA
HETATM   18  H   UNK N   1      41.797  42.739  55.151  0.00  0.00     0.217 HD
ENDBRANCH  14  17
ENDBRANCH  10  11
ENDBRANCH   3  10
BRANCH   4  19
HETATM   19  O   UNK N   1      40.459  47.866  45.262  0.00  0.00    -0.351 OA
HETATM   20  C   UNK N   1      39.304  48.623  45.346  0.00  0.00     0.210 C 
ENDBRANCH   4  19
BRANCH   5  21
HETATM   21  O   UNK N   1      42.697  49.436  44.907  0.00  0.00    -0.358 OA
HETATM   22  H   UNK N   1      43.520  49.505  44.403  0.00  0.00     0.218 HD
ENDBRANCH   5  21
TORSDOF 5
ENDMDL
MODEL 8
REMARK VINA RESULT:      -6.8      1.977      6.255
REMARK  5 active torsions:
REMARK  status: ('A' for Active; 'I' for Inactive)
REMARK    1  A    between atoms: O_2  and  C_7 
REMARK    2  A    between atoms: O_3  and  C_8 
REMARK    3  A    between atoms: O_4  and  C_9 
REMARK    4  A    between atoms: C_6  and  C_20 
REMARK    5  A    between atoms: C_11  and  C_20 
ROOT
HETATM    1  O   UNK N   1      41.546  45.587  49.446  0.00  0.00    -0.311 OA
HETATM    2  C   UNK N   1      41.298  45.084  50.627  0.00  0.00     0.122 A 
HETATM    3  C   UNK N   1      42.481  46.503  49.567  0.00  0.00     0.059 A 
HETATM    4  C   UNK N   1      40.348  44.107  50.955  0.00  0.00     0.136 A 
HETATM    5  C   UNK N   1      40.264  43.713  52.308  0.00  0.00     0.101 A 
HETATM    6  C   UNK N   1      42.106  45.664  51.563  0.00  0.00     0.003 A 
HETATM    7  C   UNK N   1      42.879  46.597  50.900  0.00  0.00     0.047 A 
HETATM    8  C   UNK N   1      41.121  44.300  53.277  0.00  0.00     0.040 A 
HETATM    9  C   UNK N   1      42.052  45.290  52.904  0.00  0.00     0.017 A 
ENDROOT
BRANCH   3  10
HETATM   10  C   UNK N   1      42.981  47.296  48.401  0.00  0.00     0.103 C 
BRANCH  10  11
HETATM   11  C   UNK N   1      41.874  47.464  47.387  0.00  0.00    -0.052 A 
HETATM   12  C   UNK N   1      41.884  46.753  46.178  0.00  0.00     0.010 A 
HETATM   13  C   UNK N   1      40.855  46.936  45.245  0.00  0.00     0.037 A 
HETATM   14  C   UNK N   1      39.809  47.827  45.511  0.00  0.00     0.065 A 
HETATM   15  C   UNK N   1      39.796  48.543  46.716  0.00  0.00     0.037 A 
HETATM   16  C   UNK N   1      40.823  48.365  47.647  0.00  0.00     0.010 A 
BRANCH  14  17
HETATM   17  O   UNK N   1      38.823  47.993  44.605  0.00  0.00    -0.361 OA
HETATM   18  H   UNK N   1      38.651  47.336  43.913  0.00  0.00     0.217 HD
ENDBRANCH  14  17
ENDBRANCH  10  11
ENDBRANCH   3  10
BRANCH   4  19
HETATM   19  O   UNK N   1      39.516  43.553  50.031  0.00  0.00    -0.351 OA
HETATM   20  C   UNK N   1      38.984  44.226  48.946  0.00  0.00     0.210 C 
ENDBRANCH   4  19
BRANCH   5  21
HETATM   21  O   UNK N   1      39.359  42.780  52.673  0.00  0.00    -0.358 OA
HETATM   22  H   UNK N   1      39.627  41.903  52.982  0.00  0.00     0.218 HD
ENDBRANCH   5  21
TORSDOF 5
ENDMDL
MODEL 9
REMARK VINA RESULT:      -6.6     12.501     13.833
REMARK  5 active torsions:
REMARK  status: ('A' for Active; 'I' for Inactive)
REMARK    1  A    between atoms: O_2  and  C_7 
REMARK    2  A    between atoms: O_3  and  C_8 
REMARK    3  A    between atoms: O_4  and  C_9 
REMARK    4  A    between atoms: C_6  and  C_20 
REMARK    5  A    between atoms: C_11  and  C_20 
ROOT
HETATM    1  O   UNK N   1      47.426  31.413  49.589  0.00  0.00    -0.311 OA
HETATM    2  C   UNK N   1      47.004  31.921  48.461  0.00  0.00     0.122 A 
HETATM    3  C   UNK N   1      46.676  31.875  50.565  0.00  0.00     0.059 A 
HETATM    4  C   UNK N   1      47.542  31.721  47.182  0.00  0.00     0.136 A 
HETATM    5  C   UNK N   1      46.909  32.375  46.103  0.00  0.00     0.101 A 
HETATM    6  C   UNK N   1      45.926  32.729  48.684  0.00  0.00     0.003 A 
HETATM    7  C   UNK N   1      45.698  32.723  50.047  0.00  0.00     0.047 A 
HETATM    8  C   UNK N   1      45.774  33.197  46.334  0.00  0.00     0.040 A 
HETATM    9  C   UNK N   1      45.275  33.381  47.639  0.00  0.00     0.017 A 
ENDROOT
BRANCH   3  10
HETATM   10  C   UNK N   1      46.909  31.509  51.997  0.00  0.00     0.103 C 
BRANCH  10  11
HETATM   11  C   UNK N   1      47.656  32.623  52.692  0.00  0.00    -0.052 A 
HETATM   12  C   UNK N   1      47.074  33.888  52.865  0.00  0.00     0.010 A 
HETATM   13  C   UNK N   1      47.791  34.912  53.499  0.00  0.00     0.037 A 
HETATM   14  C   UNK N   1      49.091  34.682  53.966  0.00  0.00     0.065 A 
HETATM   15  C   UNK N   1      49.677  33.421  53.792  0.00  0.00     0.037 A 
HETATM   16  C   UNK N   1      48.966  32.399  53.157  0.00  0.00     0.010 A 
BRANCH  14  17
HETATM   17  O   UNK N   1      49.769  35.675  54.576  0.00  0.00    -0.361 OA
HETATM   18  H   UNK N   1      49.557  36.608  54.420  0.00  0.00     0.217 HD
ENDBRANCH  14  17
ENDBRANCH  10  11
ENDBRANCH   3  10
BRANCH   4  19
HETATM   19  O   UNK N   1      48.638  30.946  46.960  0.00  0.00    -0.351 OA
HETATM   20  C   UNK N   1      49.947  31.366  47.118  0.00  0.00     0.210 C 
ENDBRANCH   4  19
BRANCH   5  21
HETATM   21  O   UNK N   1      47.395  32.218  44.853  0.00  0.00    -0.358 OA
HETATM   22  H   UNK N   1      47.415  31.354  44.419  0.00  0.00     0.218 HD
ENDBRANCH   5  21
TORSDOF 5
ENDMDL
