MODEL 1
REMARK VINA RESULT:      -7.6      0.000      0.000
REMARK  7 active torsions:
REMARK  status: ('A' for Active; 'I' for Inactive)
REMARK    1  A    between atoms: O_1  and  C_3 
REMARK    2  A    between atoms: O_2  and  C_10 
REMARK    3  A    between atoms: C_4  and  C_9 
REMARK    4  A    between atoms: C_9  and  C_12 
REMARK    5  A    between atoms: C_10  and  C_14 
REMARK    6  A    between atoms: C_10  and  C_15 
REMARK    7  A    between atoms: C_12  and  C_15 
ROOT
HETATM    1  C   UNK N   1      42.027  46.056  48.209  0.00  0.00     0.014 C 
HETATM    2  C   UNK N   1      42.109  47.572  48.462  0.00  0.00     0.015 C 
ENDROOT
BRANCH   1   3
HETATM    3  C   UNK N   1      41.588  45.360  49.489  0.00  0.00    -0.052 A 
HETATM    4  C   UNK N   1      42.204  45.691  50.712  0.00  0.00     0.044 A 
HETATM    5  C   UNK N   1      41.793  45.078  51.904  0.00  0.00     0.072 A 
HETATM    6  C   UNK N   1      40.768  44.117  51.890  0.00  0.00    -0.029 A 
HETATM    7  C   UNK N   1      40.158  43.781  50.669  0.00  0.00     0.010 A 
HETATM    8  C   UNK N   1      40.321  43.454  53.163  0.00  0.00     0.051 C 
HETATM    9  C   UNK N   1      40.559  44.401  49.484  0.00  0.00     0.008 A 
BRANCH   5  10
HETATM   10  O   UNK N   1      42.388  45.411  53.075  0.00  0.00    -0.360 OA
HETATM   11  H   UNK N   1      41.877  45.533  53.887  0.00  0.00     0.217 HD
ENDBRANCH   5  10
ENDBRANCH   1   3
BRANCH   1  12
HETATM   12  C   UNK N   1      41.088  45.695  47.028  0.00  0.00     0.012 C 
BRANCH  12  13
HETATM   13  C   UNK N   1      41.842  45.538  45.691  0.00  0.00     0.037 C 
BRANCH  13  14
HETATM   14  C   UNK N   1      41.566  44.194  44.981  0.00  0.00     0.146 C 
BRANCH  14  15
HETATM   15  O   UNK N   1      40.239  43.786  45.213  0.00  0.00    -0.391 OA
HETATM   16  H   UNK N   1      39.702  43.997  44.404  0.00  0.00     0.210 HD
ENDBRANCH  14  15
BRANCH  14  17
HETATM   17  C   UNK N   1      42.526  43.091  45.408  0.00  0.00    -0.065 C 
HETATM   18  C   UNK N   1      42.337  42.442  46.569  0.00  0.00     0.016 C 
HETATM   19  C   UNK N   1      43.695  42.725  44.525  0.00  0.00     0.045 C 
ENDBRANCH  14  17
ENDBRANCH  13  14
ENDBRANCH  12  13
ENDBRANCH   1  12
TORSDOF 7
ENDMDL
MODEL 2
REMARK VINA RESULT:      -7.5      1.382      2.209
REMARK  7 active torsions:
REMARK  status: ('A' for Active; 'I' for Inactive)
REMARK    1  A    between atoms: O_1  and  C_3 
REMARK    2  A    between atoms: O_2  and  C_10 
REMARK    3  A    between atoms: C_4  and  C_9 
REMARK    4  A    between atoms: C_9  and  C_12 
REMARK    5  A    between atoms: C_10  and  C_14 
REMARK    6  A    between atoms: C_10  and  C_15 
REMARK    7  A    between atoms: C_12  and  C_15 
ROOT
HETATM    1  C   UNK N   1      40.372  45.944  47.633  0.00  0.00     0.014 C 
HETATM    2  C   UNK N   1      39.042  45.238  47.314  0.00  0.00     0.015 C 
ENDROOT
BRANCH   1   3
HETATM    3  C   UNK N   1      40.788  45.605  49.057  0.00  0.00    -0.052 A 
HETATM    4  C   UNK N   1      40.034  44.679  49.805  0.00  0.00     0.044 A 
HETATM    5  C   UNK N   1      40.419  44.336  51.108  0.00  0.00     0.072 A 
HETATM    6  C   UNK N   1      41.557  44.921  51.688  0.00  0.00    -0.029 A 
HETATM    7  C   UNK N   1      42.307  45.850  50.945  0.00  0.00     0.010 A 
HETATM    8  C   UNK N   1      41.978  44.560  53.086  0.00  0.00     0.051 C 
HETATM    9  C   UNK N   1      41.930  46.182  49.643  0.00  0.00     0.008 A 
BRANCH   5  10
HETATM   10  O   UNK N   1      39.689  43.440  51.814  0.00  0.00    -0.360 OA
HETATM   11  H   UNK N   1      39.514  43.558  52.758  0.00  0.00     0.217 HD
ENDBRANCH   5  10
ENDBRANCH   1   3
BRANCH   1  12
HETATM   12  C   UNK N   1      41.497  45.590  46.624  0.00  0.00     0.012 C 
BRANCH  12  13
HETATM   13  C   UNK N   1      41.643  44.070  46.401  0.00  0.00     0.037 C 
BRANCH  13  14
HETATM   14  C   UNK N   1      42.317  43.705  45.060  0.00  0.00     0.146 C 
BRANCH  14  15
HETATM   15  O   UNK N   1      41.340  43.471  44.074  0.00  0.00    -0.391 OA
HETATM   16  H   UNK N   1      40.819  44.307  43.947  0.00  0.00     0.210 HD
ENDBRANCH  14  15
BRANCH  14  17
HETATM   17  C   UNK N   1      43.237  42.494  45.171  0.00  0.00    -0.065 C 
HETATM   18  C   UNK N   1      44.342  42.414  44.413  0.00  0.00     0.016 C 
HETATM   19  C   UNK N   1      42.904  41.381  46.135  0.00  0.00     0.045 C 
ENDBRANCH  14  17
ENDBRANCH  13  14
ENDBRANCH  12  13
ENDBRANCH   1  12
TORSDOF 7
ENDMDL
MODEL 3
REMARK VINA RESULT:      -7.2      2.402      3.773
REMARK  7 active torsions:
REMARK  status: ('A' for Active; 'I' for Inactive)
REMARK    1  A    between atoms: O_1  and  C_3 
REMARK    2  A    between atoms: O_2  and  C_10 
REMARK    3  A    between atoms: C_4  and  C_9 
REMARK    4  A    between atoms: C_9  and  C_12 
REMARK    5  A    between atoms: C_10  and  C_14 
REMARK    6  A    between atoms: C_10  and  C_15 
REMARK    7  A    between atoms: C_12  and  C_15 
ROOT
HETATM    1  C   UNK N   1      42.212  46.525  48.493  0.00  0.00     0.014 C 
HETATM    2  C   UNK N   1      42.491  47.945  49.018  0.00  0.00     0.015 C 
ENDROOT
BRANCH   1   3
HETATM    3  C   UNK N   1      41.671  45.672  49.631  0.00  0.00    -0.052 A 
HETATM    4  C   UNK N   1      42.247  45.766  50.913  0.00  0.00     0.044 A 
HETATM    5  C   UNK N   1      41.742  45.006  51.977  0.00  0.00     0.072 A 
HETATM    6  C   UNK N   1      40.661  44.132  51.774  0.00  0.00    -0.029 A 
HETATM    7  C   UNK N   1      40.091  44.031  50.493  0.00  0.00     0.010 A 
HETATM    8  C   UNK N   1      40.114  43.312  52.909  0.00  0.00     0.051 C 
HETATM    9  C   UNK N   1      40.586  44.797  49.436  0.00  0.00     0.008 A 
BRANCH   5  10
HETATM   10  O   UNK N   1      42.299  45.112  53.207  0.00  0.00    -0.360 OA
HETATM   11  H   UNK N   1      43.258  45.098  53.332  0.00  0.00     0.217 HD
ENDBRANCH   5  10
ENDBRANCH   1   3
BRANCH   1  12
HETATM   12  C   UNK N   1      41.247  46.513  47.279  0.00  0.00     0.012 C 
BRANCH  12  13
HETATM   13  C   UNK N   1      40.993  47.921  46.702  0.00  0.00     0.037 C 
BRANCH  13  14
HETATM   14  C   UNK N   1      39.520  48.172  46.312  0.00  0.00     0.146 C 
BRANCH  14  15
HETATM   15  O   UNK N   1      39.086  47.193  45.398  0.00  0.00    -0.391 OA
HETATM   16  H   UNK N   1      38.093  47.210  45.371  0.00  0.00     0.210 HD
ENDBRANCH  14  15
BRANCH  14  17
HETATM   17  C   UNK N   1      39.291  49.561  45.727  0.00  0.00    -0.065 C 
HETATM   18  C   UNK N   1      38.595  50.479  46.416  0.00  0.00     0.016 C 
HETATM   19  C   UNK N   1      39.847  49.905  44.366  0.00  0.00     0.045 C 
ENDBRANCH  14  17
ENDBRANCH  13  14
ENDBRANCH  12  13
ENDBRANCH   1  12
TORSDOF 7
ENDMDL
MODEL 4
REMARK VINA RESULT:      -6.9      1.159      1.851
REMARK  7 active torsions:
REMARK  status: ('A' for Active; 'I' for Inactive)
REMARK    1  A    between atoms: O_1  and  C_3 
REMARK    2  A    between atoms: O_2  and  C_10 
REMARK    3  A    between atoms: C_4  and  C_9 
REMARK    4  A    between atoms: C_9  and  C_12 
REMARK    5  A    between atoms: C_10  and  C_14 
REMARK    6  A    between atoms: C_10  and  C_15 
REMARK    7  A    between atoms: C_12  and  C_15 
ROOT
HETATM    1  C   UNK N   1      42.155  46.472  48.423  0.00  0.00     0.014 C 
HETATM    2  C   UNK N   1      42.331  47.978  48.686  0.00  0.00     0.015 C 
ENDROOT
BRANCH   1   3
HETATM    3  C   UNK N   1      41.793  45.778  49.729  0.00  0.00    -0.052 A 
HETATM    4  C   UNK N   1      40.745  44.837  49.755  0.00  0.00     0.044 A 
HETATM    5  C   UNK N   1      40.417  44.171  50.943  0.00  0.00     0.072 A 
HETATM    6  C   UNK N   1      41.123  44.442  52.127  0.00  0.00    -0.029 A 
HETATM    7  C   UNK N   1      42.165  45.386  52.104  0.00  0.00     0.010 A 
HETATM    8  C   UNK N   1      40.778  43.733  53.407  0.00  0.00     0.051 C 
HETATM    9  C   UNK N   1      42.499  46.041  50.917  0.00  0.00     0.008 A 
BRANCH   5  10
HETATM   10  O   UNK N   1      39.411  43.263  50.953  0.00  0.00    -0.360 OA
HETATM   11  H   UNK N   1      39.354  42.562  50.288  0.00  0.00     0.217 HD
ENDBRANCH   5  10
ENDBRANCH   1   3
BRANCH   1  12
HETATM   12  C   UNK N   1      41.104  46.173  47.323  0.00  0.00     0.012 C 
BRANCH  12  13
HETATM   13  C   UNK N   1      41.741  45.906  45.943  0.00  0.00     0.037 C 
BRANCH  13  14
HETATM   14  C   UNK N   1      41.279  44.582  45.295  0.00  0.00     0.146 C 
BRANCH  14  15
HETATM   15  O   UNK N   1      39.978  44.259  45.725  0.00  0.00    -0.391 OA
HETATM   16  H   UNK N   1      39.404  45.061  45.610  0.00  0.00     0.210 HD
ENDBRANCH  14  15
BRANCH  14  17
HETATM   17  C   UNK N   1      42.222  43.420  45.587  0.00  0.00    -0.065 C 
HETATM   18  C   UNK N   1      43.086  42.999  44.649  0.00  0.00     0.016 C 
HETATM   19  C   UNK N   1      42.183  42.739  46.933  0.00  0.00     0.045 C 
ENDBRANCH  14  17
ENDBRANCH  13  14
ENDBRANCH  12  13
ENDBRANCH   1  12
TORSDOF 7
ENDMDL
MODEL 5
REMARK VINA RESULT:      -6.6      1.725      6.049
REMARK  7 active torsions:
REMARK  status: ('A' for Active; 'I' for Inactive)
REMARK    1  A    between atoms: O_1  and  C_3 
REMARK    2  A    between atoms: O_2  and  C_10 
REMARK    3  A    between atoms: C_4  and  C_9 
REMARK    4  A    between atoms: C_9  and  C_12 
REMARK    5  A    between atoms: C_10  and  C_14 
REMARK    6  A    between atoms: C_10  and  C_15 
REMARK    7  A    between atoms: C_12  and  C_15 
ROOT
HETATM    1  C   UNK N   1      40.143  45.041  47.407  0.00  0.00     0.014 C 
HETATM    2  C   UNK N   1      40.582  46.509  47.558  0.00  0.00     0.015 C 
ENDROOT
BRANCH   1   3
HETATM    3  C   UNK N   1      41.185  44.292  46.589  0.00  0.00    -0.052 A 
HETATM    4  C   UNK N   1      41.745  43.100  47.091  0.00  0.00     0.044 A 
HETATM    5  C   UNK N   1      42.686  42.384  46.338  0.00  0.00     0.072 A 
HETATM    6  C   UNK N   1      43.091  42.854  45.078  0.00  0.00    -0.029 A 
HETATM    7  C   UNK N   1      42.539  44.047  44.579  0.00  0.00     0.010 A 
HETATM    8  C   UNK N   1      44.101  42.094  44.263  0.00  0.00     0.051 C 
HETATM    9  C   UNK N   1      41.593  44.753  45.324  0.00  0.00     0.008 A 
BRANCH   5  10
HETATM   10  O   UNK N   1      43.210  41.235  46.829  0.00  0.00    -0.360 OA
HETATM   11  H   UNK N   1      43.237  41.055  47.778  0.00  0.00     0.217 HD
ENDBRANCH   5  10
ENDBRANCH   1   3
BRANCH   1  12
HETATM   12  C   UNK N   1      39.899  44.345  48.771  0.00  0.00     0.012 C 
BRANCH  12  13
HETATM   13  C   UNK N   1      40.471  45.143  49.962  0.00  0.00     0.037 C 
BRANCH  13  14
HETATM   14  C   UNK N   1      41.477  44.340  50.817  0.00  0.00     0.146 C 
BRANCH  14  15
HETATM   15  O   UNK N   1      41.460  42.984  50.441  0.00  0.00    -0.391 OA
HETATM   16  H   UNK N   1      41.173  42.927  49.491  0.00  0.00     0.210 HD
ENDBRANCH  14  15
BRANCH  14  17
HETATM   17  C   UNK N   1      41.211  44.463  52.313  0.00  0.00    -0.065 C 
HETATM   18  C   UNK N   1      41.904  45.344  53.052  0.00  0.00     0.016 C 
HETATM   19  C   UNK N   1      40.166  43.591  52.966  0.00  0.00     0.045 C 
ENDBRANCH  14  17
ENDBRANCH  13  14
ENDBRANCH  12  13
ENDBRANCH   1  12
TORSDOF 7
ENDMDL
MODEL 6
REMARK VINA RESULT:      -6.6      2.484      6.513
REMARK  7 active torsions:
REMARK  status: ('A' for Active; 'I' for Inactive)
REMARK    1  A    between atoms: O_1  and  C_3 
REMARK    2  A    between atoms: O_2  and  C_10 
REMARK    3  A    between atoms: C_4  and  C_9 
REMARK    4  A    between atoms: C_9  and  C_12 
REMARK    5  A    between atoms: C_10  and  C_14 
REMARK    6  A    between atoms: C_10  and  C_15 
REMARK    7  A    between atoms: C_12  and  C_15 
ROOT
HETATM    1  C   UNK N   1      40.064  44.784  48.596  0.00  0.00     0.014 C 
HETATM    2  C   UNK N   1      38.648  44.573  48.031  0.00  0.00     0.015 C 
ENDROOT
BRANCH   1   3
HETATM    3  C   UNK N   1      40.749  45.899  47.819  0.00  0.00    -0.052 A 
HETATM    4  C   UNK N   1      40.154  46.403  46.645  0.00  0.00     0.044 A 
HETATM    5  C   UNK N   1      40.759  47.447  45.933  0.00  0.00     0.072 A 
HETATM    6  C   UNK N   1      41.974  47.997  46.376  0.00  0.00    -0.029 A 
HETATM    7  C   UNK N   1      42.572  47.489  47.543  0.00  0.00     0.010 A 
HETATM    8  C   UNK N   1      42.631  49.117  45.619  0.00  0.00     0.051 C 
HETATM    9  C   UNK N   1      41.963  46.458  48.258  0.00  0.00     0.008 A 
BRANCH   5  10
HETATM   10  O   UNK N   1      40.173  47.928  44.811  0.00  0.00    -0.360 OA
HETATM   11  H   UNK N   1      39.213  48.034  44.745  0.00  0.00     0.217 HD
ENDBRANCH   5  10
ENDBRANCH   1   3
BRANCH   1  12
HETATM   12  C   UNK N   1      40.064  45.084  50.118  0.00  0.00     0.012 C 
BRANCH  12  13
HETATM   13  C   UNK N   1      41.221  44.388  50.865  0.00  0.00     0.037 C 
BRANCH  13  14
HETATM   14  C   UNK N   1      41.198  44.618  52.391  0.00  0.00     0.146 C 
BRANCH  14  15
HETATM   15  O   UNK N   1      42.395  45.233  52.808  0.00  0.00    -0.391 OA
HETATM   16  H   UNK N   1      42.760  45.753  52.044  0.00  0.00     0.210 HD
ENDBRANCH  14  15
BRANCH  14  17
HETATM   17  C   UNK N   1      40.978  43.333  53.181  0.00  0.00    -0.065 C 
HETATM   18  C   UNK N   1      42.027  42.589  53.567  0.00  0.00     0.016 C 
HETATM   19  C   UNK N   1      39.577  42.894  53.529  0.00  0.00     0.045 C 
ENDBRANCH  14  17
ENDBRANCH  13  14
ENDBRANCH  12  13
ENDBRANCH   1  12
TORSDOF 7
ENDMDL
MODEL 7
REMARK VINA RESULT:      -6.6      1.767      2.272
REMARK  7 active torsions:
REMARK  status: ('A' for Active; 'I' for Inactive)
REMARK    1  A    between atoms: O_1  and  C_3 
REMARK    2  A    between atoms: O_2  and  C_10 
REMARK    3  A    between atoms: C_4  and  C_9 
REMARK    4  A    between atoms: C_9  and  C_12 
REMARK    5  A    between atoms: C_10  and  C_14 
REMARK    6  A    between atoms: C_10  and  C_15 
REMARK    7  A    between atoms: C_12  and  C_15 
ROOT
HETATM    1  C   UNK N   1      42.296  46.521  49.001  0.00  0.00     0.014 C 
HETATM    2  C   UNK N   1      43.346  47.420  49.677  0.00  0.00     0.015 C 
ENDROOT
BRANCH   1   3
HETATM    3  C   UNK N   1      41.679  45.604  50.047  0.00  0.00    -0.052 A 
HETATM    4  C   UNK N   1      42.181  45.604  51.363  0.00  0.00     0.044 A 
HETATM    5  C   UNK N   1      41.606  44.784  52.344  0.00  0.00     0.072 A 
HETATM    6  C   UNK N   1      40.527  43.944  52.023  0.00  0.00    -0.029 A 
HETATM    7  C   UNK N   1      40.029  43.938  50.708  0.00  0.00     0.010 A 
HETATM    8  C   UNK N   1      39.904  43.061  53.068  0.00  0.00     0.051 C 
HETATM    9  C   UNK N   1      40.595  44.763  49.734  0.00  0.00     0.008 A 
BRANCH   5  10
HETATM   10  O   UNK N   1      42.094  44.800  53.608  0.00  0.00    -0.360 OA
HETATM   11  H   UNK N   1      42.812  44.213  53.882  0.00  0.00     0.217 HD
ENDBRANCH   5  10
ENDBRANCH   1   3
BRANCH   1  12
HETATM   12  C   UNK N   1      41.204  47.330  48.254  0.00  0.00     0.012 C 
BRANCH  12  13
HETATM   13  C   UNK N   1      41.377  47.297  46.721  0.00  0.00     0.037 C 
BRANCH  13  14
HETATM   14  C   UNK N   1      41.291  45.876  46.121  0.00  0.00     0.146 C 
BRANCH  14  15
HETATM   15  O   UNK N   1      41.662  45.900  44.763  0.00  0.00    -0.391 OA
HETATM   16  H   UNK N   1      40.849  45.730  44.215  0.00  0.00     0.210 HD
ENDBRANCH  14  15
BRANCH  14  17
HETATM   17  C   UNK N   1      39.906  45.256  46.265  0.00  0.00    -0.065 C 
HETATM   18  C   UNK N   1      39.750  43.925  46.181  0.00  0.00     0.016 C 
HETATM   19  C   UNK N   1      38.706  46.140  46.503  0.00  0.00     0.045 C 
ENDBRANCH  14  17
ENDBRANCH  13  14
ENDBRANCH  12  13
ENDBRANCH   1  12
TORSDOF 7
ENDMDL
MODEL 8
REMARK VINA RESULT:      -6.6      2.882      4.286
REMARK  7 active torsions:
REMARK  status: ('A' for Active; 'I' for Inactive)
REMARK    1  A    between atoms: O_1  and  C_3 
REMARK    2  A    between atoms: O_2  and  C_10 
REMARK    3  A    between atoms: C_4  and  C_9 
REMARK    4  A    between atoms: C_9  and  C_12 
REMARK    5  A    between atoms: C_10  and  C_14 
REMARK    6  A    between atoms: C_10  and  C_15 
REMARK    7  A    between atoms: C_12  and  C_15 
ROOT
HETATM    1  C   UNK N   1      40.452  45.463  47.851  0.00  0.00     0.014 C 
HETATM    2  C   UNK N   1      41.274  44.497  46.979  0.00  0.00     0.015 C 
ENDROOT
BRANCH   1   3
HETATM    3  C   UNK N   1      40.800  45.230  49.314  0.00  0.00    -0.052 A 
HETATM    4  C   UNK N   1      40.036  44.329  50.081  0.00  0.00     0.044 A 
HETATM    5  C   UNK N   1      40.360  44.084  51.423  0.00  0.00     0.072 A 
HETATM    6  C   UNK N   1      41.445  44.745  52.022  0.00  0.00    -0.029 A 
HETATM    7  C   UNK N   1      42.204  45.650  51.259  0.00  0.00     0.010 A 
HETATM    8  C   UNK N   1      41.800  44.490  53.460  0.00  0.00     0.051 C 
HETATM    9  C   UNK N   1      41.888  45.885  49.920  0.00  0.00     0.008 A 
BRANCH   5  10
HETATM   10  O   UNK N   1      39.622  43.209  52.147  0.00  0.00    -0.360 OA
HETATM   11  H   UNK N   1      38.780  42.863  51.820  0.00  0.00     0.217 HD
ENDBRANCH   5  10
ENDBRANCH   1   3
BRANCH   1  12
HETATM   12  C   UNK N   1      40.658  46.949  47.458  0.00  0.00     0.012 C 
BRANCH  12  13
HETATM   13  C   UNK N   1      39.487  47.517  46.629  0.00  0.00     0.037 C 
BRANCH  13  14
HETATM   14  C   UNK N   1      39.933  48.204  45.320  0.00  0.00     0.146 C 
BRANCH  14  15
HETATM   15  O   UNK N   1      41.321  48.441  45.344  0.00  0.00    -0.391 OA
HETATM   16  H   UNK N   1      41.522  49.036  46.114  0.00  0.00     0.210 HD
ENDBRANCH  14  15
BRANCH  14  17
HETATM   17  C   UNK N   1      39.193  49.510  45.055  0.00  0.00    -0.065 C 
HETATM   18  C   UNK N   1      38.765  50.265  46.080  0.00  0.00     0.016 C 
HETATM   19  C   UNK N   1      38.938  49.957  43.636  0.00  0.00     0.045 C 
ENDBRANCH  14  17
ENDBRANCH  13  14
ENDBRANCH  12  13
ENDBRANCH   1  12
TORSDOF 7
ENDMDL
MODEL 9
REMARK VINA RESULT:      -6.6      3.523      4.583
REMARK  7 active torsions:
REMARK  status: ('A' for Active; 'I' for Inactive)
REMARK    1  A    between atoms: O_1  and  C_3 
REMARK    2  A    between atoms: O_2  and  C_10 
REMARK    3  A    between atoms: C_4  and  C_9 
REMARK    4  A    between atoms: C_9  and  C_12 
REMARK    5  A    between atoms: C_10  and  C_14 
REMARK    6  A    between atoms: C_10  and  C_15 
REMARK    7  A    between atoms: C_12  and  C_15 
ROOT
HETATM    1  C   UNK N   1      41.318  47.140  47.076  0.00  0.00     0.014 C 
HETATM    2  C   UNK N   1      42.656  47.869  47.293  0.00  0.00     0.015 C 
ENDROOT
BRANCH   1   3
HETATM    3  C   UNK N   1      41.049  46.230  48.266  0.00  0.00    -0.052 A 
HETATM    4  C   UNK N   1      41.856  46.324  49.417  0.00  0.00     0.044 A 
HETATM    5  C   UNK N   1      41.603  45.511  50.531  0.00  0.00     0.072 A 
HETATM    6  C   UNK N   1      40.547  44.584  50.507  0.00  0.00    -0.029 A 
HETATM    7  C   UNK N   1      39.746  44.484  49.356  0.00  0.00     0.010 A 
HETATM    8  C   UNK N   1      40.270  43.708  51.697  0.00  0.00     0.051 C 
HETATM    9  C   UNK N   1      39.991  45.302  48.252  0.00  0.00     0.008 A 
BRANCH   5  10
HETATM   10  O   UNK N   1      42.381  45.617  51.634  0.00  0.00    -0.360 OA
HETATM   11  H   UNK N   1      42.515  44.871  52.234  0.00  0.00     0.217 HD
ENDBRANCH   5  10
ENDBRANCH   1   3
BRANCH   1  12
HETATM   12  C   UNK N   1      40.135  48.114  46.840  0.00  0.00     0.012 C 
BRANCH  12  13
HETATM   13  C   UNK N   1      39.830  48.334  45.343  0.00  0.00     0.037 C 
BRANCH  13  14
HETATM   14  C   UNK N   1      39.576  49.812  44.975  0.00  0.00     0.146 C 
BRANCH  14  15
HETATM   15  O   UNK N   1      38.674  50.392  45.887  0.00  0.00    -0.391 OA
HETATM   16  H   UNK N   1      39.189  50.971  46.509  0.00  0.00     0.210 HD
ENDBRANCH  14  15
BRANCH  14  17
HETATM   17  C   UNK N   1      39.054  49.986  43.553  0.00  0.00    -0.065 C 
HETATM   18  C   UNK N   1      39.578  50.927  42.751  0.00  0.00     0.016 C 
HETATM   19  C   UNK N   1      37.943  49.099  43.045  0.00  0.00     0.045 C 
ENDBRANCH  14  17
ENDBRANCH  13  14
ENDBRANCH  12  13
ENDBRANCH   1  12
TORSDOF 7
ENDMDL
