MODEL 1
REMARK VINA RESULT:      -6.4      0.000      0.000
REMARK  9 active torsions:
REMARK  status: ('A' for Active; 'I' for Inactive)
REMARK    1  A    between atoms: O_1  and  C_7 
REMARK    2  A    between atoms: O_1  and  C_19 
REMARK    3  A    between atoms: O_2  and  C_8 
REMARK    4  A    between atoms: O_3  and  C_9 
REMARK    5  A    between atoms: C_9  and  C_16 
REMARK    6  A    between atoms: C_9  and  C_20 
REMARK    7  A    between atoms: C_10  and  C_16 
REMARK    8  A    between atoms: C_20  and  C_32 
REMARK    9  A    between atoms: C_32  and  C_35 
ROOT
HETATM    1  O   UNK N   1      54.685  34.538  55.834  0.00  0.00    -0.293 OA
HETATM    2  C   UNK N   1      47.578  33.856  49.826  0.00  0.00     0.138 C 
HETATM    3  C   UNK N   1      50.223  35.027  54.055  0.00  0.00     0.124 C 
HETATM    4  C   UNK N   1      48.672  32.808  49.416  0.00  0.00     0.031 C 
HETATM    5  C   UNK N   1      51.472  34.181  54.433  0.00  0.00     0.038 C 
HETATM    6  C   UNK N   1      51.764  33.034  53.394  0.00  0.00    -0.007 A 
HETATM    7  C   UNK N   1      48.548  31.674  50.497  0.00  0.00    -0.030 C 
HETATM    8  C   UNK N   1      50.613  32.428  52.560  0.00  0.00    -0.023 A 
HETATM    9  C   UNK N   1      48.144  32.494  51.800  0.00  0.00    -0.029 C 
HETATM   10  C   UNK N   1      49.363  33.336  52.382  0.00  0.00     0.006 C 
HETATM   11  C   UNK N   1      52.725  35.086  54.617  0.00  0.00     0.063 C 
HETATM   12  C   UNK N   1      53.909  34.216  54.948  0.00  0.00     0.153 C 
HETATM   13  C   UNK N   1      47.078  33.439  51.230  0.00  0.00     0.043 C 
HETATM   14  C   UNK N   1      49.018  34.174  53.652  0.00  0.00     0.038 C 
HETATM   15  C   UNK N   1      50.923  31.781  53.874  0.00  0.00     0.026 A 
HETATM   16  C   UNK N   1      53.190  32.477  53.389  0.00  0.00    -0.012 C 
HETATM   17  C   UNK N   1      49.852  30.852  50.766  0.00  0.00     0.011 C 
HETATM   18  C   UNK N   1      51.032  31.688  51.278  0.00  0.00     0.012 C 
HETATM   19  C   UNK N   1      47.446  30.661  50.047  0.00  0.00     0.016 C 
HETATM   20  C   UNK N   1      47.543  31.597  52.918  0.00  0.00     0.016 C 
HETATM   21  C   UNK N   1      53.077  35.914  53.362  0.00  0.00     0.018 C 
HETATM   22  C   UNK N   1      54.162  33.011  54.144  0.00  0.00     0.047 C 
ENDROOT
BRANCH   4  23
HETATM   23  C   UNK N   1      48.735  32.486  47.870  0.00  0.00     0.025 C 
HETATM   24  C   UNK N   1      47.510  31.708  47.342  0.00  0.00     0.013 C 
BRANCH  23  25
HETATM   25  C   UNK N   1      50.033  31.686  47.532  0.00  0.00     0.196 C 
BRANCH  25  26
HETATM   26  O   UNK N   1      49.761  30.620  46.649  0.00  0.00    -0.387 OA
HETATM   27  H   UNK N   1      50.579  30.416  46.130  0.00  0.00     0.210 HD
ENDBRANCH  25  26
BRANCH  25  28
HETATM   28  C   UNK N   1      51.184  32.542  47.019  0.00  0.00     0.184 C 
HETATM   29  O   UNK N   1      51.440  32.563  45.824  0.00  0.00    -0.290 OA
BRANCH  28  30
HETATM   30  C   UNK N   1      52.178  33.094  47.967  0.00  0.00    -0.016 C 
HETATM   31  C   UNK N   1      51.889  34.258  48.571  0.00  0.00     0.023 C 
BRANCH  30  32
HETATM   32  C   UNK N   1      53.474  32.351  48.260  0.00  0.00     0.013 C 
HETATM   33  C   UNK N   1      54.156  32.892  49.523  0.00  0.00     0.015 C 
HETATM   34  C   UNK N   1      53.216  30.841  48.397  0.00  0.00     0.015 C 
ENDBRANCH  30  32
ENDBRANCH  28  30
ENDBRANCH  25  28
ENDBRANCH  23  25
ENDBRANCH   4  23
BRANCH   2  35
HETATM   35  O   UNK N   1      46.512  33.891  48.938  0.00  0.00    -0.316 OA
BRANCH  35  36
HETATM   36  C   UNK N   1      45.223  34.137  49.312  0.00  0.00     0.255 C 
HETATM   37  O   UNK N   1      44.928  35.150  49.917  0.00  0.00    -0.266 OA
HETATM   38  C   UNK N   1      44.162  33.140  48.967  0.00  0.00     0.126 C 
ENDBRANCH  35  36
ENDBRANCH   2  35
BRANCH   3  39
HETATM   39  O   UNK N   1      49.887  35.907  55.099  0.00  0.00    -0.395 OA
HETATM   40  H   UNK N   1      50.683  35.994  55.686  0.00  0.00     0.210 HD
ENDBRANCH   3  39
TORSDOF 9
ENDMDL
MODEL 2
REMARK VINA RESULT:      -6.3      1.399      2.234
REMARK  9 active torsions:
REMARK  status: ('A' for Active; 'I' for Inactive)
REMARK    1  A    between atoms: O_1  and  C_7 
REMARK    2  A    between atoms: O_1  and  C_19 
REMARK    3  A    between atoms: O_2  and  C_8 
REMARK    4  A    between atoms: O_3  and  C_9 
REMARK    5  A    between atoms: C_9  and  C_16 
REMARK    6  A    between atoms: C_9  and  C_20 
REMARK    7  A    between atoms: C_10  and  C_16 
REMARK    8  A    between atoms: C_20  and  C_32 
REMARK    9  A    between atoms: C_32  and  C_35 
ROOT
HETATM    1  O   UNK N   1      54.642  34.108  55.717  0.00  0.00    -0.293 OA
HETATM    2  C   UNK N   1      47.444  33.920  49.782  0.00  0.00     0.138 C 
HETATM    3  C   UNK N   1      50.213  34.921  53.975  0.00  0.00     0.124 C 
HETATM    4  C   UNK N   1      48.451  32.788  49.371  0.00  0.00     0.031 C 
HETATM    5  C   UNK N   1      51.397  33.985  54.349  0.00  0.00     0.038 C 
HETATM    6  C   UNK N   1      51.590  32.811  53.318  0.00  0.00    -0.007 A 
HETATM    7  C   UNK N   1      48.251  31.676  50.464  0.00  0.00    -0.030 C 
HETATM    8  C   UNK N   1      50.388  32.288  52.500  0.00  0.00    -0.023 A 
HETATM    9  C   UNK N   1      47.924  32.535  51.763  0.00  0.00    -0.029 C 
HETATM   10  C   UNK N   1      49.209  33.287  52.325  0.00  0.00     0.006 C 
HETATM   11  C   UNK N   1      52.717  34.794  54.513  0.00  0.00     0.063 C 
HETATM   12  C   UNK N   1      53.834  33.839  54.841  0.00  0.00     0.153 C 
HETATM   13  C   UNK N   1      46.927  33.554  51.194  0.00  0.00     0.043 C 
HETATM   14  C   UNK N   1      48.942  34.159  53.591  0.00  0.00     0.038 C 
HETATM   15  C   UNK N   1      50.661  31.630  53.817  0.00  0.00     0.026 A 
HETATM   16  C   UNK N   1      52.970  32.147  53.304  0.00  0.00    -0.012 C 
HETATM   17  C   UNK N   1      49.491  30.759  50.729  0.00  0.00     0.011 C 
HETATM   18  C   UNK N   1      50.736  31.506  51.221  0.00  0.00     0.012 C 
HETATM   19  C   UNK N   1      47.070  30.746  50.033  0.00  0.00     0.016 C 
HETATM   20  C   UNK N   1      47.267  31.696  52.895  0.00  0.00     0.016 C 
HETATM   21  C   UNK N   1      53.119  35.582  53.247  0.00  0.00     0.018 C 
HETATM   22  C   UNK N   1      53.986  32.610  54.046  0.00  0.00     0.047 C 
ENDROOT
BRANCH   4  23
HETATM   23  C   UNK N   1      48.473  32.449  47.828  0.00  0.00     0.025 C 
HETATM   24  C   UNK N   1      48.013  31.012  47.496  0.00  0.00     0.013 C 
BRANCH  23  25
HETATM   25  C   UNK N   1      49.902  32.675  47.240  0.00  0.00     0.196 C 
BRANCH  25  26
HETATM   26  O   UNK N   1      50.766  33.245  48.200  0.00  0.00    -0.387 OA
HETATM   27  H   UNK N   1      51.546  33.638  47.735  0.00  0.00     0.210 HD
ENDBRANCH  25  26
BRANCH  25  28
HETATM   28  C   UNK N   1      50.526  31.437  46.609  0.00  0.00     0.184 C 
HETATM   29  O   UNK N   1      51.098  30.618  47.313  0.00  0.00    -0.290 OA
BRANCH  28  30
HETATM   30  C   UNK N   1      50.720  31.369  45.142  0.00  0.00    -0.016 C 
HETATM   31  C   UNK N   1      51.594  32.224  44.586  0.00  0.00     0.023 C 
BRANCH  30  32
HETATM   32  C   UNK N   1      49.967  30.348  44.301  0.00  0.00     0.013 C 
HETATM   33  C   UNK N   1      48.601  30.886  43.859  0.00  0.00     0.015 C 
HETATM   34  C   UNK N   1      50.800  29.933  43.077  0.00  0.00     0.015 C 
ENDBRANCH  30  32
ENDBRANCH  28  30
ENDBRANCH  25  28
ENDBRANCH  23  25
ENDBRANCH   4  23
BRANCH   2  35
HETATM   35  O   UNK N   1      46.374  34.029  48.903  0.00  0.00    -0.316 OA
BRANCH  35  36
HETATM   36  C   UNK N   1      45.068  34.030  49.297  0.00  0.00     0.255 C 
HETATM   37  O   UNK N   1      44.573  35.009  49.823  0.00  0.00    -0.266 OA
HETATM   38  C   UNK N   1      44.240  32.804  49.074  0.00  0.00     0.126 C 
ENDBRANCH  35  36
ENDBRANCH   2  35
BRANCH   3  39
HETATM   39  O   UNK N   1      49.955  35.833  55.013  0.00  0.00    -0.395 OA
HETATM   40  H   UNK N   1      48.999  36.096  54.951  0.00  0.00     0.210 HD
ENDBRANCH   3  39
TORSDOF 9
ENDMDL
MODEL 3
REMARK VINA RESULT:      -6.2     21.267     23.496
REMARK  9 active torsions:
REMARK  status: ('A' for Active; 'I' for Inactive)
REMARK    1  A    between atoms: O_1  and  C_7 
REMARK    2  A    between atoms: O_1  and  C_19 
REMARK    3  A    between atoms: O_2  and  C_8 
REMARK    4  A    between atoms: O_3  and  C_9 
REMARK    5  A    between atoms: C_9  and  C_16 
REMARK    6  A    between atoms: C_9  and  C_20 
REMARK    7  A    between atoms: C_10  and  C_16 
REMARK    8  A    between atoms: C_20  and  C_32 
REMARK    9  A    between atoms: C_32  and  C_35 
ROOT
HETATM    1  O   UNK N   1      38.966  47.022  64.239  0.00  0.00    -0.293 OA
HETATM    2  C   UNK N   1      30.560  45.627  60.434  0.00  0.00     0.138 C 
HETATM    3  C   UNK N   1      34.307  47.755  63.206  0.00  0.00     0.124 C 
HETATM    4  C   UNK N   1      31.370  44.284  60.348  0.00  0.00     0.031 C 
HETATM    5  C   UNK N   1      35.487  46.872  63.701  0.00  0.00     0.038 C 
HETATM    6  C   UNK N   1      35.357  45.372  63.238  0.00  0.00    -0.007 A 
HETATM    7  C   UNK N   1      31.370  43.736  61.820  0.00  0.00    -0.030 C 
HETATM    8  C   UNK N   1      33.964  44.762  62.962  0.00  0.00    -0.023 A 
HETATM    9  C   UNK N   1      31.415  45.075  62.679  0.00  0.00    -0.029 C 
HETATM   10  C   UNK N   1      32.840  45.780  62.617  0.00  0.00     0.006 C 
HETATM   11  C   UNK N   1      36.855  47.467  63.254  0.00  0.00     0.063 C 
HETATM   12  C   UNK N   1      37.958  46.558  63.729  0.00  0.00     0.153 C 
HETATM   13  C   UNK N   1      30.375  45.929  61.941  0.00  0.00     0.043 C 
HETATM   14  C   UNK N   1      32.937  47.109  63.428  0.00  0.00     0.038 C 
HETATM   15  C   UNK N   1      34.503  44.641  64.353  0.00  0.00     0.026 A 
HETATM   16  C   UNK N   1      36.650  44.553  63.237  0.00  0.00    -0.012 C 
HETATM   17  C   UNK N   1      32.579  42.817  62.199  0.00  0.00     0.011 C 
HETATM   18  C   UNK N   1      33.949  43.497  62.085  0.00  0.00     0.012 C 
HETATM   19  C   UNK N   1      30.066  42.905  62.054  0.00  0.00     0.016 C 
HETATM   20  C   UNK N   1      30.998  44.860  64.161  0.00  0.00     0.016 C 
HETATM   21  C   UNK N   1      36.989  47.622  61.724  0.00  0.00     0.018 C 
HETATM   22  C   UNK N   1      37.840  45.109  63.506  0.00  0.00     0.047 C 
ENDROOT
BRANCH   4  23
HETATM   23  C   UNK N   1      31.002  43.367  59.114  0.00  0.00     0.025 C 
HETATM   24  C   UNK N   1      31.545  41.925  59.223  0.00  0.00     0.013 C 
BRANCH  23  25
HETATM   25  C   UNK N   1      31.516  44.007  57.786  0.00  0.00     0.196 C 
BRANCH  25  26
HETATM   26  O   UNK N   1      32.802  44.563  57.950  0.00  0.00    -0.387 OA
HETATM   27  H   UNK N   1      32.713  45.469  58.341  0.00  0.00     0.210 HD
ENDBRANCH  25  26
BRANCH  25  28
HETATM   28  C   UNK N   1      31.472  43.076  56.581  0.00  0.00     0.184 C 
HETATM   29  O   UNK N   1      32.445  42.986  55.846  0.00  0.00    -0.290 OA
BRANCH  28  30
HETATM   30  C   UNK N   1      30.178  42.525  56.116  0.00  0.00    -0.016 C 
HETATM   31  C   UNK N   1      29.053  43.115  56.552  0.00  0.00     0.023 C 
BRANCH  30  32
HETATM   32  C   UNK N   1      30.132  41.344  55.157  0.00  0.00     0.013 C 
HETATM   33  C   UNK N   1      29.208  40.237  55.677  0.00  0.00     0.015 C 
HETATM   34  C   UNK N   1      29.687  41.798  53.757  0.00  0.00     0.015 C 
ENDBRANCH  30  32
ENDBRANCH  28  30
ENDBRANCH  25  28
ENDBRANCH  23  25
ENDBRANCH   4  23
BRANCH   2  35
HETATM   35  O   UNK N   1      29.321  45.544  59.815  0.00  0.00    -0.316 OA
BRANCH  35  36
HETATM   36  C   UNK N   1      28.933  46.355  58.788  0.00  0.00     0.255 C 
HETATM   37  O   UNK N   1      27.810  46.287  58.326  0.00  0.00    -0.266 OA
HETATM   38  C   UNK N   1      29.911  47.340  58.229  0.00  0.00     0.126 C 
ENDBRANCH  35  36
ENDBRANCH   2  35
BRANCH   3  39
HETATM   39  O   UNK N   1      34.360  49.030  63.798  0.00  0.00    -0.395 OA
HETATM   40  H   UNK N   1      35.279  49.383  63.667  0.00  0.00     0.210 HD
ENDBRANCH   3  39
TORSDOF 9
ENDMDL
MODEL 4
REMARK VINA RESULT:      -6.0     21.517     23.990
REMARK  9 active torsions:
REMARK  status: ('A' for Active; 'I' for Inactive)
REMARK    1  A    between atoms: O_1  and  C_7 
REMARK    2  A    between atoms: O_1  and  C_19 
REMARK    3  A    between atoms: O_2  and  C_8 
REMARK    4  A    between atoms: O_3  and  C_9 
REMARK    5  A    between atoms: C_9  and  C_16 
REMARK    6  A    between atoms: C_9  and  C_20 
REMARK    7  A    between atoms: C_10  and  C_16 
REMARK    8  A    between atoms: C_20  and  C_32 
REMARK    9  A    between atoms: C_32  and  C_35 
ROOT
HETATM    1  O   UNK N   1      39.558  47.743  64.401  0.00  0.00    -0.293 OA
HETATM    2  C   UNK N   1      30.908  45.937  61.401  0.00  0.00     0.138 C 
HETATM    3  C   UNK N   1      34.914  48.495  63.316  0.00  0.00     0.124 C 
HETATM    4  C   UNK N   1      31.623  44.570  61.699  0.00  0.00     0.031 C 
HETATM    5  C   UNK N   1      36.055  47.709  64.021  0.00  0.00     0.038 C 
HETATM    6  C   UNK N   1      35.805  46.155  64.030  0.00  0.00    -0.007 A 
HETATM    7  C   UNK N   1      31.656  44.484  63.268  0.00  0.00    -0.030 C 
HETATM    8  C   UNK N   1      34.364  45.599  63.984  0.00  0.00    -0.023 A 
HETATM    9  C   UNK N   1      31.830  46.010  63.686  0.00  0.00    -0.029 C 
HETATM   10  C   UNK N   1      33.294  46.553  63.380  0.00  0.00     0.006 C 
HETATM   11  C   UNK N   1      37.436  48.038  63.383  0.00  0.00     0.063 C 
HETATM   12  C   UNK N   1      38.498  47.228  64.079  0.00  0.00     0.153 C 
HETATM   13  C   UNK N   1      30.815  46.684  62.753  0.00  0.00     0.043 C 
HETATM   14  C   UNK N   1      33.516  48.051  63.755  0.00  0.00     0.038 C 
HETATM   15  C   UNK N   1      34.959  45.853  65.334  0.00  0.00     0.026 A 
HETATM   16  C   UNK N   1      37.040  45.275  64.241  0.00  0.00    -0.012 C 
HETATM   17  C   UNK N   1      32.819  43.628  63.873  0.00  0.00     0.011 C 
HETATM   18  C   UNK N   1      34.223  44.137  63.525  0.00  0.00     0.012 C 
HETATM   19  C   UNK N   1      30.313  43.862  63.771  0.00  0.00     0.016 C 
HETATM   20  C   UNK N   1      31.470  46.275  65.175  0.00  0.00     0.016 C 
HETATM   21  C   UNK N   1      37.509  47.723  61.873  0.00  0.00     0.018 C 
HETATM   22  C   UNK N   1      38.276  45.791  64.301  0.00  0.00     0.047 C 
ENDROOT
BRANCH   4  23
HETATM   23  C   UNK N   1      31.138  43.361  60.805  0.00  0.00     0.025 C 
HETATM   24  C   UNK N   1      30.265  42.334  61.561  0.00  0.00     0.013 C 
BRANCH  23  25
HETATM   25  C   UNK N   1      32.361  42.624  60.174  0.00  0.00     0.196 C 
BRANCH  25  26
HETATM   26  O   UNK N   1      32.218  41.224  60.263  0.00  0.00    -0.387 OA
HETATM   27  H   UNK N   1      33.053  40.795  59.951  0.00  0.00     0.210 HD
ENDBRANCH  25  26
BRANCH  25  28
HETATM   28  C   UNK N   1      32.684  43.051  58.748  0.00  0.00     0.184 C 
HETATM   29  O   UNK N   1      33.849  43.114  58.381  0.00  0.00    -0.290 OA
BRANCH  28  30
HETATM   30  C   UNK N   1      31.642  43.686  57.908  0.00  0.00    -0.016 C 
HETATM   31  C   UNK N   1      31.866  44.935  57.469  0.00  0.00     0.023 C 
BRANCH  30  32
HETATM   32  C   UNK N   1      30.372  42.933  57.539  0.00  0.00     0.013 C 
HETATM   33  C   UNK N   1      29.136  43.834  57.653  0.00  0.00     0.015 C 
HETATM   34  C   UNK N   1      30.479  42.348  56.121  0.00  0.00     0.015 C 
ENDBRANCH  30  32
ENDBRANCH  28  30
ENDBRANCH  25  28
ENDBRANCH  23  25
ENDBRANCH   4  23
BRANCH   2  35
HETATM   35  O   UNK N   1      29.638  45.770  60.866  0.00  0.00    -0.316 OA
BRANCH  35  36
HETATM   36  C   UNK N   1      28.975  46.743  60.177  0.00  0.00     0.255 C 
HETATM   37  O   UNK N   1      27.835  47.052  60.469  0.00  0.00    -0.266 OA
HETATM   38  C   UNK N   1      29.668  47.434  59.045  0.00  0.00     0.126 C 
ENDBRANCH  35  36
ENDBRANCH   2  35
BRANCH   3  39
HETATM   39  O   UNK N   1      35.079  49.880  63.498  0.00  0.00    -0.395 OA
HETATM   40  H   UNK N   1      35.835  50.170  62.924  0.00  0.00     0.210 HD
ENDBRANCH   3  39
TORSDOF 9
ENDMDL
MODEL 5
REMARK VINA RESULT:      -6.0     21.492     24.599
REMARK  9 active torsions:
REMARK  status: ('A' for Active; 'I' for Inactive)
REMARK    1  A    between atoms: O_1  and  C_7 
REMARK    2  A    between atoms: O_1  and  C_19 
REMARK    3  A    between atoms: O_2  and  C_8 
REMARK    4  A    between atoms: O_3  and  C_9 
REMARK    5  A    between atoms: C_9  and  C_16 
REMARK    6  A    between atoms: C_9  and  C_20 
REMARK    7  A    between atoms: C_10  and  C_16 
REMARK    8  A    between atoms: C_20  and  C_32 
REMARK    9  A    between atoms: C_32  and  C_35 
ROOT
HETATM    1  O   UNK N   1      39.243  47.244  64.000  0.00  0.00    -0.293 OA
HETATM    2  C   UNK N   1      30.320  45.653  61.781  0.00  0.00     0.138 C 
HETATM    3  C   UNK N   1      34.429  47.281  64.372  0.00  0.00     0.124 C 
HETATM    4  C   UNK N   1      31.217  44.668  60.951  0.00  0.00     0.031 C 
HETATM    5  C   UNK N   1      35.791  46.557  64.176  0.00  0.00     0.038 C 
HETATM    6  C   UNK N   1      35.705  45.374  63.141  0.00  0.00    -0.007 A 
HETATM    7  C   UNK N   1      31.689  43.597  62.000  0.00  0.00    -0.030 C 
HETATM    8  C   UNK N   1      34.368  44.632  62.917  0.00  0.00    -0.023 A 
HETATM    9  C   UNK N   1      31.823  44.463  63.329  0.00  0.00    -0.029 C 
HETATM   10  C   UNK N   1      33.086  45.429  63.292  0.00  0.00     0.006 C 
HETATM   11  C   UNK N   1      36.904  47.565  63.766  0.00  0.00     0.063 C 
HETATM   12  C   UNK N   1      38.190  46.809  63.557  0.00  0.00     0.153 C 
HETATM   13  C   UNK N   1      30.530  45.287  63.270  0.00  0.00     0.043 C 
HETATM   14  C   UNK N   1      33.257  46.315  64.564  0.00  0.00     0.038 C 
HETATM   15  C   UNK N   1      35.284  44.093  63.971  0.00  0.00     0.026 A 
HETATM   16  C   UNK N   1      37.030  44.928  62.516  0.00  0.00    -0.012 C 
HETATM   17  C   UNK N   1      33.051  42.894  61.681  0.00  0.00     0.011 C 
HETATM   18  C   UNK N   1      34.250  43.847  61.599  0.00  0.00     0.012 C 
HETATM   19  C   UNK N   1      30.604  42.477  62.107  0.00  0.00     0.016 C 
HETATM   20  C   UNK N   1      31.862  43.593  64.617  0.00  0.00     0.016 C 
HETATM   21  C   UNK N   1      36.589  48.338  62.467  0.00  0.00     0.018 C 
HETATM   22  C   UNK N   1      38.178  45.579  62.751  0.00  0.00     0.047 C 
ENDROOT
BRANCH   4  23
HETATM   23  C   UNK N   1      30.625  44.256  59.545  0.00  0.00     0.025 C 
HETATM   24  C   UNK N   1      31.388  43.102  58.858  0.00  0.00     0.013 C 
BRANCH  23  25
HETATM   25  C   UNK N   1      30.590  45.488  58.586  0.00  0.00     0.196 C 
BRANCH  25  26
HETATM   26  O   UNK N   1      31.430  45.291  57.469  0.00  0.00    -0.387 OA
HETATM   27  H   UNK N   1      31.322  46.055  56.848  0.00  0.00     0.210 HD
ENDBRANCH  25  26
BRANCH  25  28
HETATM   28  C   UNK N   1      29.192  45.908  58.152  0.00  0.00     0.184 C 
HETATM   29  O   UNK N   1      28.417  45.073  57.708  0.00  0.00    -0.290 OA
BRANCH  28  30
HETATM   30  C   UNK N   1      28.870  47.342  57.970  0.00  0.00    -0.016 C 
HETATM   31  C   UNK N   1      27.600  47.666  57.676  0.00  0.00     0.023 C 
BRANCH  30  32
HETATM   32  C   UNK N   1      29.942  48.410  58.133  0.00  0.00     0.013 C 
HETATM   33  C   UNK N   1      30.446  48.908  56.773  0.00  0.00     0.015 C 
HETATM   34  C   UNK N   1      29.414  49.586  58.971  0.00  0.00     0.015 C 
ENDBRANCH  30  32
ENDBRANCH  28  30
ENDBRANCH  25  28
ENDBRANCH  23  25
ENDBRANCH   4  23
BRANCH   2  35
HETATM   35  O   UNK N   1      28.974  45.552  61.457  0.00  0.00    -0.316 OA
BRANCH  35  36
HETATM   36  C   UNK N   1      28.109  46.607  61.477  0.00  0.00     0.255 C 
HETATM   37  O   UNK N   1      28.486  47.721  61.788  0.00  0.00    -0.266 OA
HETATM   38  C   UNK N   1      26.676  46.381  61.109  0.00  0.00     0.126 C 
ENDBRANCH  35  36
ENDBRANCH   2  35
BRANCH   3  39
HETATM   39  O   UNK N   1      34.503  48.196  65.438  0.00  0.00    -0.395 OA
HETATM   40  H   UNK N   1      34.465  47.676  66.283  0.00  0.00     0.210 HD
ENDBRANCH   3  39
TORSDOF 9
ENDMDL
MODEL 6
REMARK VINA RESULT:      -5.8     20.401     22.762
REMARK  9 active torsions:
REMARK  status: ('A' for Active; 'I' for Inactive)
REMARK    1  A    between atoms: O_1  and  C_7 
REMARK    2  A    between atoms: O_1  and  C_19 
REMARK    3  A    between atoms: O_2  and  C_8 
REMARK    4  A    between atoms: O_3  and  C_9 
REMARK    5  A    between atoms: C_9  and  C_16 
REMARK    6  A    between atoms: C_9  and  C_20 
REMARK    7  A    between atoms: C_10  and  C_16 
REMARK    8  A    between atoms: C_20  and  C_32 
REMARK    9  A    between atoms: C_32  and  C_35 
ROOT
HETATM    1  O   UNK N   1      33.861  43.368  61.707  0.00  0.00    -0.293 OA
HETATM    2  C   UNK N   1      29.130  41.003  54.020  0.00  0.00     0.138 C 
HETATM    3  C   UNK N   1      31.773  43.829  57.378  0.00  0.00     0.124 C 
HETATM    4  C   UNK N   1      28.815  39.947  55.137  0.00  0.00     0.031 C 
HETATM    5  C   UNK N   1      31.754  43.442  58.884  0.00  0.00     0.038 C 
HETATM    6  C   UNK N   1      30.889  42.157  59.168  0.00  0.00    -0.007 A 
HETATM    7  C   UNK N   1      27.854  40.703  56.125  0.00  0.00    -0.030 C 
HETATM    8  C   UNK N   1      29.714  41.788  58.235  0.00  0.00    -0.023 A 
HETATM    9  C   UNK N   1      28.399  42.196  56.049  0.00  0.00    -0.029 C 
HETATM   10  C   UNK N   1      29.794  42.366  56.793  0.00  0.00     0.006 C 
HETATM   11  C   UNK N   1      33.200  43.261  59.432  0.00  0.00     0.063 C 
HETATM   12  C   UNK N   1      33.123  42.855  60.880  0.00  0.00     0.153 C 
HETATM   13  C   UNK N   1      28.588  42.359  54.534  0.00  0.00     0.043 C 
HETATM   14  C   UNK N   1      30.385  43.809  56.734  0.00  0.00     0.038 C 
HETATM   15  C   UNK N   1      29.409  42.668  59.408  0.00  0.00     0.026 A 
HETATM   16  C   UNK N   1      31.187  41.420  60.476  0.00  0.00    -0.012 C 
HETATM   17  C   UNK N   1      27.879  40.201  57.608  0.00  0.00     0.011 C 
HETATM   18  C   UNK N   1      29.245  40.324  58.294  0.00  0.00     0.012 C 
HETATM   19  C   UNK N   1      26.384  40.562  55.613  0.00  0.00     0.016 C 
HETATM   20  C   UNK N   1      27.382  43.241  56.590  0.00  0.00     0.016 C 
HETATM   21  C   UNK N   1      34.016  42.189  58.678  0.00  0.00     0.018 C 
HETATM   22  C   UNK N   1      32.200  41.780  61.277  0.00  0.00     0.047 C 
ENDROOT
BRANCH   4  23
HETATM   23  C   UNK N   1      28.491  38.495  54.605  0.00  0.00     0.025 C 
HETATM   24  C   UNK N   1      27.174  37.905  55.154  0.00  0.00     0.013 C 
BRANCH  23  25
HETATM   25  C   UNK N   1      29.665  37.519  54.935  0.00  0.00     0.196 C 
BRANCH  25  26
HETATM   26  O   UNK N   1      30.916  38.114  54.669  0.00  0.00    -0.387 OA
HETATM   27  H   UNK N   1      31.336  37.650  53.902  0.00  0.00     0.210 HD
ENDBRANCH  25  26
BRANCH  25  28
HETATM   28  C   UNK N   1      29.622  36.938  56.342  0.00  0.00     0.184 C 
HETATM   29  O   UNK N   1      30.227  37.494  57.248  0.00  0.00    -0.290 OA
BRANCH  28  30
HETATM   30  C   UNK N   1      29.127  35.560  56.563  0.00  0.00    -0.016 C 
HETATM   31  C   UNK N   1      28.647  35.254  57.780  0.00  0.00     0.023 C 
BRANCH  30  32
HETATM   32  C   UNK N   1      29.142  34.535  55.438  0.00  0.00     0.013 C 
HETATM   33  C   UNK N   1      29.853  33.246  55.867  0.00  0.00     0.015 C 
HETATM   34  C   UNK N   1      27.713  34.225  54.965  0.00  0.00     0.015 C 
ENDBRANCH  30  32
ENDBRANCH  28  30
ENDBRANCH  25  28
ENDBRANCH  23  25
ENDBRANCH   4  23
BRANCH   2  35
HETATM   35  O   UNK N   1      28.537  40.690  52.805  0.00  0.00    -0.316 OA
BRANCH  35  36
HETATM   36  C   UNK N   1      28.290  41.606  51.824  0.00  0.00     0.255 C 
HETATM   37  O   UNK N   1      29.201  42.142  51.224  0.00  0.00    -0.266 OA
HETATM   38  C   UNK N   1      26.872  41.948  51.489  0.00  0.00     0.126 C 
ENDBRANCH  35  36
ENDBRANCH   2  35
BRANCH   3  39
HETATM   39  O   UNK N   1      32.390  45.080  57.196  0.00  0.00    -0.395 OA
HETATM   40  H   UNK N   1      32.109  45.427  56.310  0.00  0.00     0.210 HD
ENDBRANCH   3  39
TORSDOF 9
ENDMDL
MODEL 7
REMARK VINA RESULT:      -5.6     21.928     25.736
REMARK  9 active torsions:
REMARK  status: ('A' for Active; 'I' for Inactive)
REMARK    1  A    between atoms: O_1  and  C_7 
REMARK    2  A    between atoms: O_1  and  C_19 
REMARK    3  A    between atoms: O_2  and  C_8 
REMARK    4  A    between atoms: O_3  and  C_9 
REMARK    5  A    between atoms: C_9  and  C_16 
REMARK    6  A    between atoms: C_9  and  C_20 
REMARK    7  A    between atoms: C_10  and  C_16 
REMARK    8  A    between atoms: C_20  and  C_32 
REMARK    9  A    between atoms: C_32  and  C_35 
ROOT
HETATM    1  O   UNK N   1      24.928  41.030  49.223  0.00  0.00    -0.293 OA
HETATM    2  C   UNK N   1      29.657  43.431  56.901  0.00  0.00     0.138 C 
HETATM    3  C   UNK N   1      28.687  42.173  52.030  0.00  0.00     0.124 C 
HETATM    4  C   UNK N   1      28.262  42.861  57.339  0.00  0.00     0.031 C 
HETATM    5  C   UNK N   1      27.420  41.336  51.695  0.00  0.00     0.038 C 
HETATM    6  C   UNK N   1      26.567  40.991  52.973  0.00  0.00    -0.007 A 
HETATM    7  C   UNK N   1      28.388  41.311  57.116  0.00  0.00    -0.030 C 
HETATM    8  C   UNK N   1      27.245  40.893  54.358  0.00  0.00    -0.023 A 
HETATM    9  C   UNK N   1      29.335  41.230  55.839  0.00  0.00    -0.029 C 
HETATM   10  C   UNK N   1      28.585  41.669  54.506  0.00  0.00     0.006 C 
HETATM   11  C   UNK N   1      26.543  42.052  50.627  0.00  0.00     0.063 C 
HETATM   12  C   UNK N   1      25.318  41.217  50.365  0.00  0.00     0.153 C 
HETATM   13  C   UNK N   1      30.405  42.269  56.205  0.00  0.00     0.043 C 
HETATM   14  C   UNK N   1      29.472  41.626  53.224  0.00  0.00     0.038 C 
HETATM   15  C   UNK N   1      27.159  39.639  53.546  0.00  0.00     0.026 A 
HETATM   16  C   UNK N   1      25.103  40.618  52.725  0.00  0.00    -0.012 C 
HETATM   17  C   UNK N   1      27.046  40.557  56.833  0.00  0.00     0.011 C 
HETATM   18  C   UNK N   1      26.311  41.028  55.573  0.00  0.00     0.012 C 
HETATM   19  C   UNK N   1      29.024  40.664  58.389  0.00  0.00     0.016 C 
HETATM   20  C   UNK N   1      29.975  39.827  55.646  0.00  0.00     0.016 C 
HETATM   21  C   UNK N   1      26.079  43.461  51.055  0.00  0.00     0.018 C 
HETATM   22  C   UNK N   1      24.551  40.690  51.505  0.00  0.00     0.047 C 
ENDROOT
BRANCH   4  23
HETATM   23  C   UNK N   1      27.690  43.468  58.682  0.00  0.00     0.025 C 
HETATM   24  C   UNK N   1      26.379  42.806  59.160  0.00  0.00     0.013 C 
BRANCH  23  25
HETATM   25  C   UNK N   1      27.460  45.005  58.531  0.00  0.00     0.196 C 
BRANCH  25  26
HETATM   26  O   UNK N   1      26.111  45.294  58.235  0.00  0.00    -0.387 OA
HETATM   27  H   UNK N   1      25.941  46.253  58.416  0.00  0.00     0.210 HD
ENDBRANCH  25  26
BRANCH  25  28
HETATM   28  C   UNK N   1      27.951  45.833  59.712  0.00  0.00     0.184 C 
HETATM   29  O   UNK N   1      27.216  46.019  60.671  0.00  0.00    -0.290 OA
BRANCH  28  30
HETATM   30  C   UNK N   1      29.169  46.664  59.580  0.00  0.00    -0.016 C 
HETATM   31  C   UNK N   1      30.182  46.431  60.432  0.00  0.00     0.023 C 
BRANCH  30  32
HETATM   32  C   UNK N   1      29.274  47.732  58.500  0.00  0.00     0.013 C 
HETATM   33  C   UNK N   1      29.440  49.129  59.109  0.00  0.00     0.015 C 
HETATM   34  C   UNK N   1      30.437  47.424  57.543  0.00  0.00     0.015 C 
ENDBRANCH  30  32
ENDBRANCH  28  30
ENDBRANCH  25  28
ENDBRANCH  23  25
ENDBRANCH   4  23
BRANCH   2  35
HETATM   35  O   UNK N   1      30.405  43.897  57.973  0.00  0.00    -0.316 OA
BRANCH  35  36
HETATM   36  C   UNK N   1      31.768  43.853  58.021  0.00  0.00     0.255 C 
HETATM   37  O   UNK N   1      32.444  44.553  57.291  0.00  0.00    -0.266 OA
HETATM   38  C   UNK N   1      32.432  42.927  58.991  0.00  0.00     0.126 C 
ENDBRANCH  35  36
ENDBRANCH   2  35
BRANCH   3  39
HETATM   39  O   UNK N   1      29.515  42.293  50.899  0.00  0.00    -0.395 OA
HETATM   40  H   UNK N   1      30.453  42.166  51.200  0.00  0.00     0.210 HD
ENDBRANCH   3  39
TORSDOF 9
ENDMDL
MODEL 8
REMARK VINA RESULT:      -5.6     22.973     26.879
REMARK  9 active torsions:
REMARK  status: ('A' for Active; 'I' for Inactive)
REMARK    1  A    between atoms: O_1  and  C_7 
REMARK    2  A    between atoms: O_1  and  C_19 
REMARK    3  A    between atoms: O_2  and  C_8 
REMARK    4  A    between atoms: O_3  and  C_9 
REMARK    5  A    between atoms: C_9  and  C_16 
REMARK    6  A    between atoms: C_9  and  C_20 
REMARK    7  A    between atoms: C_10  and  C_16 
REMARK    8  A    between atoms: C_20  and  C_32 
REMARK    9  A    between atoms: C_32  and  C_35 
ROOT
HETATM    1  O   UNK N   1      27.831  50.792  56.069  0.00  0.00    -0.293 OA
HETATM    2  C   UNK N   1      32.080  45.990  62.849  0.00  0.00     0.138 C 
HETATM    3  C   UNK N   1      29.398  46.990  58.599  0.00  0.00     0.124 C 
HETATM    4  C   UNK N   1      31.853  47.459  63.353  0.00  0.00     0.031 C 
HETATM    5  C   UNK N   1      28.649  48.347  58.470  0.00  0.00     0.038 C 
HETATM    6  C   UNK N   1      28.849  49.271  59.729  0.00  0.00    -0.007 A 
HETATM    7  C   UNK N   1      30.312  47.532  63.656  0.00  0.00    -0.030 C 
HETATM    8  C   UNK N   1      29.139  48.648  61.114  0.00  0.00    -0.023 A 
HETATM    9  C   UNK N   1      29.704  46.571  62.542  0.00  0.00    -0.029 C 
HETATM   10  C   UNK N   1      29.760  47.222  61.092  0.00  0.00     0.006 C 
HETATM   11  C   UNK N   1      29.067  49.094  57.170  0.00  0.00     0.063 C 
HETATM   12  C   UNK N   1      28.340  50.411  57.112  0.00  0.00     0.153 C 
HETATM   13  C   UNK N   1      30.674  45.384  62.622  0.00  0.00     0.043 C 
HETATM   14  C   UNK N   1      29.191  46.315  59.957  0.00  0.00     0.038 C 
HETATM   15  C   UNK N   1      27.705  48.876  60.750  0.00  0.00     0.026 A 
HETATM   16  C   UNK N   1      28.587  50.764  59.517  0.00  0.00    -0.012 C 
HETATM   17  C   UNK N   1      29.668  48.954  63.544  0.00  0.00     0.011 C 
HETATM   18  C   UNK N   1      29.776  49.588  62.152  0.00  0.00     0.012 C 
HETATM   19  C   UNK N   1      30.056  47.020  65.111  0.00  0.00     0.016 C 
HETATM   20  C   UNK N   1      28.252  46.116  62.861  0.00  0.00     0.016 C 
HETATM   21  C   UNK N   1      30.582  49.380  57.083  0.00  0.00     0.018 C 
HETATM   22  C   UNK N   1      28.313  51.270  58.306  0.00  0.00     0.047 C 
ENDROOT
BRANCH   4  23
HETATM   23  C   UNK N   1      32.932  47.981  64.382  0.00  0.00     0.025 C 
HETATM   24  C   UNK N   1      32.503  49.250  65.151  0.00  0.00     0.013 C 
BRANCH  23  25
HETATM   25  C   UNK N   1      34.288  48.258  63.658  0.00  0.00     0.196 C 
BRANCH  25  26
HETATM   26  O   UNK N   1      34.496  49.641  63.473  0.00  0.00    -0.387 OA
HETATM   27  H   UNK N   1      33.634  50.066  63.236  0.00  0.00     0.210 HD
ENDBRANCH  25  26
BRANCH  25  28
HETATM   28  C   UNK N   1      35.496  47.605  64.316  0.00  0.00     0.184 C 
HETATM   29  O   UNK N   1      35.392  47.119  65.433  0.00  0.00    -0.290 OA
BRANCH  28  30
HETATM   30  C   UNK N   1      36.853  47.825  63.763  0.00  0.00    -0.016 C 
HETATM   31  C   UNK N   1      37.811  48.246  64.605  0.00  0.00     0.023 C 
BRANCH  30  32
HETATM   32  C   UNK N   1      37.150  47.560  62.294  0.00  0.00     0.013 C 
HETATM   33  C   UNK N   1      38.607  47.892  61.950  0.00  0.00     0.015 C 
HETATM   34  C   UNK N   1      36.833  46.100  61.930  0.00  0.00     0.015 C 
ENDBRANCH  30  32
ENDBRANCH  28  30
ENDBRANCH  25  28
ENDBRANCH  23  25
ENDBRANCH   4  23
BRANCH   2  35
HETATM   35  O   UNK N   1      32.786  45.215  63.759  0.00  0.00    -0.316 OA
BRANCH  35  36
HETATM   36  C   UNK N   1      33.811  44.385  63.412  0.00  0.00     0.255 C 
HETATM   37  O   UNK N   1      34.689  44.106  64.206  0.00  0.00    -0.266 OA
HETATM   38  C   UNK N   1      33.847  43.813  62.030  0.00  0.00     0.126 C 
ENDBRANCH  35  36
ENDBRANCH   2  35
BRANCH   3  39
HETATM   39  O   UNK N   1      29.040  46.124  57.550  0.00  0.00    -0.395 OA
HETATM   40  H   UNK N   1      29.452  45.241  57.737  0.00  0.00     0.210 HD
ENDBRANCH   3  39
TORSDOF 9
ENDMDL
MODEL 9
REMARK VINA RESULT:      -5.5     21.999     26.474
REMARK  9 active torsions:
REMARK  status: ('A' for Active; 'I' for Inactive)
REMARK    1  A    between atoms: O_1  and  C_7 
REMARK    2  A    between atoms: O_1  and  C_19 
REMARK    3  A    between atoms: O_2  and  C_8 
REMARK    4  A    between atoms: O_3  and  C_9 
REMARK    5  A    between atoms: C_9  and  C_16 
REMARK    6  A    between atoms: C_9  and  C_20 
REMARK    7  A    between atoms: C_10  and  C_16 
REMARK    8  A    between atoms: C_20  and  C_32 
REMARK    9  A    between atoms: C_32  and  C_35 
ROOT
HETATM    1  O   UNK N   1      28.367  38.184  54.097  0.00  0.00    -0.293 OA
HETATM    2  C   UNK N   1      30.056  46.662  57.610  0.00  0.00     0.138 C 
HETATM    3  C   UNK N   1      30.779  42.235  55.134  0.00  0.00     0.124 C 
HETATM    4  C   UNK N   1      28.820  46.053  58.364  0.00  0.00     0.031 C 
HETATM    5  C   UNK N   1      29.939  40.990  55.535  0.00  0.00     0.038 C 
HETATM    6  C   UNK N   1      28.923  41.294  56.698  0.00  0.00    -0.007 A 
HETATM    7  C   UNK N   1      29.442  44.965  59.313  0.00  0.00    -0.030 C 
HETATM    8  C   UNK N   1      29.219  42.417  57.716  0.00  0.00    -0.023 A 
HETATM    9  C   UNK N   1      30.667  44.427  58.451  0.00  0.00    -0.029 C 
HETATM   10  C   UNK N   1      30.192  43.528  57.228  0.00  0.00     0.006 C 
HETATM   11  C   UNK N   1      29.199  40.395  54.301  0.00  0.00     0.063 C 
HETATM   12  C   UNK N   1      28.377  39.216  54.750  0.00  0.00     0.153 C 
HETATM   13  C   UNK N   1      31.260  45.745  57.934  0.00  0.00     0.043 C 
HETATM   14  C   UNK N   1      31.354  42.987  56.337  0.00  0.00     0.038 C 
HETATM   15  C   UNK N   1      29.711  41.043  58.048  0.00  0.00     0.026 A 
HETATM   16  C   UNK N   1      27.744  40.325  56.833  0.00  0.00    -0.012 C 
HETATM   17  C   UNK N   1      28.495  43.778  59.692  0.00  0.00     0.011 C 
HETATM   18  C   UNK N   1      28.005  42.953  58.496  0.00  0.00     0.012 C 
HETATM   19  C   UNK N   1      29.887  45.648  60.647  0.00  0.00     0.016 C 
HETATM   20  C   UNK N   1      31.712  43.651  59.301  0.00  0.00     0.016 C 
HETATM   21  C   UNK N   1      28.254  41.399  53.606  0.00  0.00     0.018 C 
HETATM   22  C   UNK N   1      27.529  39.344  55.945  0.00  0.00     0.047 C 
ENDROOT
BRANCH   4  23
HETATM   23  C   UNK N   1      27.772  47.114  58.884  0.00  0.00     0.025 C 
HETATM   24  C   UNK N   1      26.878  46.601  60.035  0.00  0.00     0.013 C 
BRANCH  23  25
HETATM   25  C   UNK N   1      26.863  47.604  57.712  0.00  0.00     0.196 C 
BRANCH  25  26
HETATM   26  O   UNK N   1      26.503  46.536  56.864  0.00  0.00    -0.387 OA
HETATM   27  H   UNK N   1      25.648  46.757  56.415  0.00  0.00     0.210 HD
ENDBRANCH  25  26
BRANCH  25  28
HETATM   28  C   UNK N   1      25.636  48.390  58.155  0.00  0.00     0.184 C 
HETATM   29  O   UNK N   1      24.523  47.896  58.039  0.00  0.00    -0.290 OA
BRANCH  28  30
HETATM   30  C   UNK N   1      25.742  49.842  58.426  0.00  0.00    -0.016 C 
HETATM   31  C   UNK N   1      25.806  50.673  57.373  0.00  0.00     0.023 C 
BRANCH  30  32
HETATM   32  C   UNK N   1      25.756  50.371  59.854  0.00  0.00     0.013 C 
HETATM   33  C   UNK N   1      24.811  49.568  60.756  0.00  0.00     0.015 C 
HETATM   34  C   UNK N   1      27.183  50.355  60.425  0.00  0.00     0.015 C 
ENDBRANCH  30  32
ENDBRANCH  28  30
ENDBRANCH  25  28
ENDBRANCH  23  25
ENDBRANCH   4  23
BRANCH   2  35
HETATM   35  O   UNK N   1      30.334  47.963  58.005  0.00  0.00    -0.316 OA
BRANCH  35  36
HETATM   36  C   UNK N   1      30.326  49.030  57.155  0.00  0.00     0.255 C 
HETATM   37  O   UNK N   1      31.005  49.034  56.147  0.00  0.00    -0.266 OA
HETATM   38  C   UNK N   1      29.464  50.210  57.477  0.00  0.00     0.126 C 
ENDBRANCH  35  36
ENDBRANCH   2  35
BRANCH   3  39
HETATM   39  O   UNK N   1      31.800  41.876  54.235  0.00  0.00    -0.395 OA
HETATM   40  H   UNK N   1      32.189  41.019  54.550  0.00  0.00     0.210 HD
ENDBRANCH   3  39
TORSDOF 9
ENDMDL
