MODEL 1
REMARK VINA RESULT:      -7.0      0.000      0.000
REMARK  4 active torsions:
REMARK  status: ('A' for Active; 'I' for Inactive)
REMARK    1  A    between atoms: O_1  and  C_5 
REMARK    2  A    between atoms: O_4  and  C_13 
REMARK    3  A    between atoms: O_4  and  C_15 
REMARK    4  A    between atoms: C_11  and  C_15 
ROOT
HETATM    1  O   UNK N   1      41.813  46.686  44.790  0.00  0.00    -0.297 OA
HETATM    2  C   UNK N   1      40.070  43.951  52.996  0.00  0.00     0.150 C 
HETATM    3  C   UNK N   1      41.207  43.682  51.944  0.00  0.00    -0.000 C 
HETATM    4  C   UNK N   1      40.754  43.662  50.389  0.00  0.00    -0.029 C 
HETATM    5  C   UNK N   1      40.163  45.232  48.246  0.00  0.00    -0.035 C 
HETATM    6  C   UNK N   1      40.490  45.143  49.825  0.00  0.00     0.003 C 
HETATM    7  C   UNK N   1      41.321  44.500  47.446  0.00  0.00     0.012 C 
HETATM    8  C   UNK N   1      41.248  44.609  45.861  0.00  0.00     0.043 C 
HETATM    9  C   UNK N   1      42.234  44.795  52.297  0.00  0.00     0.019 C 
HETATM   10  C   UNK N   1      41.042  46.090  45.531  0.00  0.00     0.137 C 
HETATM   11  C   UNK N   1      40.852  44.491  54.151  0.00  0.00     0.002 C 
HETATM   12  C   UNK N   1      42.051  44.922  53.778  0.00  0.00    -0.023 C 
HETATM   13  C   UNK N   1      41.860  43.029  49.484  0.00  0.00     0.011 C 
HETATM   14  C   UNK N   1      40.126  46.725  47.736  0.00  0.00     0.017 C 
HETATM   15  C   UNK N   1      41.689  46.079  50.213  0.00  0.00     0.007 C 
HETATM   16  C   UNK N   1      41.540  43.057  47.973  0.00  0.00     0.007 C 
HETATM   17  C   UNK N   1      41.871  46.158  51.712  0.00  0.00     0.010 C 
HETATM   18  C   UNK N   1      41.902  42.322  52.351  0.00  0.00     0.020 C 
HETATM   19  C   UNK N   1      39.487  42.755  50.322  0.00  0.00     0.016 C 
HETATM   20  C   UNK N   1      38.727  44.667  48.002  0.00  0.00     0.016 C 
HETATM   21  C   UNK N   1      40.121  43.765  45.215  0.00  0.00     0.026 C 
HETATM   22  C   UNK N   1      39.943  46.856  46.206  0.00  0.00     0.080 C 
ENDROOT
BRANCH   8  23
HETATM   23  C   UNK N   1      42.583  44.119  45.216  0.00  0.00     0.196 C 
BRANCH  23  24
HETATM   24  O   UNK N   1      42.460  42.795  44.840  0.00  0.00    -0.321 OA
BRANCH  24  25
HETATM   25  C   UNK N   1      43.379  41.835  45.101  0.00  0.00     0.254 C 
HETATM   26  O   UNK N   1      43.122  40.905  45.849  0.00  0.00    -0.266 OA
HETATM   27  C   UNK N   1      44.717  41.925  44.442  0.00  0.00     0.126 C 
ENDBRANCH  24  25
ENDBRANCH  23  24
ENDBRANCH   8  23
BRANCH   2  28
HETATM   28  O   UNK N   1      39.401  42.774  53.377  0.00  0.00    -0.391 OA
HETATM   29  H   UNK N   1      38.675  43.026  54.002  0.00  0.00     0.210 HD
ENDBRANCH   2  28
TORSDOF 4
ENDMDL
MODEL 2
REMARK VINA RESULT:      -6.6     13.941     17.248
REMARK  4 active torsions:
REMARK  status: ('A' for Active; 'I' for Inactive)
REMARK    1  A    between atoms: O_1  and  C_5 
REMARK    2  A    between atoms: O_4  and  C_13 
REMARK    3  A    between atoms: O_4  and  C_15 
REMARK    4  A    between atoms: C_11  and  C_15 
ROOT
HETATM    1  O   UNK N   1      27.159  52.246  37.778  0.00  0.00    -0.297 OA
HETATM    2  C   UNK N   1      33.041  54.691  43.884  0.00  0.00     0.150 C 
HETATM    3  C   UNK N   1      31.574  54.128  43.905  0.00  0.00    -0.000 C 
HETATM    4  C   UNK N   1      30.606  54.602  42.695  0.00  0.00    -0.029 C 
HETATM    5  C   UNK N   1      29.951  54.151  40.094  0.00  0.00    -0.035 C 
HETATM    6  C   UNK N   1      30.951  53.841  41.323  0.00  0.00     0.003 C 
HETATM    7  C   UNK N   1      28.463  53.864  40.564  0.00  0.00     0.012 C 
HETATM    8  C   UNK N   1      27.344  53.975  39.439  0.00  0.00     0.043 C 
HETATM    9  C   UNK N   1      31.825  52.594  43.960  0.00  0.00     0.019 C 
HETATM   10  C   UNK N   1      27.837  53.152  38.245  0.00  0.00     0.137 C 
HETATM   11  C   UNK N   1      33.771  53.657  44.682  0.00  0.00     0.002 C 
HETATM   12  C   UNK N   1      33.093  52.520  44.755  0.00  0.00    -0.023 C 
HETATM   13  C   UNK N   1      29.108  54.294  43.014  0.00  0.00     0.011 C 
HETATM   14  C   UNK N   1      30.231  53.211  38.857  0.00  0.00     0.017 C 
HETATM   15  C   UNK N   1      31.067  52.298  41.588  0.00  0.00     0.007 C 
HETATM   16  C   UNK N   1      28.129  54.635  41.868  0.00  0.00     0.007 C 
HETATM   17  C   UNK N   1      32.150  51.987  42.597  0.00  0.00     0.010 C 
HETATM   18  C   UNK N   1      30.954  54.504  45.310  0.00  0.00     0.020 C 
HETATM   19  C   UNK N   1      30.779  56.148  42.589  0.00  0.00     0.016 C 
HETATM   20  C   UNK N   1      30.219  55.605  39.587  0.00  0.00     0.016 C 
HETATM   21  C   UNK N   1      27.036  55.424  38.987  0.00  0.00     0.026 C 
HETATM   22  C   UNK N   1      29.216  53.384  37.702  0.00  0.00     0.080 C 
ENDROOT
BRANCH   8  23
HETATM   23  C   UNK N   1      25.993  53.382  39.950  0.00  0.00     0.196 C 
BRANCH  23  24
HETATM   24  O   UNK N   1      26.239  52.439  40.930  0.00  0.00    -0.321 OA
BRANCH  24  25
HETATM   25  C   UNK N   1      25.762  51.172  40.910  0.00  0.00     0.254 C 
HETATM   26  O   UNK N   1      25.992  50.399  41.827  0.00  0.00    -0.266 OA
HETATM   27  C   UNK N   1      24.929  50.737  39.748  0.00  0.00     0.126 C 
ENDBRANCH  24  25
ENDBRANCH  23  24
ENDBRANCH   8  23
BRANCH   2  28
HETATM   28  O   UNK N   1      33.145  55.945  44.513  0.00  0.00    -0.391 OA
HETATM   29  H   UNK N   1      34.024  56.335  44.272  0.00  0.00     0.210 HD
ENDBRANCH   2  28
TORSDOF 4
ENDMDL
MODEL 3
REMARK VINA RESULT:      -6.1     13.393     15.944
REMARK  4 active torsions:
REMARK  status: ('A' for Active; 'I' for Inactive)
REMARK    1  A    between atoms: O_1  and  C_5 
REMARK    2  A    between atoms: O_4  and  C_13 
REMARK    3  A    between atoms: O_4  and  C_15 
REMARK    4  A    between atoms: C_11  and  C_15 
ROOT
HETATM    1  O   UNK N   1      28.544  50.542  60.298  0.00  0.00    -0.297 OA
HETATM    2  C   UNK N   1      30.669  42.014  59.510  0.00  0.00     0.150 C 
HETATM    3  C   UNK N   1      31.345  43.378  59.117  0.00  0.00    -0.000 C 
HETATM    4  C   UNK N   1      30.346  44.568  58.661  0.00  0.00    -0.029 C 
HETATM    5  C   UNK N   1      28.676  46.512  59.574  0.00  0.00    -0.035 C 
HETATM    6  C   UNK N   1      29.592  45.227  59.917  0.00  0.00     0.003 C 
HETATM    7  C   UNK N   1      29.561  47.576  58.799  0.00  0.00     0.012 C 
HETATM    8  C   UNK N   1      28.866  48.976  58.502  0.00  0.00     0.043 C 
HETATM    9  C   UNK N   1      32.181  43.695  60.389  0.00  0.00     0.019 C 
HETATM   10  C   UNK N   1      28.254  49.452  59.823  0.00  0.00     0.137 C 
HETATM   11  C   UNK N   1      31.707  41.412  60.404  0.00  0.00     0.002 C 
HETATM   12  C   UNK N   1      32.557  42.323  60.859  0.00  0.00    -0.023 C 
HETATM   13  C   UNK N   1      31.125  45.721  57.950  0.00  0.00     0.011 C 
HETATM   14  C   UNK N   1      28.144  47.221  60.880  0.00  0.00     0.017 C 
HETATM   15  C   UNK N   1      30.631  45.554  61.047  0.00  0.00     0.007 C 
HETATM   16  C   UNK N   1      30.253  46.938  57.566  0.00  0.00     0.007 C 
HETATM   17  C   UNK N   1      31.353  44.311  61.515  0.00  0.00     0.010 C 
HETATM   18  C   UNK N   1      32.404  43.059  57.986  0.00  0.00     0.020 C 
HETATM   19  C   UNK N   1      29.362  43.933  57.631  0.00  0.00     0.016 C 
HETATM   20  C   UNK N   1      27.401  46.026  58.810  0.00  0.00     0.016 C 
HETATM   21  C   UNK N   1      27.775  48.926  57.405  0.00  0.00     0.026 C 
HETATM   22  C   UNK N   1      27.367  48.529  60.606  0.00  0.00     0.080 C 
ENDROOT
BRANCH   8  23
HETATM   23  C   UNK N   1      29.923  50.019  58.019  0.00  0.00     0.196 C 
BRANCH  23  24
HETATM   24  O   UNK N   1      29.656  50.382  56.712  0.00  0.00    -0.321 OA
BRANCH  24  25
HETATM   25  C   UNK N   1      30.591  50.477  55.738  0.00  0.00     0.254 C 
HETATM   26  O   UNK N   1      31.756  50.183  55.953  0.00  0.00    -0.266 OA
HETATM   27  C   UNK N   1      30.167  50.933  54.379  0.00  0.00     0.126 C 
ENDBRANCH  24  25
ENDBRANCH  23  24
ENDBRANCH   8  23
BRANCH   2  28
HETATM   28  O   UNK N   1      30.451  41.181  58.398  0.00  0.00    -0.391 OA
HETATM   29  H   UNK N   1      31.071  40.411  58.468  0.00  0.00     0.210 HD
ENDBRANCH   2  28
TORSDOF 4
ENDMDL
MODEL 4
REMARK VINA RESULT:      -6.1     14.137     17.611
REMARK  4 active torsions:
REMARK  status: ('A' for Active; 'I' for Inactive)
REMARK    1  A    between atoms: O_1  and  C_5 
REMARK    2  A    between atoms: O_4  and  C_13 
REMARK    3  A    between atoms: O_4  and  C_15 
REMARK    4  A    between atoms: C_11  and  C_15 
ROOT
HETATM    1  O   UNK N   1      27.380  54.118  37.675  0.00  0.00    -0.297 OA
HETATM    2  C   UNK N   1      33.469  53.387  44.019  0.00  0.00     0.150 C 
HETATM    3  C   UNK N   1      31.901  53.295  43.956  0.00  0.00    -0.000 C 
HETATM    4  C   UNK N   1      31.168  54.274  42.894  0.00  0.00    -0.029 C 
HETATM    5  C   UNK N   1      30.514  54.584  40.271  0.00  0.00    -0.035 C 
HETATM    6  C   UNK N   1      31.326  53.744  41.386  0.00  0.00     0.003 C 
HETATM    7  C   UNK N   1      28.990  54.664  40.705  0.00  0.00     0.012 C 
HETATM    8  C   UNK N   1      28.001  55.332  39.655  0.00  0.00     0.043 C 
HETATM    9  C   UNK N   1      31.684  51.779  43.684  0.00  0.00     0.019 C 
HETATM   10  C   UNK N   1      28.276  54.664  38.304  0.00  0.00     0.137 C 
HETATM   11  C   UNK N   1      33.827  52.041  44.567  0.00  0.00     0.002 C 
HETATM   12  C   UNK N   1      32.839  51.168  44.417  0.00  0.00    -0.023 C 
HETATM   13  C   UNK N   1      29.633  54.369  43.176  0.00  0.00     0.011 C 
HETATM   14  C   UNK N   1      30.553  53.879  38.860  0.00  0.00     0.017 C 
HETATM   15  C   UNK N   1      30.970  52.217  41.320  0.00  0.00     0.007 C 
HETATM   16  C   UNK N   1      28.847  55.213  42.149  0.00  0.00     0.007 C 
HETATM   17  C   UNK N   1      31.869  51.397  42.218  0.00  0.00     0.010 C 
HETATM   18  C   UNK N   1      31.364  53.541  45.422  0.00  0.00     0.020 C 
HETATM   19  C   UNK N   1      31.794  55.685  43.108  0.00  0.00     0.016 C 
HETATM   20  C   UNK N   1      31.221  55.963  40.073  0.00  0.00     0.016 C 
HETATM   21  C   UNK N   1      28.155  56.868  39.522  0.00  0.00     0.026 C 
HETATM   22  C   UNK N   1      29.683  54.580  37.790  0.00  0.00     0.080 C 
ENDROOT
BRANCH   8  23
HETATM   23  C   UNK N   1      26.516  55.077  40.062  0.00  0.00     0.196 C 
BRANCH  23  24
HETATM   24  O   UNK N   1      25.912  56.274  40.399  0.00  0.00    -0.321 OA
BRANCH  24  25
HETATM   25  C   UNK N   1      25.099  56.448  41.468  0.00  0.00     0.254 C 
HETATM   26  O   UNK N   1      23.946  56.046  41.451  0.00  0.00    -0.266 OA
HETATM   27  C   UNK N   1      25.644  57.126  42.682  0.00  0.00     0.126 C 
ENDBRANCH  24  25
ENDBRANCH  23  24
ENDBRANCH   8  23
BRANCH   2  28
HETATM   28  O   UNK N   1      33.914  54.395  44.893  0.00  0.00    -0.391 OA
HETATM   29  H   UNK N   1      33.253  54.476  45.626  0.00  0.00     0.210 HD
ENDBRANCH   2  28
TORSDOF 4
ENDMDL
MODEL 5
REMARK VINA RESULT:      -5.7     14.047     16.381
REMARK  4 active torsions:
REMARK  status: ('A' for Active; 'I' for Inactive)
REMARK    1  A    between atoms: O_1  and  C_5 
REMARK    2  A    between atoms: O_4  and  C_13 
REMARK    3  A    between atoms: O_4  and  C_15 
REMARK    4  A    between atoms: C_11  and  C_15 
ROOT
HETATM    1  O   UNK N   1      29.955  46.298  61.729  0.00  0.00    -0.297 OA
HETATM    2  C   UNK N   1      38.147  46.623  64.992  0.00  0.00     0.150 C 
HETATM    3  C   UNK N   1      37.494  46.122  63.653  0.00  0.00    -0.000 C 
HETATM    4  C   UNK N   1      36.017  45.470  63.775  0.00  0.00    -0.029 C 
HETATM    5  C   UNK N   1      33.366  46.045  63.984  0.00  0.00    -0.035 C 
HETATM    6  C   UNK N   1      34.886  46.591  63.986  0.00  0.00     0.003 C 
HETATM    7  C   UNK N   1      33.125  45.214  62.655  0.00  0.00     0.012 C 
HETATM    8  C   UNK N   1      31.635  44.716  62.405  0.00  0.00     0.043 C 
HETATM    9  C   UNK N   1      37.558  47.403  62.772  0.00  0.00     0.019 C 
HETATM   10  C   UNK N   1      30.725  45.932  62.607  0.00  0.00     0.137 C 
HETATM   11  C   UNK N   1      39.117  47.645  64.490  0.00  0.00     0.002 C 
HETATM   12  C   UNK N   1      38.818  48.048  63.262  0.00  0.00    -0.023 C 
HETATM   13  C   UNK N   1      35.634  44.686  62.479  0.00  0.00     0.011 C 
HETATM   14  C   UNK N   1      32.317  47.225  63.985  0.00  0.00     0.017 C 
HETATM   15  C   UNK N   1      35.078  47.742  62.936  0.00  0.00     0.007 C 
HETATM   16  C   UNK N   1      34.200  44.110  62.482  0.00  0.00     0.007 C 
HETATM   17  C   UNK N   1      36.436  48.395  63.070  0.00  0.00     0.010 C 
HETATM   18  C   UNK N   1      38.512  45.107  62.994  0.00  0.00     0.020 C 
HETATM   19  C   UNK N   1      36.091  44.457  64.958  0.00  0.00     0.016 C 
HETATM   20  C   UNK N   1      33.117  45.260  65.313  0.00  0.00     0.016 C 
HETATM   21  C   UNK N   1      31.185  43.562  63.336  0.00  0.00     0.026 C 
HETATM   22  C   UNK N   1      30.850  46.754  63.856  0.00  0.00     0.080 C 
ENDROOT
BRANCH   8  23
HETATM   23  C   UNK N   1      31.472  44.187  60.945  0.00  0.00     0.196 C 
BRANCH  23  24
HETATM   24  O   UNK N   1      31.455  42.806  60.949  0.00  0.00    -0.321 OA
BRANCH  24  25
HETATM   25  C   UNK N   1      32.266  42.028  60.194  0.00  0.00     0.254 C 
HETATM   26  O   UNK N   1      32.236  40.810  60.288  0.00  0.00    -0.266 OA
HETATM   27  C   UNK N   1      33.192  42.686  59.224  0.00  0.00     0.126 C 
ENDBRANCH  24  25
ENDBRANCH  23  24
ENDBRANCH   8  23
BRANCH   2  28
HETATM   28  O   UNK N   1      38.835  45.600  65.671  0.00  0.00    -0.391 OA
HETATM   29  H   UNK N   1      38.599  45.661  66.631  0.00  0.00     0.210 HD
ENDBRANCH   2  28
TORSDOF 4
ENDMDL
MODEL 6
REMARK VINA RESULT:      -5.5     13.280     16.389
REMARK  4 active torsions:
REMARK  status: ('A' for Active; 'I' for Inactive)
REMARK    1  A    between atoms: O_1  and  C_5 
REMARK    2  A    between atoms: O_4  and  C_13 
REMARK    3  A    between atoms: O_4  and  C_15 
REMARK    4  A    between atoms: C_11  and  C_15 
ROOT
HETATM    1  O   UNK N   1      33.671  42.737  58.439  0.00  0.00    -0.297 OA
HETATM    2  C   UNK N   1      27.338  48.868  58.049  0.00  0.00     0.150 C 
HETATM    3  C   UNK N   1      28.542  48.562  59.012  0.00  0.00    -0.000 C 
HETATM    4  C   UNK N   1      28.895  46.998  59.242  0.00  0.00    -0.029 C 
HETATM    5  C   UNK N   1      30.170  44.847  58.170  0.00  0.00    -0.035 C 
HETATM    6  C   UNK N   1      29.658  46.367  57.978  0.00  0.00     0.003 C 
HETATM    7  C   UNK N   1      31.055  44.771  59.485  0.00  0.00     0.012 C 
HETATM    8  C   UNK N   1      31.769  43.378  59.763  0.00  0.00     0.043 C 
HETATM    9  C   UNK N   1      29.687  49.388  58.359  0.00  0.00     0.019 C 
HETATM   10  C   UNK N   1      32.471  42.976  58.462  0.00  0.00     0.137 C 
HETATM   11  C   UNK N   1      27.662  50.257  57.595  0.00  0.00     0.002 C 
HETATM   12  C   UNK N   1      28.938  50.557  57.796  0.00  0.00    -0.023 C 
HETATM   13  C   UNK N   1      29.836  46.805  60.475  0.00  0.00     0.011 C 
HETATM   14  C   UNK N   1      31.086  44.379  56.973  0.00  0.00     0.017 C 
HETATM   15  C   UNK N   1      30.833  47.312  57.541  0.00  0.00     0.007 C 
HETATM   16  C   UNK N   1      30.292  45.348  60.707  0.00  0.00     0.007 C 
HETATM   17  C   UNK N   1      30.329  48.687  57.164  0.00  0.00     0.010 C 
HETATM   18  C   UNK N   1      28.231  49.283  60.384  0.00  0.00     0.020 C 
HETATM   19  C   UNK N   1      27.538  46.291  59.544  0.00  0.00     0.016 C 
HETATM   20  C   UNK N   1      28.930  43.897  58.148  0.00  0.00     0.016 C 
HETATM   21  C   UNK N   1      30.810  42.248  60.214  0.00  0.00     0.026 C 
HETATM   22  C   UNK N   1      31.703  42.975  57.174  0.00  0.00     0.080 C 
ENDROOT
BRANCH   8  23
HETATM   23  C   UNK N   1      32.832  43.525  60.897  0.00  0.00     0.196 C 
BRANCH  23  24
HETATM   24  O   UNK N   1      32.344  42.976  62.068  0.00  0.00    -0.321 OA
BRANCH  24  25
HETATM   25  C   UNK N   1      32.447  43.556  63.287  0.00  0.00     0.254 C 
HETATM   26  O   UNK N   1      32.194  42.930  64.305  0.00  0.00    -0.266 OA
HETATM   27  C   UNK N   1      32.894  44.979  63.368  0.00  0.00     0.126 C 
ENDBRANCH  24  25
ENDBRANCH  23  24
ENDBRANCH   8  23
BRANCH   2  28
HETATM   28  O   UNK N   1      26.099  48.857  58.715  0.00  0.00    -0.391 OA
HETATM   29  H   UNK N   1      25.504  48.222  58.241  0.00  0.00     0.210 HD
ENDBRANCH   2  28
TORSDOF 4
ENDMDL
MODEL 7
REMARK VINA RESULT:      -5.4     13.244     15.923
REMARK  4 active torsions:
REMARK  status: ('A' for Active; 'I' for Inactive)
REMARK    1  A    between atoms: O_1  and  C_5 
REMARK    2  A    between atoms: O_4  and  C_13 
REMARK    3  A    between atoms: O_4  and  C_15 
REMARK    4  A    between atoms: C_11  and  C_15 
ROOT
HETATM    1  O   UNK N   1      29.818  42.314  52.142  0.00  0.00    -0.297 OA
HETATM    2  C   UNK N   1      28.275  35.322  57.298  0.00  0.00     0.150 C 
HETATM    3  C   UNK N   1      28.002  35.686  55.794  0.00  0.00    -0.000 C 
HETATM    4  C   UNK N   1      27.656  37.237  55.483  0.00  0.00    -0.029 C 
HETATM    5  C   UNK N   1      28.741  39.704  55.110  0.00  0.00    -0.035 C 
HETATM    6  C   UNK N   1      28.967  38.164  55.539  0.00  0.00     0.003 C 
HETATM    7  C   UNK N   1      28.061  39.739  53.677  0.00  0.00     0.012 C 
HETATM    8  C   UNK N   1      27.891  41.178  53.022  0.00  0.00     0.043 C 
HETATM    9  C   UNK N   1      29.296  35.168  55.103  0.00  0.00     0.019 C 
HETATM   10  C   UNK N   1      29.250  41.876  53.134  0.00  0.00     0.137 C 
HETATM   11  C   UNK N   1      29.110  34.088  57.162  0.00  0.00     0.002 C 
HETATM   12  C   UNK N   1      29.641  33.982  55.951  0.00  0.00    -0.023 C 
HETATM   13  C   UNK N   1      27.048  37.407  54.053  0.00  0.00     0.011 C 
HETATM   14  C   UNK N   1      30.106  40.488  54.990  0.00  0.00     0.017 C 
HETATM   15  C   UNK N   1      30.119  37.503  54.702  0.00  0.00     0.007 C 
HETATM   16  C   UNK N   1      26.775  38.872  53.646  0.00  0.00     0.007 C 
HETATM   17  C   UNK N   1      30.473  36.131  55.231  0.00  0.00     0.010 C 
HETATM   18  C   UNK N   1      26.846  34.733  55.291  0.00  0.00     0.020 C 
HETATM   19  C   UNK N   1      26.576  37.654  56.528  0.00  0.00     0.016 C 
HETATM   20  C   UNK N   1      27.940  40.424  56.243  0.00  0.00     0.016 C 
HETATM   21  C   UNK N   1      26.795  42.053  53.682  0.00  0.00     0.026 C 
HETATM   22  C   UNK N   1      29.950  41.932  54.459  0.00  0.00     0.080 C 
ENDROOT
BRANCH   8  23
HETATM   23  C   UNK N   1      27.499  41.051  51.516  0.00  0.00     0.196 C 
BRANCH  23  24
HETATM   24  O   UNK N   1      26.365  41.800  51.265  0.00  0.00    -0.321 OA
BRANCH  24  25
HETATM   25  C   UNK N   1      25.804  41.954  50.042  0.00  0.00     0.254 C 
HETATM   26  O   UNK N   1      25.840  41.055  49.216  0.00  0.00    -0.266 OA
HETATM   27  C   UNK N   1      25.120  43.243  49.724  0.00  0.00     0.126 C 
ENDBRANCH  24  25
ENDBRANCH  23  24
ENDBRANCH   8  23
BRANCH   2  28
HETATM   28  O   UNK N   1      27.094  35.028  58.004  0.00  0.00    -0.391 OA
HETATM   29  H   UNK N   1      27.082  35.587  58.822  0.00  0.00     0.210 HD
ENDBRANCH   2  28
TORSDOF 4
ENDMDL
MODEL 8
REMARK VINA RESULT:      -5.4     16.439     19.822
REMARK  4 active torsions:
REMARK  status: ('A' for Active; 'I' for Inactive)
REMARK    1  A    between atoms: O_1  and  C_5 
REMARK    2  A    between atoms: O_4  and  C_13 
REMARK    3  A    between atoms: O_4  and  C_15 
REMARK    4  A    between atoms: C_11  and  C_15 
ROOT
HETATM    1  O   UNK N   1      31.662  54.130  38.880  0.00  0.00    -0.297 OA
HETATM    2  C   UNK N   1      24.699  58.808  41.615  0.00  0.00     0.150 C 
HETATM    3  C   UNK N   1      25.785  57.907  42.308  0.00  0.00    -0.000 C 
HETATM    4  C   UNK N   1      26.304  56.629  41.459  0.00  0.00    -0.029 C 
HETATM    5  C   UNK N   1      27.988  55.841  39.473  0.00  0.00    -0.035 C 
HETATM    6  C   UNK N   1      27.314  57.062  40.287  0.00  0.00     0.003 C 
HETATM    7  C   UNK N   1      28.681  54.859  40.509  0.00  0.00     0.012 C 
HETATM    8  C   UNK N   1      29.525  53.668  39.880  0.00  0.00     0.043 C 
HETATM    9  C   UNK N   1      26.892  58.947  42.641  0.00  0.00     0.019 C 
HETATM   10  C   UNK N   1      30.450  54.290  38.829  0.00  0.00     0.137 C 
HETATM   11  C   UNK N   1      24.899  60.114  42.318  0.00  0.00     0.002 C 
HETATM   12  C   UNK N   1      26.084  60.179  42.910  0.00  0.00    -0.023 C 
HETATM   13  C   UNK N   1      27.079  55.621  42.369  0.00  0.00     0.011 C 
HETATM   14  C   UNK N   1      29.117  56.342  38.490  0.00  0.00     0.017 C 
HETATM   15  C   UNK N   1      28.404  58.035  40.860  0.00  0.00     0.007 C 
HETATM   16  C   UNK N   1      27.685  54.418  41.614  0.00  0.00     0.007 C 
HETATM   17  C   UNK N   1      27.782  59.283  41.447  0.00  0.00     0.010 C 
HETATM   18  C   UNK N   1      25.193  57.461  43.704  0.00  0.00     0.020 C 
HETATM   19  C   UNK N   1      25.023  55.921  40.922  0.00  0.00     0.016 C 
HETATM   20  C   UNK N   1      26.898  55.186  38.564  0.00  0.00     0.016 C 
HETATM   21  C   UNK N   1      28.669  52.552  39.232  0.00  0.00     0.026 C 
HETATM   22  C   UNK N   1      29.878  55.198  37.781  0.00  0.00     0.080 C 
ENDROOT
BRANCH   8  23
HETATM   23  C   UNK N   1      30.390  52.971  40.979  0.00  0.00     0.196 C 
BRANCH  23  24
HETATM   24  O   UNK N   1      30.905  53.922  41.839  0.00  0.00    -0.321 OA
BRANCH  24  25
HETATM   25  C   UNK N   1      31.188  53.700  43.144  0.00  0.00     0.254 C 
HETATM   26  O   UNK N   1      31.864  52.743  43.488  0.00  0.00    -0.266 OA
HETATM   27  C   UNK N   1      30.672  54.663  44.163  0.00  0.00     0.126 C 
ENDBRANCH  24  25
ENDBRANCH  23  24
ENDBRANCH   8  23
BRANCH   2  28
HETATM   28  O   UNK N   1      23.391  58.339  41.835  0.00  0.00    -0.391 OA
HETATM   29  H   UNK N   1      22.945  58.965  42.460  0.00  0.00     0.210 HD
ENDBRANCH   2  28
TORSDOF 4
ENDMDL
MODEL 9
REMARK VINA RESULT:      -5.1     16.422     19.887
REMARK  4 active torsions:
REMARK  status: ('A' for Active; 'I' for Inactive)
REMARK    1  A    between atoms: O_1  and  C_5 
REMARK    2  A    between atoms: O_4  and  C_13 
REMARK    3  A    between atoms: O_4  and  C_15 
REMARK    4  A    between atoms: C_11  and  C_15 
ROOT
HETATM    1  O   UNK N   1      29.846  51.461  40.361  0.00  0.00    -0.297 OA
HETATM    2  C   UNK N   1      26.765  59.427  42.572  0.00  0.00     0.150 C 
HETATM    3  C   UNK N   1      26.324  58.293  41.577  0.00  0.00    -0.000 C 
HETATM    4  C   UNK N   1      27.518  57.454  40.873  0.00  0.00    -0.029 C 
HETATM    5  C   UNK N   1      29.293  55.425  41.233  0.00  0.00    -0.035 C 
HETATM    6  C   UNK N   1      28.184  56.400  41.885  0.00  0.00     0.003 C 
HETATM    7  C   UNK N   1      28.657  54.702  39.972  0.00  0.00     0.012 C 
HETATM    8  C   UNK N   1      29.557  53.589  39.280  0.00  0.00     0.043 C 
HETATM    9  C   UNK N   1      25.381  57.438  42.470  0.00  0.00     0.019 C 
HETATM   10  C   UNK N   1      30.053  52.667  40.398  0.00  0.00     0.137 C 
HETATM   11  C   UNK N   1      25.553  59.551  43.442  0.00  0.00     0.002 C 
HETATM   12  C   UNK N   1      24.776  58.479  43.361  0.00  0.00    -0.023 C 
HETATM   13  C   UNK N   1      26.989  56.632  39.653  0.00  0.00     0.011 C 
HETATM   14  C   UNK N   1      29.741  54.290  42.235  0.00  0.00     0.017 C 
HETATM   15  C   UNK N   1      27.060  55.579  42.611  0.00  0.00     0.007 C 
HETATM   16  C   UNK N   1      28.052  55.733  38.982  0.00  0.00     0.007 C 
HETATM   17  C   UNK N   1      26.131  56.480  43.393  0.00  0.00     0.010 C 
HETATM   18  C   UNK N   1      25.386  58.965  40.497  0.00  0.00     0.020 C 
HETATM   19  C   UNK N   1      28.534  58.513  40.347  0.00  0.00     0.016 C 
HETATM   20  C   UNK N   1      30.581  56.261  40.940  0.00  0.00     0.016 C 
HETATM   21  C   UNK N   1      30.764  54.147  38.486  0.00  0.00     0.026 C 
HETATM   22  C   UNK N   1      30.708  53.256  41.612  0.00  0.00     0.080 C 
ENDROOT
BRANCH   8  23
HETATM   23  C   UNK N   1      28.714  52.757  38.263  0.00  0.00     0.196 C 
BRANCH  23  24
HETATM   24  O   UNK N   1      27.385  52.766  38.642  0.00  0.00    -0.321 OA
BRANCH  24  25
HETATM   25  C   UNK N   1      26.736  51.709  39.186  0.00  0.00     0.254 C 
HETATM   26  O   UNK N   1      26.506  50.707  38.528  0.00  0.00    -0.266 OA
HETATM   27  C   UNK N   1      26.321  51.783  40.619  0.00  0.00     0.126 C 
ENDBRANCH  24  25
ENDBRANCH  23  24
ENDBRANCH   8  23
BRANCH   2  28
HETATM   28  O   UNK N   1      27.014  60.648  41.920  0.00  0.00    -0.391 OA
HETATM   29  H   UNK N   1      27.200  61.331  42.614  0.00  0.00     0.210 HD
ENDBRANCH   2  28
TORSDOF 4
ENDMDL
