MODEL 1
REMARK VINA RESULT:      -7.8      0.000      0.000
REMARK  6 active torsions:
REMARK  status: ('A' for Active; 'I' for Inactive)
REMARK    1  A    between atoms: O_3  and  C_9 
REMARK    2  A    between atoms: O_4  and  C_10 
REMARK    3  A    between atoms: O_5  and  C_11 
REMARK    4  A    between atoms: C_13  and  C_14 
REMARK    5  A    between atoms: C_15  and  C_22 
REMARK    6  A    between atoms: C_22  and  C_24 
ROOT
HETATM    1  O   UNK N   1      38.834  45.320  47.740  0.00  0.00    -0.321 OA
HETATM    2  O   UNK N   1      41.665  48.100  47.527  0.00  0.00    -0.286 OA
HETATM    3  C   UNK N   1      39.835  45.276  48.611  0.00  0.00     0.094 A 
HETATM    4  C   UNK N   1      38.744  46.245  46.794  0.00  0.00     0.159 A 
HETATM    5  C   UNK N   1      40.806  47.239  47.574  0.00  0.00     0.200 A 
HETATM    6  C   UNK N   1      41.915  46.165  49.528  0.00  0.00     0.085 A 
HETATM    7  C   UNK N   1      40.887  44.182  50.499  0.00  0.00     0.071 A 
HETATM    8  C   UNK N   1      40.865  46.239  48.572  0.00  0.00     0.082 A 
HETATM    9  C   UNK N   1      39.726  47.243  46.648  0.00  0.00     0.048 A 
HETATM   10  C   UNK N   1      39.852  44.259  49.568  0.00  0.00     0.074 A 
HETATM   11  C   UNK N   1      41.914  45.133  50.481  0.00  0.00     0.074 A 
ENDROOT
BRANCH   9  12
HETATM   12  C   UNK N   1      39.603  48.249  45.529  0.00  0.00    -0.019 A 
HETATM   13  C   UNK N   1      38.492  48.228  44.650  0.00  0.00     0.022 A 
HETATM   14  C   UNK N   1      38.371  49.162  43.605  0.00  0.00    -0.021 A 
HETATM   15  C   UNK N   1      39.383  50.125  43.410  0.00  0.00     0.074 A 
HETATM   16  C   UNK N   1      40.495  50.135  44.272  0.00  0.00     0.038 A 
HETATM   17  C   UNK N   1      40.600  49.219  45.313  0.00  0.00     0.015 A 
BRANCH  14  18
HETATM   18  C   UNK N   1      37.140  49.129  42.721  0.00  0.00     0.068 C 
BRANCH  18  19
HETATM   19  C   UNK N   1      36.158  50.207  43.127  0.00  0.00    -0.020 C 
HETATM   20  C   UNK N   1      34.828  50.048  43.357  0.00  0.00    -0.091 C 
HETATM   21  C   UNK N   1      34.006  51.246  43.766  0.00  0.00     0.042 C 
HETATM   22  C   UNK N   1      34.087  48.736  43.234  0.00  0.00     0.042 C 
ENDBRANCH  18  19
ENDBRANCH  14  18
BRANCH  15  23
HETATM   23  O   UNK N   1      39.274  51.019  42.389  0.00  0.00    -0.355 OA
HETATM   24  C   UNK N   1      39.849  52.275  42.380  0.00  0.00     0.210 C 
ENDBRANCH  15  23
ENDBRANCH   9  12
BRANCH   6  25
HETATM   25  O   UNK N   1      42.919  47.069  49.529  0.00  0.00    -0.360 OA
HETATM   26  H   UNK N   1      43.811  46.841  49.228  0.00  0.00     0.217 HD
ENDBRANCH   6  25
BRANCH   7  27
HETATM   27  O   UNK N   1      40.887  43.188  51.410  0.00  0.00    -0.361 OA
HETATM   28  H   UNK N   1      41.407  42.381  51.283  0.00  0.00     0.217 HD
ENDBRANCH   7  27
TORSDOF 6
ENDMDL
MODEL 2
REMARK VINA RESULT:      -7.6      0.710      1.989
REMARK  6 active torsions:
REMARK  status: ('A' for Active; 'I' for Inactive)
REMARK    1  A    between atoms: O_3  and  C_9 
REMARK    2  A    between atoms: O_4  and  C_10 
REMARK    3  A    between atoms: O_5  and  C_11 
REMARK    4  A    between atoms: C_13  and  C_14 
REMARK    5  A    between atoms: C_15  and  C_22 
REMARK    6  A    between atoms: C_22  and  C_24 
ROOT
HETATM    1  O   UNK N   1      41.909  47.131  48.460  0.00  0.00    -0.321 OA
HETATM    2  O   UNK N   1      38.661  46.269  46.339  0.00  0.00    -0.286 OA
HETATM    3  C   UNK N   1      41.168  46.093  48.826  0.00  0.00     0.094 A 
HETATM    4  C   UNK N   1      41.606  47.901  47.424  0.00  0.00     0.159 A 
HETATM    5  C   UNK N   1      39.645  46.551  46.998  0.00  0.00     0.200 A 
HETATM    6  C   UNK N   1      39.241  44.624  48.523  0.00  0.00     0.085 A 
HETATM    7  C   UNK N   1      40.807  44.244  50.350  0.00  0.00     0.071 A 
HETATM    8  C   UNK N   1      40.004  45.750  48.106  0.00  0.00     0.082 A 
HETATM    9  C   UNK N   1      40.456  47.666  46.646  0.00  0.00     0.048 A 
HETATM   10  C   UNK N   1      41.560  45.343  49.938  0.00  0.00     0.074 A 
HETATM   11  C   UNK N   1      39.653  43.885  49.644  0.00  0.00     0.074 A 
ENDROOT
BRANCH   9  12
HETATM   12  C   UNK N   1      40.128  48.596  45.503  0.00  0.00    -0.019 A 
HETATM   13  C   UNK N   1      38.976  48.390  44.705  0.00  0.00     0.022 A 
HETATM   14  C   UNK N   1      38.663  49.253  43.638  0.00  0.00    -0.021 A 
HETATM   15  C   UNK N   1      39.524  50.330  43.339  0.00  0.00     0.074 A 
HETATM   16  C   UNK N   1      40.679  50.523  44.119  0.00  0.00     0.038 A 
HETATM   17  C   UNK N   1      40.971  49.677  45.183  0.00  0.00     0.015 A 
BRANCH  14  18
HETATM   18  C   UNK N   1      37.394  49.020  42.844  0.00  0.00     0.068 C 
BRANCH  18  19
HETATM   19  C   UNK N   1      36.366  50.088  43.150  0.00  0.00    -0.020 C 
HETATM   20  C   UNK N   1      35.031  49.903  43.329  0.00  0.00    -0.091 C 
HETATM   21  C   UNK N   1      34.161  51.096  43.638  0.00  0.00     0.042 C 
HETATM   22  C   UNK N   1      34.333  48.565  43.245  0.00  0.00     0.042 C 
ENDBRANCH  18  19
ENDBRANCH  14  18
BRANCH  15  23
HETATM   23  O   UNK N   1      39.232  51.155  42.296  0.00  0.00    -0.355 OA
HETATM   24  C   UNK N   1      39.682  52.455  42.173  0.00  0.00     0.210 C 
ENDBRANCH  15  23
ENDBRANCH   9  12
BRANCH   6  25
HETATM   25  O   UNK N   1      38.123  44.259  47.861  0.00  0.00    -0.360 OA
HETATM   26  H   UNK N   1      37.259  44.647  48.065  0.00  0.00     0.217 HD
ENDBRANCH   6  25
BRANCH   7  27
HETATM   27  O   UNK N   1      41.200  43.539  51.430  0.00  0.00    -0.361 OA
HETATM   28  H   UNK N   1      41.310  43.954  52.297  0.00  0.00     0.217 HD
ENDBRANCH   7  27
TORSDOF 6
ENDMDL
MODEL 3
REMARK VINA RESULT:      -6.3     16.143     19.859
REMARK  6 active torsions:
REMARK  status: ('A' for Active; 'I' for Inactive)
REMARK    1  A    between atoms: O_3  and  C_9 
REMARK    2  A    between atoms: O_4  and  C_10 
REMARK    3  A    between atoms: O_5  and  C_11 
REMARK    4  A    between atoms: C_13  and  C_14 
REMARK    5  A    between atoms: C_15  and  C_22 
REMARK    6  A    between atoms: C_22  and  C_24 
ROOT
HETATM    1  O   UNK N   1      25.539  39.631  44.715  0.00  0.00    -0.321 OA
HETATM    2  O   UNK N   1      23.618  37.078  42.353  0.00  0.00    -0.286 OA
HETATM    3  C   UNK N   1      24.862  40.110  43.679  0.00  0.00     0.094 A 
HETATM    4  C   UNK N   1      25.612  38.336  44.990  0.00  0.00     0.159 A 
HETATM    5  C   UNK N   1      24.226  37.854  43.067  0.00  0.00     0.200 A 
HETATM    6  C   UNK N   1      23.445  39.794  41.716  0.00  0.00     0.085 A 
HETATM    7  C   UNK N   1      24.147  42.029  42.384  0.00  0.00     0.071 A 
HETATM    8  C   UNK N   1      24.168  39.242  42.810  0.00  0.00     0.082 A 
HETATM    9  C   UNK N   1      24.976  37.377  44.179  0.00  0.00     0.048 A 
HETATM   10  C   UNK N   1      24.849  41.490  43.462  0.00  0.00     0.074 A 
HETATM   11  C   UNK N   1      23.446  41.184  41.515  0.00  0.00     0.074 A 
ENDROOT
BRANCH   9  12
HETATM   12  C   UNK N   1      25.123  35.910  44.506  0.00  0.00    -0.019 A 
HETATM   13  C   UNK N   1      26.358  35.388  44.963  0.00  0.00     0.022 A 
HETATM   14  C   UNK N   1      26.503  34.022  45.271  0.00  0.00    -0.021 A 
HETATM   15  C   UNK N   1      25.408  33.150  45.100  0.00  0.00     0.074 A 
HETATM   16  C   UNK N   1      24.186  33.666  44.629  0.00  0.00     0.038 A 
HETATM   17  C   UNK N   1      24.046  35.019  44.344  0.00  0.00     0.015 A 
BRANCH  14  18
HETATM   18  C   UNK N   1      27.830  33.519  45.801  0.00  0.00     0.068 C 
BRANCH  18  19
HETATM   19  C   UNK N   1      27.698  33.071  47.241  0.00  0.00    -0.020 C 
HETATM   20  C   UNK N   1      28.687  33.030  48.172  0.00  0.00    -0.091 C 
HETATM   21  C   UNK N   1      28.359  32.561  49.569  0.00  0.00     0.042 C 
HETATM   22  C   UNK N   1      30.122  33.427  47.916  0.00  0.00     0.042 C 
ENDBRANCH  18  19
ENDBRANCH  14  18
BRANCH  15  23
HETATM   23  O   UNK N   1      25.551  31.825  45.381  0.00  0.00    -0.355 OA
HETATM   24  C   UNK N   1      24.566  31.027  45.928  0.00  0.00     0.210 C 
ENDBRANCH  15  23
ENDBRANCH   9  12
BRANCH   6  25
HETATM   25  O   UNK N   1      22.763  39.000  40.862  0.00  0.00    -0.360 OA
HETATM   26  H   UNK N   1      22.032  38.439  41.161  0.00  0.00     0.217 HD
ENDBRANCH   6  25
BRANCH   7  27
HETATM   27  O   UNK N   1      24.153  43.363  42.189  0.00  0.00    -0.361 OA
HETATM   28  H   UNK N   1      24.954  43.835  41.919  0.00  0.00     0.217 HD
ENDBRANCH   7  27
TORSDOF 6
ENDMDL
MODEL 4
REMARK VINA RESULT:      -6.2     13.894     16.523
REMARK  6 active torsions:
REMARK  status: ('A' for Active; 'I' for Inactive)
REMARK    1  A    between atoms: O_3  and  C_9 
REMARK    2  A    between atoms: O_4  and  C_10 
REMARK    3  A    between atoms: O_5  and  C_11 
REMARK    4  A    between atoms: C_13  and  C_14 
REMARK    5  A    between atoms: C_15  and  C_22 
REMARK    6  A    between atoms: C_22  and  C_24 
ROOT
HETATM    1  O   UNK N   1      25.869  43.071  54.474  0.00  0.00    -0.321 OA
HETATM    2  O   UNK N   1      29.578  41.972  53.569  0.00  0.00    -0.286 OA
HETATM    3  C   UNK N   1      26.198  42.939  53.195  0.00  0.00     0.094 A 
HETATM    4  C   UNK N   1      26.727  42.864  55.463  0.00  0.00     0.159 A 
HETATM    5  C   UNK N   1      28.449  42.330  53.852  0.00  0.00     0.200 A 
HETATM    6  C   UNK N   1      27.817  42.414  51.445  0.00  0.00     0.085 A 
HETATM    7  C   UNK N   1      25.540  43.057  50.867  0.00  0.00     0.071 A 
HETATM    8  C   UNK N   1      27.504  42.555  52.825  0.00  0.00     0.082 A 
HETATM    9  C   UNK N   1      28.062  42.498  55.211  0.00  0.00     0.048 A 
HETATM   10  C   UNK N   1      25.230  43.188  52.220  0.00  0.00     0.074 A 
HETATM   11  C   UNK N   1      26.828  42.670  50.480  0.00  0.00     0.074 A 
ENDROOT
BRANCH   9  12
HETATM   12  C   UNK N   1      29.015  42.315  56.368  0.00  0.00    -0.019 A 
HETATM   13  C   UNK N   1      29.975  43.307  56.683  0.00  0.00     0.022 A 
HETATM   14  C   UNK N   1      30.866  43.144  57.761  0.00  0.00    -0.021 A 
HETATM   15  C   UNK N   1      30.821  41.962  58.529  0.00  0.00     0.074 A 
HETATM   16  C   UNK N   1      29.879  40.968  58.204  0.00  0.00     0.038 A 
HETATM   17  C   UNK N   1      28.991  41.144  57.149  0.00  0.00     0.015 A 
BRANCH  14  18
HETATM   18  C   UNK N   1      31.844  44.255  58.088  0.00  0.00     0.068 C 
BRANCH  18  19
HETATM   19  C   UNK N   1      31.352  45.580  57.546  0.00  0.00    -0.020 C 
HETATM   20  C   UNK N   1      30.587  46.492  58.202  0.00  0.00    -0.091 C 
HETATM   21  C   UNK N   1      30.202  47.769  57.495  0.00  0.00     0.042 C 
HETATM   22  C   UNK N   1      30.082  46.328  59.616  0.00  0.00     0.042 C 
ENDBRANCH  18  19
ENDBRANCH  14  18
BRANCH  15  23
HETATM   23  O   UNK N   1      31.694  41.796  59.561  0.00  0.00    -0.355 OA
HETATM   24  C   UNK N   1      31.325  41.616  60.880  0.00  0.00     0.210 C 
ENDBRANCH  15  23
ENDBRANCH   9  12
BRANCH   6  25
HETATM   25  O   UNK N   1      29.053  42.044  51.046  0.00  0.00    -0.360 OA
HETATM   26  H   UNK N   1      29.448  41.204  51.323  0.00  0.00     0.217 HD
ENDBRANCH   6  25
BRANCH   7  27
HETATM   27  O   UNK N   1      24.591  43.309  49.942  0.00  0.00    -0.361 OA
HETATM   28  H   UNK N   1      24.729  43.954  49.233  0.00  0.00     0.217 HD
ENDBRANCH   7  27
TORSDOF 6
ENDMDL
MODEL 5
REMARK VINA RESULT:      -6.1     14.632     17.787
REMARK  6 active torsions:
REMARK  status: ('A' for Active; 'I' for Inactive)
REMARK    1  A    between atoms: O_3  and  C_9 
REMARK    2  A    between atoms: O_4  and  C_10 
REMARK    3  A    between atoms: O_5  and  C_11 
REMARK    4  A    between atoms: C_13  and  C_14 
REMARK    5  A    between atoms: C_15  and  C_22 
REMARK    6  A    between atoms: C_22  and  C_24 
ROOT
HETATM    1  O   UNK N   1      28.772  48.106  60.462  0.00  0.00    -0.321 OA
HETATM    2  O   UNK N   1      30.836  46.689  57.377  0.00  0.00    -0.286 OA
HETATM    3  C   UNK N   1      29.033  48.918  59.446  0.00  0.00     0.094 A 
HETATM    4  C   UNK N   1      29.181  46.845  60.500  0.00  0.00     0.159 A 
HETATM    5  C   UNK N   1      30.223  47.124  58.335  0.00  0.00     0.200 A 
HETATM    6  C   UNK N   1      30.017  49.358  57.255  0.00  0.00     0.085 A 
HETATM    7  C   UNK N   1      28.824  51.116  58.447  0.00  0.00     0.071 A 
HETATM    8  C   UNK N   1      29.766  48.461  58.330  0.00  0.00     0.082 A 
HETATM    9  C   UNK N   1      29.938  46.289  59.451  0.00  0.00     0.048 A 
HETATM   10  C   UNK N   1      28.570  50.235  59.498  0.00  0.00     0.074 A 
HETATM   11  C   UNK N   1      29.543  50.678  57.328  0.00  0.00     0.074 A 
ENDROOT
BRANCH   9  12
HETATM   12  C   UNK N   1      30.418  44.861  59.557  0.00  0.00    -0.019 A 
HETATM   13  C   UNK N   1      31.421  44.499  60.488  0.00  0.00     0.022 A 
HETATM   14  C   UNK N   1      31.873  43.170  60.594  0.00  0.00    -0.021 A 
HETATM   15  C   UNK N   1      31.338  42.182  59.741  0.00  0.00     0.074 A 
HETATM   16  C   UNK N   1      30.354  42.546  58.803  0.00  0.00     0.038 A 
HETATM   17  C   UNK N   1      29.900  43.857  58.717  0.00  0.00     0.015 A 
BRANCH  14  18
HETATM   18  C   UNK N   1      32.914  42.822  61.639  0.00  0.00     0.068 C 
BRANCH  18  19
HETATM   19  C   UNK N   1      34.261  43.409  61.271  0.00  0.00    -0.020 C 
HETATM   20  C   UNK N   1      35.054  44.178  62.063  0.00  0.00    -0.091 C 
HETATM   21  C   UNK N   1      36.375  44.667  61.521  0.00  0.00     0.042 C 
HETATM   22  C   UNK N   1      34.713  44.591  63.476  0.00  0.00     0.042 C 
ENDBRANCH  18  19
ENDBRANCH  14  18
BRANCH  15  23
HETATM   23  O   UNK N   1      31.787  40.900  59.830  0.00  0.00    -0.355 OA
HETATM   24  C   UNK N   1      31.055  39.845  60.339  0.00  0.00     0.210 C 
ENDBRANCH  15  23
ENDBRANCH   9  12
BRANCH   6  25
HETATM   25  O   UNK N   1      30.710  48.961  56.166  0.00  0.00    -0.360 OA
HETATM   26  H   UNK N   1      31.663  48.789  56.203  0.00  0.00     0.217 HD
ENDBRANCH   6  25
BRANCH   7  27
HETATM   27  O   UNK N   1      28.373  52.384  58.521  0.00  0.00    -0.361 OA
HETATM   28  H   UNK N   1      28.977  53.134  58.625  0.00  0.00     0.217 HD
ENDBRANCH   7  27
TORSDOF 6
ENDMDL
MODEL 6
REMARK VINA RESULT:      -6.1      2.620      8.264
REMARK  6 active torsions:
REMARK  status: ('A' for Active; 'I' for Inactive)
REMARK    1  A    between atoms: O_3  and  C_9 
REMARK    2  A    between atoms: O_4  and  C_10 
REMARK    3  A    between atoms: O_5  and  C_11 
REMARK    4  A    between atoms: C_13  and  C_14 
REMARK    5  A    between atoms: C_15  and  C_22 
REMARK    6  A    between atoms: C_22  and  C_24 
ROOT
HETATM    1  O   UNK N   1      37.959  47.580  44.604  0.00  0.00    -0.321 OA
HETATM    2  O   UNK N   1      41.449  48.006  46.454  0.00  0.00    -0.286 OA
HETATM    3  C   UNK N   1      38.752  48.579  44.241  0.00  0.00     0.094 A 
HETATM    4  C   UNK N   1      38.274  46.724  45.567  0.00  0.00     0.159 A 
HETATM    5  C   UNK N   1      40.369  47.884  45.906  0.00  0.00     0.200 A 
HETATM    6  C   UNK N   1      40.827  49.849  44.447  0.00  0.00     0.085 A 
HETATM    7  C   UNK N   1      39.142  50.498  42.813  0.00  0.00     0.071 A 
HETATM    8  C   UNK N   1      40.000  48.773  44.871  0.00  0.00     0.082 A 
HETATM    9  C   UNK N   1      39.483  46.834  46.278  0.00  0.00     0.048 A 
HETATM   10  C   UNK N   1      38.333  49.438  43.222  0.00  0.00     0.074 A 
HETATM   11  C   UNK N   1      40.386  50.701  43.421  0.00  0.00     0.074 A 
ENDROOT
BRANCH   9  12
HETATM   12  C   UNK N   1      39.780  45.863  47.396  0.00  0.00    -0.019 A 
HETATM   13  C   UNK N   1      40.704  44.805  47.214  0.00  0.00     0.022 A 
HETATM   14  C   UNK N   1      40.986  43.896  48.251  0.00  0.00    -0.021 A 
HETATM   15  C   UNK N   1      40.321  44.022  49.488  0.00  0.00     0.074 A 
HETATM   16  C   UNK N   1      39.389  45.062  49.662  0.00  0.00     0.038 A 
HETATM   17  C   UNK N   1      39.129  45.967  48.639  0.00  0.00     0.015 A 
BRANCH  14  18
HETATM   18  C   UNK N   1      42.019  42.810  48.023  0.00  0.00     0.068 C 
BRANCH  18  19
HETATM   19  C   UNK N   1      42.694  42.984  46.680  0.00  0.00    -0.020 C 
HETATM   20  C   UNK N   1      43.177  41.998  45.880  0.00  0.00    -0.091 C 
HETATM   21  C   UNK N   1      43.813  42.368  44.562  0.00  0.00     0.042 C 
HETATM   22  C   UNK N   1      43.124  40.524  46.210  0.00  0.00     0.042 C 
ENDBRANCH  18  19
ENDBRANCH  14  18
BRANCH  15  23
HETATM   23  O   UNK N   1      40.580  43.133  50.486  0.00  0.00    -0.355 OA
HETATM   24  C   UNK N   1      41.118  43.466  51.714  0.00  0.00     0.210 C 
ENDBRANCH  15  23
ENDBRANCH   9  12
BRANCH   6  25
HETATM   25  O   UNK N   1      42.031  50.068  45.020  0.00  0.00    -0.360 OA
HETATM   26  H   UNK N   1      42.470  50.930  44.971  0.00  0.00     0.217 HD
ENDBRANCH   6  25
BRANCH   7  27
HETATM   27  O   UNK N   1      38.714  51.318  41.832  0.00  0.00    -0.361 OA
HETATM   28  H   UNK N   1      39.219  51.443  41.016  0.00  0.00     0.217 HD
ENDBRANCH   7  27
TORSDOF 6
ENDMDL
MODEL 7
REMARK VINA RESULT:      -6.1      1.733      2.968
REMARK  6 active torsions:
REMARK  status: ('A' for Active; 'I' for Inactive)
REMARK    1  A    between atoms: O_3  and  C_9 
REMARK    2  A    between atoms: O_4  and  C_10 
REMARK    3  A    between atoms: O_5  and  C_11 
REMARK    4  A    between atoms: C_13  and  C_14 
REMARK    5  A    between atoms: C_15  and  C_22 
REMARK    6  A    between atoms: C_22  and  C_24 
ROOT
HETATM    1  O   UNK N   1      42.697  46.740  50.335  0.00  0.00    -0.321 OA
HETATM    2  O   UNK N   1      39.788  45.686  47.843  0.00  0.00    -0.286 OA
HETATM    3  C   UNK N   1      41.931  45.705  50.654  0.00  0.00     0.094 A 
HETATM    4  C   UNK N   1      42.527  47.446  49.225  0.00  0.00     0.159 A 
HETATM    5  C   UNK N   1      40.667  46.027  48.613  0.00  0.00     0.200 A 
HETATM    6  C   UNK N   1      40.090  44.176  50.175  0.00  0.00     0.085 A 
HETATM    7  C   UNK N   1      41.394  43.933  52.217  0.00  0.00     0.071 A 
HETATM    8  C   UNK N   1      40.883  45.296  49.803  0.00  0.00     0.082 A 
HETATM    9  C   UNK N   1      41.499  47.141  48.313  0.00  0.00     0.048 A 
HETATM   10  C   UNK N   1      42.178  45.026  51.850  0.00  0.00     0.074 A 
HETATM   11  C   UNK N   1      40.355  43.508  51.382  0.00  0.00     0.074 A 
ENDROOT
BRANCH   9  12
HETATM   12  C   UNK N   1      41.317  48.000  47.084  0.00  0.00    -0.019 A 
HETATM   13  C   UNK N   1      40.033  48.464  46.705  0.00  0.00     0.022 A 
HETATM   14  C   UNK N   1      39.855  49.265  45.562  0.00  0.00    -0.021 A 
HETATM   15  C   UNK N   1      40.969  49.595  44.762  0.00  0.00     0.074 A 
HETATM   16  C   UNK N   1      42.242  49.118  45.129  0.00  0.00     0.038 A 
HETATM   17  C   UNK N   1      42.412  48.342  46.269  0.00  0.00     0.015 A 
BRANCH  14  18
HETATM   18  C   UNK N   1      38.469  49.777  45.225  0.00  0.00     0.068 C 
BRANCH  18  19
HETATM   19  C   UNK N   1      37.703  48.756  44.410  0.00  0.00    -0.020 C 
HETATM   20  C   UNK N   1      37.296  48.887  43.120  0.00  0.00    -0.091 C 
HETATM   21  C   UNK N   1      36.548  47.749  42.470  0.00  0.00     0.042 C 
HETATM   22  C   UNK N   1      37.540  50.108  42.264  0.00  0.00     0.042 C 
ENDBRANCH  18  19
ENDBRANCH  14  18
BRANCH  15  23
HETATM   23  O   UNK N   1      40.795  50.356  43.647  0.00  0.00    -0.355 OA
HETATM   24  C   UNK N   1      40.375  51.672  43.651  0.00  0.00     0.210 C 
ENDBRANCH  15  23
ENDBRANCH   9  12
BRANCH   6  25
HETATM   25  O   UNK N   1      39.079  43.748  49.388  0.00  0.00    -0.360 OA
HETATM   26  H   UNK N   1      38.196  44.145  49.429  0.00  0.00     0.217 HD
ENDBRANCH   6  25
BRANCH   7  27
HETATM   27  O   UNK N   1      41.647  43.296  53.379  0.00  0.00    -0.361 OA
HETATM   28  H   UNK N   1      42.473  42.814  53.526  0.00  0.00     0.217 HD
ENDBRANCH   7  27
TORSDOF 6
ENDMDL
MODEL 8
REMARK VINA RESULT:      -5.9     16.030     17.903
REMARK  6 active torsions:
REMARK  status: ('A' for Active; 'I' for Inactive)
REMARK    1  A    between atoms: O_3  and  C_9 
REMARK    2  A    between atoms: O_4  and  C_10 
REMARK    3  A    between atoms: O_5  and  C_11 
REMARK    4  A    between atoms: C_13  and  C_14 
REMARK    5  A    between atoms: C_15  and  C_22 
REMARK    6  A    between atoms: C_22  and  C_24 
ROOT
HETATM    1  O   UNK N   1      37.909  47.925  63.022  0.00  0.00    -0.321 OA
HETATM    2  O   UNK N   1      37.823  44.116  64.149  0.00  0.00    -0.286 OA
HETATM    3  C   UNK N   1      38.767  47.517  63.948  0.00  0.00     0.094 A 
HETATM    4  C   UNK N   1      37.015  47.120  62.464  0.00  0.00     0.159 A 
HETATM    5  C   UNK N   1      37.830  45.287  63.815  0.00  0.00     0.200 A 
HETATM    6  C   UNK N   1      39.714  45.774  65.370  0.00  0.00     0.085 A 
HETATM    7  C   UNK N   1      40.584  48.046  65.460  0.00  0.00     0.071 A 
HETATM    8  C   UNK N   1      38.772  46.175  64.383  0.00  0.00     0.082 A 
HETATM    9  C   UNK N   1      36.915  45.766  62.837  0.00  0.00     0.048 A 
HETATM   10  C   UNK N   1      39.667  48.440  64.487  0.00  0.00     0.074 A 
HETATM   11  C   UNK N   1      40.609  46.718  65.899  0.00  0.00     0.074 A 
ENDROOT
BRANCH   9  12
HETATM   12  C   UNK N   1      35.853  44.897  62.206  0.00  0.00    -0.019 A 
HETATM   13  C   UNK N   1      34.610  44.685  62.850  0.00  0.00     0.022 A 
HETATM   14  C   UNK N   1      33.615  43.878  62.268  0.00  0.00    -0.021 A 
HETATM   15  C   UNK N   1      33.865  43.246  61.032  0.00  0.00     0.074 A 
HETATM   16  C   UNK N   1      35.108  43.442  60.401  0.00  0.00     0.038 A 
HETATM   17  C   UNK N   1      36.079  44.255  60.974  0.00  0.00     0.015 A 
BRANCH  14  18
HETATM   18  C   UNK N   1      32.282  43.720  62.972  0.00  0.00     0.068 C 
BRANCH  18  19
HETATM   19  C   UNK N   1      31.663  45.072  63.259  0.00  0.00    -0.020 C 
HETATM   20  C   UNK N   1      30.958  45.842  62.389  0.00  0.00    -0.091 C 
HETATM   21  C   UNK N   1      30.407  47.165  62.863  0.00  0.00     0.042 C 
HETATM   22  C   UNK N   1      30.673  45.471  60.952  0.00  0.00     0.042 C 
ENDBRANCH  18  19
ENDBRANCH  14  18
BRANCH  15  23
HETATM   23  O   UNK N   1      32.910  42.451  60.476  0.00  0.00    -0.355 OA
HETATM   24  C   UNK N   1      32.394  42.614  59.205  0.00  0.00     0.210 C 
ENDBRANCH  15  23
ENDBRANCH   9  12
BRANCH   6  25
HETATM   25  O   UNK N   1      39.755  44.498  65.812  0.00  0.00    -0.360 OA
HETATM   26  H   UNK N   1      39.742  43.746  65.202  0.00  0.00     0.217 HD
ENDBRANCH   6  25
BRANCH   7  27
HETATM   27  O   UNK N   1      41.440  48.955  65.971  0.00  0.00    -0.361 OA
HETATM   28  H   UNK N   1      42.149  48.701  66.579  0.00  0.00     0.217 HD
ENDBRANCH   7  27
TORSDOF 6
ENDMDL
MODEL 9
REMARK VINA RESULT:      -5.7      2.474      3.850
REMARK  6 active torsions:
REMARK  status: ('A' for Active; 'I' for Inactive)
REMARK    1  A    between atoms: O_3  and  C_9 
REMARK    2  A    between atoms: O_4  and  C_10 
REMARK    3  A    between atoms: O_5  and  C_11 
REMARK    4  A    between atoms: C_13  and  C_14 
REMARK    5  A    between atoms: C_15  and  C_22 
REMARK    6  A    between atoms: C_22  and  C_24 
ROOT
HETATM    1  O   UNK N   1      42.541  46.570  50.280  0.00  0.00    -0.321 OA
HETATM    2  O   UNK N   1      39.271  45.295  48.418  0.00  0.00    -0.286 OA
HETATM    3  C   UNK N   1      41.899  45.519  50.772  0.00  0.00     0.094 A 
HETATM    4  C   UNK N   1      42.133  47.222  49.200  0.00  0.00     0.159 A 
HETATM    5  C   UNK N   1      40.261  45.704  48.997  0.00  0.00     0.200 A 
HETATM    6  C   UNK N   1      40.076  43.897  50.700  0.00  0.00     0.085 A 
HETATM    7  C   UNK N   1      41.750  43.793  52.467  0.00  0.00     0.071 A 
HETATM    8  C   UNK N   1      40.731  45.032  50.148  0.00  0.00     0.082 A 
HETATM    9  C   UNK N   1      40.968  46.837  48.508  0.00  0.00     0.048 A 
HETATM   10  C   UNK N   1      42.398  44.902  51.922  0.00  0.00     0.074 A 
HETATM   11  C   UNK N   1      40.595  43.291  51.857  0.00  0.00     0.074 A 
ENDROOT
BRANCH   9  12
HETATM   12  C   UNK N   1      40.518  47.636  47.308  0.00  0.00    -0.019 A 
HETATM   13  C   UNK N   1      39.649  48.744  47.456  0.00  0.00     0.022 A 
HETATM   14  C   UNK N   1      39.226  49.494  46.343  0.00  0.00    -0.021 A 
HETATM   15  C   UNK N   1      39.653  49.123  45.051  0.00  0.00     0.074 A 
HETATM   16  C   UNK N   1      40.502  48.011  44.902  0.00  0.00     0.038 A 
HETATM   17  C   UNK N   1      40.930  47.287  46.008  0.00  0.00     0.015 A 
BRANCH  14  18
HETATM   18  C   UNK N   1      38.334  50.700  46.558  0.00  0.00     0.068 C 
BRANCH  18  19
HETATM   19  C   UNK N   1      38.573  51.309  47.923  0.00  0.00    -0.020 C 
HETATM   20  C   UNK N   1      37.626  51.716  48.808  0.00  0.00    -0.091 C 
HETATM   21  C   UNK N   1      38.060  52.293  50.133  0.00  0.00     0.042 C 
HETATM   22  C   UNK N   1      36.136  51.634  48.567  0.00  0.00     0.042 C 
ENDBRANCH  18  19
ENDBRANCH  14  18
BRANCH  15  23
HETATM   23  O   UNK N   1      39.230  49.837  43.971  0.00  0.00    -0.355 OA
HETATM   24  C   UNK N   1      38.542  49.306  42.898  0.00  0.00     0.210 C 
ENDBRANCH  15  23
ENDBRANCH   9  12
BRANCH   6  25
HETATM   25  O   UNK N   1      38.958  43.395  50.132  0.00  0.00    -0.360 OA
HETATM   26  H   UNK N   1      38.123  43.330  50.619  0.00  0.00     0.217 HD
ENDBRANCH   6  25
BRANCH   7  27
HETATM   27  O   UNK N   1      42.246  43.217  53.580  0.00  0.00    -0.361 OA
HETATM   28  H   UNK N   1      43.093  43.490  53.961  0.00  0.00     0.217 HD
ENDBRANCH   7  27
TORSDOF 6
ENDMDL
