MODEL 1
REMARK VINA RESULT:      -7.3      0.000      0.000
REMARK  8 active torsions:
REMARK  status: ('A' for Active; 'I' for Inactive)
REMARK    1  A    between atoms: O_3  and  C_10 
REMARK    2  A    between atoms: O_4  and  C_11 
REMARK    3  A    between atoms: O_5  and  C_12 
REMARK    4  A    between atoms: O_6  and  C_22 
REMARK    5  A    between atoms: C_14  and  C_15 
REMARK    6  A    between atoms: C_16  and  C_24 
REMARK    7  A    between atoms: C_22  and  C_24 
REMARK    8  A    between atoms: C_22  and  C_25 
ROOT
HETATM    1  O   UNK N   1      41.331  49.387  45.339  0.00  0.00    -0.321 OA
HETATM    2  O   UNK N   1      38.350  46.752  45.278  0.00  0.00    -0.286 OA
HETATM    3  C   UNK N   1      40.328  49.591  44.494  0.00  0.00     0.094 A 
HETATM    4  C   UNK N   1      41.387  48.334  46.139  0.00  0.00     0.159 A 
HETATM    5  C   UNK N   1      39.253  47.565  45.292  0.00  0.00     0.200 A 
HETATM    6  C   UNK N   1      38.216  48.937  43.462  0.00  0.00     0.085 A 
HETATM    7  C   UNK N   1      39.361  50.961  42.749  0.00  0.00     0.071 A 
HETATM    8  C   UNK N   1      39.247  48.687  44.416  0.00  0.00     0.082 A 
HETATM    9  C   UNK N   1      40.359  47.388  46.162  0.00  0.00     0.048 A 
HETATM   10  C   UNK N   1      40.375  50.718  43.674  0.00  0.00     0.074 A 
HETATM   11  C   UNK N   1      38.294  50.077  42.637  0.00  0.00     0.074 A 
ENDROOT
BRANCH   9  12
HETATM   12  C   UNK N   1      40.481  46.231  47.087  0.00  0.00    -0.019 A 
HETATM   13  C   UNK N   1      41.469  45.253  46.902  0.00  0.00     0.022 A 
HETATM   14  C   UNK N   1      41.550  44.140  47.763  0.00  0.00    -0.021 A 
HETATM   15  C   UNK N   1      40.636  44.024  48.834  0.00  0.00     0.074 A 
HETATM   16  C   UNK N   1      39.659  45.022  49.012  0.00  0.00     0.038 A 
HETATM   17  C   UNK N   1      39.571  46.094  48.143  0.00  0.00     0.015 A 
BRANCH  14  18
HETATM   18  C   UNK N   1      42.619  43.094  47.524  0.00  0.00     0.077 C 
BRANCH  18  19
HETATM   19  C   UNK N   1      42.360  42.264  46.248  0.00  0.00     0.150 C 
BRANCH  19  20
HETATM   20  O   UNK N   1      42.629  40.897  46.439  0.00  0.00    -0.391 OA
HETATM   21  H   UNK N   1      43.412  40.815  47.036  0.00  0.00     0.210 HD
ENDBRANCH  19  20
BRANCH  19  22
HETATM   22  C   UNK N   1      43.062  42.823  45.016  0.00  0.00    -0.065 C 
HETATM   23  C   UNK N   1      42.485  43.753  44.230  0.00  0.00     0.016 C 
HETATM   24  C   UNK N   1      44.437  42.309  44.683  0.00  0.00     0.045 C 
ENDBRANCH  19  22
ENDBRANCH  18  19
ENDBRANCH  14  18
BRANCH  15  25
HETATM   25  O   UNK N   1      40.708  42.965  49.687  0.00  0.00    -0.355 OA
HETATM   26  C   UNK N   1      41.125  43.102  50.995  0.00  0.00     0.210 C 
ENDBRANCH  15  25
ENDBRANCH   9  12
BRANCH   6  27
HETATM   27  O   UNK N   1      37.168  48.104  43.319  0.00  0.00    -0.360 OA
HETATM   28  H   UNK N   1      37.038  47.365  43.936  0.00  0.00     0.217 HD
ENDBRANCH   6  27
BRANCH   7  29
HETATM   29  O   UNK N   1      39.416  52.052  41.960  0.00  0.00    -0.361 OA
HETATM   30  H   UNK N   1      40.225  52.278  41.480  0.00  0.00     0.217 HD
ENDBRANCH   7  29
TORSDOF 8
ENDMDL
MODEL 2
REMARK VINA RESULT:      -6.9     13.838     16.562
REMARK  8 active torsions:
REMARK  status: ('A' for Active; 'I' for Inactive)
REMARK    1  A    between atoms: O_3  and  C_10 
REMARK    2  A    between atoms: O_4  and  C_11 
REMARK    3  A    between atoms: O_5  and  C_12 
REMARK    4  A    between atoms: O_6  and  C_22 
REMARK    5  A    between atoms: C_14  and  C_15 
REMARK    6  A    between atoms: C_16  and  C_24 
REMARK    7  A    between atoms: C_22  and  C_24 
REMARK    8  A    between atoms: C_22  and  C_25 
ROOT
HETATM    1  O   UNK N   1      45.104  34.180  49.588  0.00  0.00    -0.321 OA
HETATM    2  O   UNK N   1      48.479  32.082  49.799  0.00  0.00    -0.286 OA
HETATM    3  C   UNK N   1      45.595  33.663  48.468  0.00  0.00     0.094 A 
HETATM    4  C   UNK N   1      45.705  34.044  50.759  0.00  0.00     0.159 A 
HETATM    5  C   UNK N   1      47.445  32.717  49.724  0.00  0.00     0.200 A 
HETATM    6  C   UNK N   1      47.293  32.420  47.234  0.00  0.00     0.085 A 
HETATM    7  C   UNK N   1      45.388  33.387  46.073  0.00  0.00     0.071 A 
HETATM    8  C   UNK N   1      46.794  32.919  48.474  0.00  0.00     0.082 A 
HETATM    9  C   UNK N   1      46.885  33.308  50.885  0.00  0.00     0.048 A 
HETATM   10  C   UNK N   1      44.899  33.883  47.280  0.00  0.00     0.074 A 
HETATM   11  C   UNK N   1      46.577  32.668  46.047  0.00  0.00     0.074 A 
ENDROOT
BRANCH   9  12
HETATM   12  C   UNK N   1      47.508  33.190  52.230  0.00  0.00    -0.019 A 
HETATM   13  C   UNK N   1      48.455  34.123  52.678  0.00  0.00     0.022 A 
HETATM   14  C   UNK N   1      49.067  33.979  53.938  0.00  0.00    -0.021 A 
HETATM   15  C   UNK N   1      48.703  32.893  54.766  0.00  0.00     0.074 A 
HETATM   16  C   UNK N   1      47.742  31.973  54.305  0.00  0.00     0.038 A 
HETATM   17  C   UNK N   1      47.169  32.108  53.054  0.00  0.00     0.015 A 
BRANCH  14  18
HETATM   18  C   UNK N   1      50.097  34.996  54.383  0.00  0.00     0.077 C 
BRANCH  18  19
HETATM   19  C   UNK N   1      51.509  34.385  54.521  0.00  0.00     0.150 C 
BRANCH  19  20
HETATM   20  O   UNK N   1      51.874  34.188  55.864  0.00  0.00    -0.391 OA
HETATM   21  H   UNK N   1      51.240  33.548  56.269  0.00  0.00     0.210 HD
ENDBRANCH  19  20
BRANCH  19  22
HETATM   22  C   UNK N   1      52.571  35.151  53.741  0.00  0.00    -0.065 C 
HETATM   23  C   UNK N   1      53.001  36.367  54.131  0.00  0.00     0.016 C 
HETATM   24  C   UNK N   1      53.143  34.516  52.502  0.00  0.00     0.045 C 
ENDBRANCH  19  22
ENDBRANCH  18  19
ENDBRANCH  14  18
BRANCH  15  25
HETATM   25  O   UNK N   1      49.270  32.745  55.995  0.00  0.00    -0.355 OA
HETATM   26  C   UNK N   1      49.550  31.505  56.531  0.00  0.00     0.210 C 
ENDBRANCH  15  25
ENDBRANCH   9  12
BRANCH   6  27
HETATM   27  O   UNK N   1      48.442  31.722  47.165  0.00  0.00    -0.360 OA
HETATM   28  H   UNK N   1      48.909  31.623  46.320  0.00  0.00     0.217 HD
ENDBRANCH   6  27
BRANCH   7  29
HETATM   29  O   UNK N   1      44.711  33.607  44.929  0.00  0.00    -0.361 OA
HETATM   30  H   UNK N   1      43.802  33.940  44.945  0.00  0.00     0.217 HD
ENDBRANCH   7  29
TORSDOF 8
ENDMDL
MODEL 3
REMARK VINA RESULT:      -6.7      2.713      8.326
REMARK  8 active torsions:
REMARK  status: ('A' for Active; 'I' for Inactive)
REMARK    1  A    between atoms: O_3  and  C_10 
REMARK    2  A    between atoms: O_4  and  C_11 
REMARK    3  A    between atoms: O_5  and  C_12 
REMARK    4  A    between atoms: O_6  and  C_22 
REMARK    5  A    between atoms: C_14  and  C_15 
REMARK    6  A    between atoms: C_16  and  C_24 
REMARK    7  A    between atoms: C_22  and  C_24 
REMARK    8  A    between atoms: C_22  and  C_25 
ROOT
HETATM    1  O   UNK N   1      38.906  45.471  47.433  0.00  0.00    -0.321 OA
HETATM    2  O   UNK N   1      41.709  48.295  47.419  0.00  0.00    -0.286 OA
HETATM    3  C   UNK N   1      39.862  45.413  48.351  0.00  0.00     0.094 A 
HETATM    4  C   UNK N   1      38.865  46.414  46.505  0.00  0.00     0.159 A 
HETATM    5  C   UNK N   1      40.855  47.430  47.435  0.00  0.00     0.200 A 
HETATM    6  C   UNK N   1      41.913  46.243  49.379  0.00  0.00     0.085 A 
HETATM    7  C   UNK N   1      40.828  44.243  50.237  0.00  0.00     0.071 A 
HETATM    8  C   UNK N   1      40.891  46.378  48.393  0.00  0.00     0.082 A 
HETATM    9  C   UNK N   1      39.820  47.432  46.466  0.00  0.00     0.048 A 
HETATM   10  C   UNK N   1      39.831  44.365  49.271  0.00  0.00     0.074 A 
HETATM   11  C   UNK N   1      41.864  45.168  50.288  0.00  0.00     0.074 A 
ENDROOT
BRANCH   9  12
HETATM   12  C   UNK N   1      39.715  48.463  45.400  0.00  0.00    -0.019 A 
HETATM   13  C   UNK N   1      38.610  48.508  44.537  0.00  0.00     0.022 A 
HETATM   14  C   UNK N   1      38.541  49.465  43.506  0.00  0.00    -0.021 A 
HETATM   15  C   UNK N   1      39.587  50.402  43.358  0.00  0.00     0.074 A 
HETATM   16  C   UNK N   1      40.683  50.351  44.241  0.00  0.00     0.038 A 
HETATM   17  C   UNK N   1      40.754  49.388  45.231  0.00  0.00     0.015 A 
BRANCH  14  18
HETATM   18  C   UNK N   1      37.341  49.474  42.582  0.00  0.00     0.077 C 
BRANCH  18  19
HETATM   19  C   UNK N   1      36.154  48.662  43.146  0.00  0.00     0.150 C 
BRANCH  19  20
HETATM   20  O   UNK N   1      35.969  47.447  42.463  0.00  0.00    -0.391 OA
HETATM   21  H   UNK N   1      36.429  46.733  42.968  0.00  0.00     0.210 HD
ENDBRANCH  19  20
BRANCH  19  22
HETATM   22  C   UNK N   1      34.867  49.472  43.242  0.00  0.00    -0.065 C 
HETATM   23  C   UNK N   1      34.878  50.815  43.351  0.00  0.00     0.016 C 
HETATM   24  C   UNK N   1      33.555  48.734  43.217  0.00  0.00     0.045 C 
ENDBRANCH  19  22
ENDBRANCH  18  19
ENDBRANCH  14  18
BRANCH  15  25
HETATM   25  O   UNK N   1      39.531  51.346  42.379  0.00  0.00    -0.355 OA
HETATM   26  C   UNK N   1      39.936  52.649  42.589  0.00  0.00     0.210 C 
ENDBRANCH  15  25
ENDBRANCH   9  12
BRANCH   6  27
HETATM   27  O   UNK N   1      42.936  47.114  49.460  0.00  0.00    -0.360 OA
HETATM   28  H   UNK N   1      42.947  47.914  48.909  0.00  0.00     0.217 HD
ENDBRANCH   6  27
BRANCH   7  29
HETATM   29  O   UNK N   1      40.791  43.225  51.120  0.00  0.00    -0.361 OA
HETATM   30  H   UNK N   1      39.948  42.883  51.448  0.00  0.00     0.217 HD
ENDBRANCH   7  29
TORSDOF 8
ENDMDL
MODEL 4
REMARK VINA RESULT:      -6.1      2.873      8.559
REMARK  8 active torsions:
REMARK  status: ('A' for Active; 'I' for Inactive)
REMARK    1  A    between atoms: O_3  and  C_10 
REMARK    2  A    between atoms: O_4  and  C_11 
REMARK    3  A    between atoms: O_5  and  C_12 
REMARK    4  A    between atoms: O_6  and  C_22 
REMARK    5  A    between atoms: C_14  and  C_15 
REMARK    6  A    between atoms: C_16  and  C_24 
REMARK    7  A    between atoms: C_22  and  C_24 
REMARK    8  A    between atoms: C_22  and  C_25 
ROOT
HETATM    1  O   UNK N   1      39.486  43.966  49.923  0.00  0.00    -0.321 OA
HETATM    2  O   UNK N   1      42.405  46.539  50.757  0.00  0.00    -0.286 OA
HETATM    3  C   UNK N   1      40.031  43.930  51.133  0.00  0.00     0.094 A 
HETATM    4  C   UNK N   1      39.892  44.805  48.984  0.00  0.00     0.159 A 
HETATM    5  C   UNK N   1      41.511  45.752  50.514  0.00  0.00     0.200 A 
HETATM    6  C   UNK N   1      41.650  44.697  52.789  0.00  0.00     0.085 A 
HETATM    7  C   UNK N   1      40.108  42.893  53.319  0.00  0.00     0.071 A 
HETATM    8  C   UNK N   1      41.078  44.808  51.487  0.00  0.00     0.082 A 
HETATM    9  C   UNK N   1      40.905  45.734  49.232  0.00  0.00     0.048 A 
HETATM   10  C   UNK N   1      39.550  42.991  52.045  0.00  0.00     0.074 A 
HETATM   11  C   UNK N   1      41.153  43.731  53.686  0.00  0.00     0.074 A 
ENDROOT
BRANCH   9  12
HETATM   12  C   UNK N   1      41.311  46.651  48.135  0.00  0.00    -0.019 A 
HETATM   13  C   UNK N   1      40.396  47.064  47.155  0.00  0.00     0.022 A 
HETATM   14  C   UNK N   1      40.803  47.902  46.098  0.00  0.00    -0.021 A 
HETATM   15  C   UNK N   1      42.143  48.346  46.041  0.00  0.00     0.074 A 
HETATM   16  C   UNK N   1      43.045  47.933  47.041  0.00  0.00     0.038 A 
HETATM   17  C   UNK N   1      42.641  47.086  48.057  0.00  0.00     0.015 A 
BRANCH  14  18
HETATM   18  C   UNK N   1      39.793  48.314  45.048  0.00  0.00     0.077 C 
BRANCH  18  19
HETATM   19  C   UNK N   1      39.619  49.847  44.964  0.00  0.00     0.150 C 
BRANCH  19  20
HETATM   20  O   UNK N   1      38.606  50.314  45.819  0.00  0.00    -0.391 OA
HETATM   21  H   UNK N   1      38.373  51.237  45.551  0.00  0.00     0.210 HD
ENDBRANCH  19  20
BRANCH  19  22
HETATM   22  C   UNK N   1      39.449  50.353  43.537  0.00  0.00    -0.065 C 
HETATM   23  C   UNK N   1      40.070  51.467  43.099  0.00  0.00     0.016 C 
HETATM   24  C   UNK N   1      38.558  49.578  42.605  0.00  0.00     0.045 C 
ENDBRANCH  19  22
ENDBRANCH  18  19
ENDBRANCH  14  18
BRANCH  15  25
HETATM   25  O   UNK N   1      42.552  49.170  45.038  0.00  0.00    -0.355 OA
HETATM   26  C   UNK N   1      43.758  49.840  45.082  0.00  0.00     0.210 C 
ENDBRANCH  15  25
ENDBRANCH   9  12
BRANCH   6  27
HETATM   27  O   UNK N   1      42.666  45.488  53.183  0.00  0.00    -0.360 OA
HETATM   28  H   UNK N   1      43.410  45.120  53.688  0.00  0.00     0.217 HD
ENDBRANCH   6  27
BRANCH   7  29
HETATM   29  O   UNK N   1      39.638  41.981  54.192  0.00  0.00    -0.361 OA
HETATM   30  H   UNK N   1      38.784  41.550  54.050  0.00  0.00     0.217 HD
ENDBRANCH   7  29
TORSDOF 8
ENDMDL
MODEL 5
REMARK VINA RESULT:      -6.0     14.431     17.076
REMARK  8 active torsions:
REMARK  status: ('A' for Active; 'I' for Inactive)
REMARK    1  A    between atoms: O_3  and  C_10 
REMARK    2  A    between atoms: O_4  and  C_11 
REMARK    3  A    between atoms: O_5  and  C_12 
REMARK    4  A    between atoms: O_6  and  C_22 
REMARK    5  A    between atoms: C_14  and  C_15 
REMARK    6  A    between atoms: C_16  and  C_24 
REMARK    7  A    between atoms: C_22  and  C_24 
REMARK    8  A    between atoms: C_22  and  C_25 
ROOT
HETATM    1  O   UNK N   1      49.144  32.900  48.704  0.00  0.00    -0.321 OA
HETATM    2  O   UNK N   1      46.603  33.376  51.729  0.00  0.00    -0.286 OA
HETATM    3  C   UNK N   1      47.860  33.083  48.424  0.00  0.00     0.094 A 
HETATM    4  C   UNK N   1      49.603  32.846  49.945  0.00  0.00     0.159 A 
HETATM    5  C   UNK N   1      47.371  33.237  50.798  0.00  0.00     0.200 A 
HETATM    6  C   UNK N   1      45.535  33.402  49.091  0.00  0.00     0.085 A 
HETATM    7  C   UNK N   1      46.132  33.259  46.738  0.00  0.00     0.071 A 
HETATM    8  C   UNK N   1      46.906  33.247  49.452  0.00  0.00     0.082 A 
HETATM    9  C   UNK N   1      48.752  33.019  51.039  0.00  0.00     0.048 A 
HETATM   10  C   UNK N   1      47.473  33.099  47.084  0.00  0.00     0.074 A 
HETATM   11  C   UNK N   1      45.170  33.402  47.731  0.00  0.00     0.074 A 
ENDROOT
BRANCH   9  12
HETATM   12  C   UNK N   1      49.331  32.952  52.406  0.00  0.00    -0.019 A 
HETATM   13  C   UNK N   1      50.106  34.001  52.920  0.00  0.00     0.022 A 
HETATM   14  C   UNK N   1      50.682  33.909  54.203  0.00  0.00    -0.021 A 
HETATM   15  C   UNK N   1      50.455  32.754  54.984  0.00  0.00     0.074 A 
HETATM   16  C   UNK N   1      49.663  31.716  54.456  0.00  0.00     0.038 A 
HETATM   17  C   UNK N   1      49.127  31.805  53.185  0.00  0.00     0.015 A 
BRANCH  14  18
HETATM   18  C   UNK N   1      51.528  35.054  54.720  0.00  0.00     0.077 C 
BRANCH  18  19
HETATM   19  C   UNK N   1      52.989  34.982  54.222  0.00  0.00     0.150 C 
BRANCH  19  20
HETATM   20  O   UNK N   1      53.852  34.432  55.186  0.00  0.00    -0.391 OA
HETATM   21  H   UNK N   1      54.683  34.148  54.734  0.00  0.00     0.210 HD
ENDBRANCH  19  20
BRANCH  19  22
HETATM   22  C   UNK N   1      53.502  36.310  53.679  0.00  0.00    -0.065 C 
HETATM   23  C   UNK N   1      53.733  36.499  52.364  0.00  0.00     0.016 C 
HETATM   24  C   UNK N   1      53.757  37.429  54.652  0.00  0.00     0.045 C 
ENDBRANCH  19  22
ENDBRANCH  18  19
ENDBRANCH  14  18
BRANCH  15  25
HETATM   25  O   UNK N   1      50.988  32.652  56.232  0.00  0.00    -0.355 OA
HETATM   26  C   UNK N   1      50.701  31.595  57.070  0.00  0.00     0.210 C 
ENDBRANCH  15  25
ENDBRANCH   9  12
BRANCH   6  27
HETATM   27  O   UNK N   1      44.572  33.540  50.022  0.00  0.00    -0.360 OA
HETATM   28  H   UNK N   1      44.143  32.759  50.407  0.00  0.00     0.217 HD
ENDBRANCH   6  27
BRANCH   7  29
HETATM   29  O   UNK N   1      45.767  33.270  45.441  0.00  0.00    -0.361 OA
HETATM   30  H   UNK N   1      44.884  32.980  45.171  0.00  0.00     0.217 HD
ENDBRANCH   7  29
TORSDOF 8
ENDMDL
MODEL 6
REMARK VINA RESULT:      -5.9      1.596      3.724
REMARK  8 active torsions:
REMARK  status: ('A' for Active; 'I' for Inactive)
REMARK    1  A    between atoms: O_3  and  C_10 
REMARK    2  A    between atoms: O_4  and  C_11 
REMARK    3  A    between atoms: O_5  and  C_12 
REMARK    4  A    between atoms: O_6  and  C_22 
REMARK    5  A    between atoms: C_14  and  C_15 
REMARK    6  A    between atoms: C_16  and  C_24 
REMARK    7  A    between atoms: C_22  and  C_24 
REMARK    8  A    between atoms: C_22  and  C_25 
ROOT
HETATM    1  O   UNK N   1      41.812  49.762  45.211  0.00  0.00    -0.321 OA
HETATM    2  O   UNK N   1      38.818  47.141  45.208  0.00  0.00    -0.286 OA
HETATM    3  C   UNK N   1      40.741  50.032  44.477  0.00  0.00     0.094 A 
HETATM    4  C   UNK N   1      41.931  48.649  45.918  0.00  0.00     0.159 A 
HETATM    5  C   UNK N   1      39.725  47.950  45.206  0.00  0.00     0.200 A 
HETATM    6  C   UNK N   1      38.540  49.463  43.588  0.00  0.00     0.085 A 
HETATM    7  C   UNK N   1      39.633  51.536  42.937  0.00  0.00     0.071 A 
HETATM    8  C   UNK N   1      39.650  49.138  44.424  0.00  0.00     0.082 A 
HETATM    9  C   UNK N   1      40.902  47.705  45.957  0.00  0.00     0.048 A 
HETATM   10  C   UNK N   1      40.723  51.220  43.747  0.00  0.00     0.074 A 
HETATM   11  C   UNK N   1      38.555  50.664  42.852  0.00  0.00     0.074 A 
ENDROOT
BRANCH   9  12
HETATM   12  C   UNK N   1      41.096  46.478  46.774  0.00  0.00    -0.019 A 
HETATM   13  C   UNK N   1      41.200  46.543  48.172  0.00  0.00     0.022 A 
HETATM   14  C   UNK N   1      41.424  45.378  48.932  0.00  0.00    -0.021 A 
HETATM   15  C   UNK N   1      41.520  44.130  48.277  0.00  0.00     0.074 A 
HETATM   16  C   UNK N   1      41.400  44.082  46.874  0.00  0.00     0.038 A 
HETATM   17  C   UNK N   1      41.211  45.236  46.136  0.00  0.00     0.015 A 
BRANCH  14  18
HETATM   18  C   UNK N   1      41.548  45.488  50.437  0.00  0.00     0.077 C 
BRANCH  18  19
HETATM   19  C   UNK N   1      40.847  44.325  51.174  0.00  0.00     0.150 C 
BRANCH  19  20
HETATM   20  O   UNK N   1      39.527  44.134  50.730  0.00  0.00    -0.391 OA
HETATM   21  H   UNK N   1      38.914  44.339  51.477  0.00  0.00     0.210 HD
ENDBRANCH  19  20
BRANCH  19  22
HETATM   22  C   UNK N   1      40.934  44.438  52.691  0.00  0.00    -0.065 C 
HETATM   23  C   UNK N   1      41.765  45.313  53.292  0.00  0.00     0.016 C 
HETATM   24  C   UNK N   1      40.064  43.538  53.526  0.00  0.00     0.045 C 
ENDBRANCH  19  22
ENDBRANCH  18  19
ENDBRANCH  14  18
BRANCH  15  25
HETATM   25  O   UNK N   1      41.718  42.991  48.994  0.00  0.00    -0.355 OA
HETATM   26  C   UNK N   1      41.785  41.748  48.397  0.00  0.00     0.210 C 
ENDBRANCH  15  25
ENDBRANCH   9  12
BRANCH   6  27
HETATM   27  O   UNK N   1      37.478  48.645  43.474  0.00  0.00    -0.360 OA
HETATM   28  H   UNK N   1      36.669  48.946  43.030  0.00  0.00     0.217 HD
ENDBRANCH   6  27
BRANCH   7  29
HETATM   29  O   UNK N   1      39.627  52.685  42.234  0.00  0.00    -0.361 OA
HETATM   30  H   UNK N   1      40.430  53.008  41.802  0.00  0.00     0.217 HD
ENDBRANCH   7  29
TORSDOF 8
ENDMDL
MODEL 7
REMARK VINA RESULT:      -5.8     14.301     17.360
REMARK  8 active torsions:
REMARK  status: ('A' for Active; 'I' for Inactive)
REMARK    1  A    between atoms: O_3  and  C_10 
REMARK    2  A    between atoms: O_4  and  C_11 
REMARK    3  A    between atoms: O_5  and  C_12 
REMARK    4  A    between atoms: O_6  and  C_22 
REMARK    5  A    between atoms: C_14  and  C_15 
REMARK    6  A    between atoms: C_16  and  C_24 
REMARK    7  A    between atoms: C_22  and  C_24 
REMARK    8  A    between atoms: C_22  and  C_25 
ROOT
HETATM    1  O   UNK N   1      46.660  34.657  50.666  0.00  0.00    -0.321 OA
HETATM    2  O   UNK N   1      47.797  31.064  51.942  0.00  0.00    -0.286 OA
HETATM    3  C   UNK N   1      45.940  33.604  50.302  0.00  0.00     0.094 A 
HETATM    4  C   UNK N   1      47.748  34.554  51.413  0.00  0.00     0.159 A 
HETATM    5  C   UNK N   1      47.438  32.158  51.551  0.00  0.00     0.200 A 
HETATM    6  C   UNK N   1      45.508  31.202  50.258  0.00  0.00     0.085 A 
HETATM    7  C   UNK N   1      44.052  32.738  49.059  0.00  0.00     0.071 A 
HETATM    8  C   UNK N   1      46.297  32.301  50.712  0.00  0.00     0.082 A 
HETATM    9  C   UNK N   1      48.180  33.316  51.894  0.00  0.00     0.048 A 
HETATM   10  C   UNK N   1      44.824  33.814  49.493  0.00  0.00     0.074 A 
HETATM   11  C   UNK N   1      44.393  31.443  49.431  0.00  0.00     0.074 A 
ENDROOT
BRANCH   9  12
HETATM   12  C   UNK N   1      49.407  33.270  52.731  0.00  0.00    -0.019 A 
HETATM   13  C   UNK N   1      50.679  33.147  52.152  0.00  0.00     0.022 A 
HETATM   14  C   UNK N   1      51.832  33.064  52.957  0.00  0.00    -0.021 A 
HETATM   15  C   UNK N   1      51.702  33.129  54.363  0.00  0.00     0.074 A 
HETATM   16  C   UNK N   1      50.419  33.266  54.926  0.00  0.00     0.038 A 
HETATM   17  C   UNK N   1      49.292  33.316  54.127  0.00  0.00     0.015 A 
BRANCH  14  18
HETATM   18  C   UNK N   1      53.187  32.915  52.299  0.00  0.00     0.077 C 
BRANCH  18  19
HETATM   19  C   UNK N   1      53.868  34.275  52.031  0.00  0.00     0.150 C 
BRANCH  19  20
HETATM   20  O   UNK N   1      53.455  35.264  52.941  0.00  0.00    -0.391 OA
HETATM   21  H   UNK N   1      53.857  36.125  52.669  0.00  0.00     0.210 HD
ENDBRANCH  19  20
BRANCH  19  22
HETATM   22  C   UNK N   1      53.740  34.734  50.584  0.00  0.00    -0.065 C 
HETATM   23  C   UNK N   1      54.023  35.998  50.211  0.00  0.00     0.016 C 
HETATM   24  C   UNK N   1      53.281  33.736  49.556  0.00  0.00     0.045 C 
ENDBRANCH  19  22
ENDBRANCH  18  19
ENDBRANCH  14  18
BRANCH  15  25
HETATM   25  O   UNK N   1      52.805  33.069  55.158  0.00  0.00    -0.355 OA
HETATM   26  C   UNK N   1      52.739  33.265  56.523  0.00  0.00     0.210 C 
ENDBRANCH  15  25
ENDBRANCH   9  12
BRANCH   6  27
HETATM   27  O   UNK N   1      45.806  29.933  50.593  0.00  0.00    -0.360 OA
HETATM   28  H   UNK N   1      46.375  29.745  51.357  0.00  0.00     0.217 HD
ENDBRANCH   6  27
BRANCH   7  29
HETATM   29  O   UNK N   1      42.977  32.951  48.275  0.00  0.00    -0.361 OA
HETATM   30  H   UNK N   1      42.403  33.717  48.416  0.00  0.00     0.217 HD
ENDBRANCH   7  29
TORSDOF 8
ENDMDL
MODEL 8
REMARK VINA RESULT:      -5.8     15.501     18.013
REMARK  8 active torsions:
REMARK  status: ('A' for Active; 'I' for Inactive)
REMARK    1  A    between atoms: O_3  and  C_10 
REMARK    2  A    between atoms: O_4  and  C_11 
REMARK    3  A    between atoms: O_5  and  C_12 
REMARK    4  A    between atoms: O_6  and  C_22 
REMARK    5  A    between atoms: C_14  and  C_15 
REMARK    6  A    between atoms: C_16  and  C_24 
REMARK    7  A    between atoms: C_22  and  C_24 
REMARK    8  A    between atoms: C_22  and  C_25 
ROOT
HETATM    1  O   UNK N   1      30.560  44.473  61.145  0.00  0.00    -0.321 OA
HETATM    2  O   UNK N   1      34.265  43.102  60.665  0.00  0.00    -0.286 OA
HETATM    3  C   UNK N   1      30.908  44.003  59.953  0.00  0.00     0.094 A 
HETATM    4  C   UNK N   1      31.402  44.523  62.165  0.00  0.00     0.159 A 
HETATM    5  C   UNK N   1      33.129  43.514  60.803  0.00  0.00     0.200 A 
HETATM    6  C   UNK N   1      32.538  43.057  58.404  0.00  0.00     0.085 A 
HETATM    7  C   UNK N   1      30.280  43.562  57.658  0.00  0.00     0.071 A 
HETATM    8  C   UNK N   1      32.210  43.514  59.715  0.00  0.00     0.082 A 
HETATM    9  C   UNK N   1      32.708  44.043  62.049  0.00  0.00     0.048 A 
HETATM   10  C   UNK N   1      29.955  44.016  58.935  0.00  0.00     0.074 A 
HETATM   11  C   UNK N   1      31.560  43.093  57.391  0.00  0.00     0.074 A 
ENDROOT
BRANCH   9  12
HETATM   12  C   UNK N   1      33.602  44.125  63.233  0.00  0.00    -0.019 A 
HETATM   13  C   UNK N   1      34.851  44.759  63.160  0.00  0.00     0.022 A 
HETATM   14  C   UNK N   1      35.706  44.795  64.280  0.00  0.00    -0.021 A 
HETATM   15  C   UNK N   1      35.287  44.205  65.493  0.00  0.00     0.074 A 
HETATM   16  C   UNK N   1      34.024  43.585  65.552  0.00  0.00     0.038 A 
HETATM   17  C   UNK N   1      33.206  43.529  64.438  0.00  0.00     0.015 A 
BRANCH  14  18
HETATM   18  C   UNK N   1      37.055  45.473  64.161  0.00  0.00     0.077 C 
BRANCH  18  19
HETATM   19  C   UNK N   1      37.441  45.769  62.694  0.00  0.00     0.150 C 
BRANCH  19  20
HETATM   20  O   UNK N   1      38.648  45.149  62.327  0.00  0.00    -0.391 OA
HETATM   21  H   UNK N   1      39.153  45.768  61.745  0.00  0.00     0.210 HD
ENDBRANCH  19  20
BRANCH  19  22
HETATM   22  C   UNK N   1      37.432  47.255  62.360  0.00  0.00    -0.065 C 
HETATM   23  C   UNK N   1      36.311  47.998  62.454  0.00  0.00     0.016 C 
HETATM   24  C   UNK N   1      38.718  47.894  61.911  0.00  0.00     0.045 C 
ENDBRANCH  19  22
ENDBRANCH  18  19
ENDBRANCH  14  18
BRANCH  15  25
HETATM   25  O   UNK N   1      36.090  44.245  66.591  0.00  0.00    -0.355 OA
HETATM   26  C   UNK N   1      36.714  43.118  67.086  0.00  0.00     0.210 C 
ENDBRANCH  15  25
ENDBRANCH   9  12
BRANCH   6  27
HETATM   27  O   UNK N   1      33.768  42.599  58.103  0.00  0.00    -0.360 OA
HETATM   28  H   UNK N   1      34.559  43.087  58.384  0.00  0.00     0.217 HD
ENDBRANCH   6  27
BRANCH   7  29
HETATM   29  O   UNK N   1      29.353  43.581  56.679  0.00  0.00    -0.361 OA
HETATM   30  H   UNK N   1      28.421  43.746  56.880  0.00  0.00     0.217 HD
ENDBRANCH   7  29
TORSDOF 8
ENDMDL
MODEL 9
REMARK VINA RESULT:      -5.8     14.539     17.837
REMARK  8 active torsions:
REMARK  status: ('A' for Active; 'I' for Inactive)
REMARK    1  A    between atoms: O_3  and  C_10 
REMARK    2  A    between atoms: O_4  and  C_11 
REMARK    3  A    between atoms: O_5  and  C_12 
REMARK    4  A    between atoms: O_6  and  C_22 
REMARK    5  A    between atoms: C_14  and  C_15 
REMARK    6  A    between atoms: C_16  and  C_24 
REMARK    7  A    between atoms: C_22  and  C_24 
REMARK    8  A    between atoms: C_22  and  C_25 
ROOT
HETATM    1  O   UNK N   1      47.503  33.995  48.645  0.00  0.00    -0.321 OA
HETATM    2  O   UNK N   1      48.413  30.927  51.009  0.00  0.00    -0.286 OA
HETATM    3  C   UNK N   1      46.527  33.176  49.016  0.00  0.00     0.094 A 
HETATM    4  C   UNK N   1      48.762  33.816  49.010  0.00  0.00     0.159 A 
HETATM    5  C   UNK N   1      48.124  31.864  50.290  0.00  0.00     0.200 A 
HETATM    6  C   UNK N   1      45.705  31.196  50.180  0.00  0.00     0.085 A 
HETATM    7  C   UNK N   1      44.182  32.590  48.895  0.00  0.00     0.071 A 
HETATM    8  C   UNK N   1      46.786  32.063  49.844  0.00  0.00     0.082 A 
HETATM    9  C   UNK N   1      49.129  32.760  49.848  0.00  0.00     0.048 A 
HETATM   10  C   UNK N   1      45.236  33.437  48.557  0.00  0.00     0.074 A 
HETATM   11  C   UNK N   1      44.413  31.475  49.692  0.00  0.00     0.074 A 
ENDROOT
BRANCH   9  12
HETATM   12  C   UNK N   1      50.560  32.617  50.224  0.00  0.00    -0.019 A 
HETATM   13  C   UNK N   1      51.042  33.103  51.448  0.00  0.00     0.022 A 
HETATM   14  C   UNK N   1      52.408  32.997  51.777  0.00  0.00    -0.021 A 
HETATM   15  C   UNK N   1      53.294  32.373  50.869  0.00  0.00     0.074 A 
HETATM   16  C   UNK N   1      52.789  31.879  49.650  0.00  0.00     0.038 A 
HETATM   17  C   UNK N   1      51.452  32.016  49.326  0.00  0.00     0.015 A 
BRANCH  14  18
HETATM   18  C   UNK N   1      52.898  33.547  53.100  0.00  0.00     0.077 C 
BRANCH  18  19
HETATM   19  C   UNK N   1      53.358  35.018  52.995  0.00  0.00     0.150 C 
BRANCH  19  20
HETATM   20  O   UNK N   1      54.744  35.128  52.785  0.00  0.00    -0.391 OA
HETATM   21  H   UNK N   1      55.116  34.218  52.683  0.00  0.00     0.210 HD
ENDBRANCH  19  20
BRANCH  19  22
HETATM   22  C   UNK N   1      52.880  35.880  54.157  0.00  0.00    -0.065 C 
HETATM   23  C   UNK N   1      51.826  35.525  54.919  0.00  0.00     0.016 C 
HETATM   24  C   UNK N   1      53.616  37.160  54.446  0.00  0.00     0.045 C 
ENDBRANCH  19  22
ENDBRANCH  18  19
ENDBRANCH  14  18
BRANCH  15  25
HETATM   25  O   UNK N   1      54.614  32.244  51.175  0.00  0.00    -0.355 OA
HETATM   26  C   UNK N   1      55.175  31.030  51.515  0.00  0.00     0.210 C 
ENDBRANCH  15  25
ENDBRANCH   9  12
BRANCH   6  27
HETATM   27  O   UNK N   1      45.887  30.104  50.947  0.00  0.00    -0.360 OA
HETATM   28  H   UNK N   1      45.154  29.488  51.109  0.00  0.00     0.217 HD
ENDBRANCH   6  27
BRANCH   7  29
HETATM   29  O   UNK N   1      42.939  32.848  48.444  0.00  0.00    -0.361 OA
HETATM   30  H   UNK N   1      42.232  33.102  49.054  0.00  0.00     0.217 HD
ENDBRANCH   7  29
TORSDOF 8
ENDMDL
