MODEL 1
REMARK VINA RESULT:      -7.8      0.000      0.000
REMARK  6 active torsions:
REMARK  status: ('A' for Active; 'I' for Inactive)
REMARK    1  A    between atoms: O_3  and  C_9 
REMARK    2  A    between atoms: O_4  and  C_10 
REMARK    3  A    between atoms: O_5  and  C_11 
REMARK    4  A    between atoms: C_7  and  C_13 
REMARK    5  A    between atoms: C_14  and  C_21 
REMARK    6  A    between atoms: C_21  and  C_23 
ROOT
HETATM    1  O   UNK N   1      40.726  47.471  47.168  0.00  0.00    -0.309 OA
HETATM    2  O   UNK N   1      38.013  44.647  47.812  0.00  0.00    -0.287 OA
HETATM    3  C   UNK N   1      40.917  46.641  48.187  0.00  0.00     0.095 A 
HETATM    4  C   UNK N   1      39.656  47.421  46.380  0.00  0.00     0.090 A 
HETATM    5  C   UNK N   1      38.851  45.514  47.635  0.00  0.00     0.190 A 
HETATM    6  C   UNK N   1      40.231  44.734  49.550  0.00  0.00     0.085 A 
HETATM    7  C   UNK N   1      42.273  45.951  50.076  0.00  0.00     0.071 A 
HETATM    8  C   UNK N   1      39.989  45.612  48.464  0.00  0.00     0.081 A 
HETATM    9  C   UNK N   1      38.678  46.434  46.600  0.00  0.00     0.094 A 
HETATM   10  C   UNK N   1      42.046  46.806  48.992  0.00  0.00     0.075 A 
HETATM   11  C   UNK N   1      41.375  44.917  50.346  0.00  0.00     0.074 A 
ENDROOT
BRANCH   4  12
HETATM   12  C   UNK N   1      39.539  48.416  45.280  0.00  0.00    -0.002 A 
HETATM   13  C   UNK N   1      38.417  48.375  44.430  0.00  0.00     0.024 A 
HETATM   14  C   UNK N   1      38.256  49.322  43.404  0.00  0.00    -0.021 A 
HETATM   15  C   UNK N   1      39.258  50.291  43.193  0.00  0.00     0.072 A 
HETATM   16  C   UNK N   1      40.389  50.314  44.021  0.00  0.00     0.038 A 
HETATM   17  C   UNK N   1      40.523  49.399  45.065  0.00  0.00     0.017 A 
BRANCH  14  18
HETATM   18  C   UNK N   1      37.002  49.304  42.563  0.00  0.00     0.068 C 
BRANCH  18  19
HETATM   19  C   UNK N   1      36.007  50.317  43.074  0.00  0.00    -0.020 C 
HETATM   20  C   UNK N   1      34.707  50.090  43.390  0.00  0.00    -0.091 C 
HETATM   21  C   UNK N   1      33.875  51.233  43.913  0.00  0.00     0.042 C 
HETATM   22  C   UNK N   1      34.017  48.750  43.262  0.00  0.00     0.042 C 
ENDBRANCH  18  19
ENDBRANCH  14  18
BRANCH  15  23
HETATM   23  O   UNK N   1      39.136  51.185  42.190  0.00  0.00    -0.360 OA
HETATM   24  H   UNK N   1      38.846  50.922  41.305  0.00  0.00     0.217 HD
ENDBRANCH  15  23
ENDBRANCH   4  12
BRANCH   6  25
HETATM   25  O   UNK N   1      39.375  43.729  49.830  0.00  0.00    -0.360 OA
HETATM   26  H   UNK N   1      39.112  43.080  49.161  0.00  0.00     0.217 HD
ENDBRANCH   6  25
BRANCH   7  27
HETATM   27  O   UNK N   1      43.353  46.119  50.865  0.00  0.00    -0.361 OA
HETATM   28  H   UNK N   1      43.504  45.566  51.645  0.00  0.00     0.217 HD
ENDBRANCH   7  27
TORSDOF 6
ENDMDL
MODEL 2
REMARK VINA RESULT:      -7.7      2.127      8.116
REMARK  6 active torsions:
REMARK  status: ('A' for Active; 'I' for Inactive)
REMARK    1  A    between atoms: O_3  and  C_9 
REMARK    2  A    between atoms: O_4  and  C_10 
REMARK    3  A    between atoms: O_5  and  C_11 
REMARK    4  A    between atoms: C_7  and  C_13 
REMARK    5  A    between atoms: C_14  and  C_21 
REMARK    6  A    between atoms: C_21  and  C_23 
ROOT
HETATM    1  O   UNK N   1      40.517  48.800  45.933  0.00  0.00    -0.309 OA
HETATM    2  O   UNK N   1      37.374  46.843  44.503  0.00  0.00    -0.287 OA
HETATM    3  C   UNK N   1      39.899  49.301  44.870  0.00  0.00     0.095 A 
HETATM    4  C   UNK N   1      40.153  47.661  46.516  0.00  0.00     0.090 A 
HETATM    5  C   UNK N   1      38.343  47.452  44.922  0.00  0.00     0.190 A 
HETATM    6  C   UNK N   1      38.127  49.223  43.191  0.00  0.00     0.085 A 
HETATM    7  C   UNK N   1      39.761  51.027  43.171  0.00  0.00     0.071 A 
HETATM    8  C   UNK N   1      38.771  48.653  44.318  0.00  0.00     0.081 A 
HETATM    9  C   UNK N   1      39.049  46.947  46.016  0.00  0.00     0.094 A 
HETATM   10  C   UNK N   1      40.387  50.477  44.294  0.00  0.00     0.075 A 
HETATM   11  C   UNK N   1      38.633  50.407  42.629  0.00  0.00     0.074 A 
ENDROOT
BRANCH   4  12
HETATM   12  C   UNK N   1      40.933  47.187  47.691  0.00  0.00    -0.002 A 
HETATM   13  C   UNK N   1      40.641  45.927  48.248  0.00  0.00     0.024 A 
HETATM   14  C   UNK N   1      41.382  45.432  49.335  0.00  0.00    -0.021 A 
HETATM   15  C   UNK N   1      42.393  46.231  49.905  0.00  0.00     0.072 A 
HETATM   16  C   UNK N   1      42.665  47.497  49.369  0.00  0.00     0.038 A 
HETATM   17  C   UNK N   1      41.955  47.966  48.263  0.00  0.00     0.017 A 
BRANCH  14  18
HETATM   18  C   UNK N   1      41.100  44.043  49.857  0.00  0.00     0.068 C 
BRANCH  18  19
HETATM   19  C   UNK N   1      40.333  44.110  51.154  0.00  0.00    -0.020 C 
HETATM   20  C   UNK N   1      40.705  43.579  52.347  0.00  0.00    -0.091 C 
HETATM   21  C   UNK N   1      39.809  43.777  53.543  0.00  0.00     0.042 C 
HETATM   22  C   UNK N   1      41.978  42.795  52.573  0.00  0.00     0.042 C 
ENDBRANCH  18  19
ENDBRANCH  14  18
BRANCH  15  23
HETATM   23  O   UNK N   1      43.089  45.785  50.972  0.00  0.00    -0.360 OA
HETATM   24  H   UNK N   1      42.891  46.083  51.871  0.00  0.00     0.217 HD
ENDBRANCH  15  23
ENDBRANCH   4  12
BRANCH   6  25
HETATM   25  O   UNK N   1      37.036  48.639  42.650  0.00  0.00    -0.360 OA
HETATM   26  H   UNK N   1      36.138  48.913  42.890  0.00  0.00     0.217 HD
ENDBRANCH   6  25
BRANCH   7  27
HETATM   27  O   UNK N   1      40.241  52.152  42.603  0.00  0.00    -0.361 OA
HETATM   28  H   UNK N   1      39.792  52.576  41.856  0.00  0.00     0.217 HD
ENDBRANCH   7  27
TORSDOF 6
ENDMDL
MODEL 3
REMARK VINA RESULT:      -7.5      1.039      2.470
REMARK  6 active torsions:
REMARK  status: ('A' for Active; 'I' for Inactive)
REMARK    1  A    between atoms: O_3  and  C_9 
REMARK    2  A    between atoms: O_4  and  C_10 
REMARK    3  A    between atoms: O_5  and  C_11 
REMARK    4  A    between atoms: C_7  and  C_13 
REMARK    5  A    between atoms: C_14  and  C_21 
REMARK    6  A    between atoms: C_21  and  C_23 
ROOT
HETATM    1  O   UNK N   1      39.739  47.390  46.550  0.00  0.00    -0.309 OA
HETATM    2  O   UNK N   1      43.374  47.868  48.070  0.00  0.00    -0.287 OA
HETATM    3  C   UNK N   1      40.100  46.611  47.563  0.00  0.00     0.095 A 
HETATM    4  C   UNK N   1      40.547  48.294  46.003  0.00  0.00     0.090 A 
HETATM    5  C   UNK N   1      42.258  47.701  47.610  0.00  0.00     0.190 A 
HETATM    6  C   UNK N   1      41.728  45.900  49.240  0.00  0.00     0.085 A 
HETATM    7  C   UNK N   1      39.553  44.816  49.099  0.00  0.00     0.071 A 
HETATM    8  C   UNK N   1      41.380  46.738  48.150  0.00  0.00     0.081 A 
HETATM    9  C   UNK N   1      41.843  48.469  46.520  0.00  0.00     0.094 A 
HETATM   10  C   UNK N   1      39.200  45.654  48.037  0.00  0.00     0.075 A 
HETATM   11  C   UNK N   1      40.807  44.945  49.701  0.00  0.00     0.074 A 
ENDROOT
BRANCH   4  12
HETATM   12  C   UNK N   1      40.039  49.096  44.858  0.00  0.00    -0.002 A 
HETATM   13  C   UNK N   1      38.803  48.757  44.273  0.00  0.00     0.024 A 
HETATM   14  C   UNK N   1      38.276  49.516  43.214  0.00  0.00    -0.021 A 
HETATM   15  C   UNK N   1      39.019  50.597  42.700  0.00  0.00     0.072 A 
HETATM   16  C   UNK N   1      40.262  50.918  43.263  0.00  0.00     0.038 A 
HETATM   17  C   UNK N   1      40.761  50.188  44.342  0.00  0.00     0.017 A 
BRANCH  14  18
HETATM   18  C   UNK N   1      36.911  49.178  42.663  0.00  0.00     0.068 C 
BRANCH  18  19
HETATM   19  C   UNK N   1      35.900  50.216  43.081  0.00  0.00    -0.020 C 
HETATM   20  C   UNK N   1      34.588  50.006  43.360  0.00  0.00    -0.091 C 
HETATM   21  C   UNK N   1      33.739  51.175  43.790  0.00  0.00     0.042 C 
HETATM   22  C   UNK N   1      33.902  48.661  43.279  0.00  0.00     0.042 C 
ENDBRANCH  18  19
ENDBRANCH  14  18
BRANCH  15  23
HETATM   23  O   UNK N   1      38.543  51.313  41.660  0.00  0.00    -0.360 OA
HETATM   24  H   UNK N   1      39.106  51.566  40.914  0.00  0.00     0.217 HD
ENDBRANCH  15  23
ENDBRANCH   4  12
BRANCH   6  25
HETATM   25  O   UNK N   1      42.935  46.008  49.835  0.00  0.00    -0.360 OA
HETATM   26  H   UNK N   1      43.143  45.539  50.657  0.00  0.00     0.217 HD
ENDBRANCH   6  25
BRANCH   7  27
HETATM   27  O   UNK N   1      38.693  43.879  49.546  0.00  0.00    -0.361 OA
HETATM   28  H   UNK N   1      38.368  43.880  50.459  0.00  0.00     0.217 HD
ENDBRANCH   7  27
TORSDOF 6
ENDMDL
MODEL 4
REMARK VINA RESULT:      -7.2      2.455      2.771
REMARK  6 active torsions:
REMARK  status: ('A' for Active; 'I' for Inactive)
REMARK    1  A    between atoms: O_3  and  C_9 
REMARK    2  A    between atoms: O_4  and  C_10 
REMARK    3  A    between atoms: O_5  and  C_11 
REMARK    4  A    between atoms: C_7  and  C_13 
REMARK    5  A    between atoms: C_14  and  C_21 
REMARK    6  A    between atoms: C_21  and  C_23 
ROOT
HETATM    1  O   UNK N   1      41.031  46.122  44.957  0.00  0.00    -0.309 OA
HETATM    2  O   UNK N   1      40.705  45.850  48.903  0.00  0.00    -0.287 OA
HETATM    3  C   UNK N   1      41.458  45.010  45.545  0.00  0.00     0.095 A 
HETATM    4  C   UNK N   1      40.535  47.156  45.631  0.00  0.00     0.090 A 
HETATM    5  C   UNK N   1      40.822  45.920  47.693  0.00  0.00     0.190 A 
HETATM    6  C   UNK N   1      41.814  43.646  47.540  0.00  0.00     0.085 A 
HETATM    7  C   UNK N   1      42.476  42.817  45.349  0.00  0.00     0.071 A 
HETATM    8  C   UNK N   1      41.363  44.852  46.946  0.00  0.00     0.081 A 
HETATM    9  C   UNK N   1      40.422  47.083  47.031  0.00  0.00     0.094 A 
HETATM   10  C   UNK N   1      42.014  43.998  44.759  0.00  0.00     0.075 A 
HETATM   11  C   UNK N   1      42.369  42.640  46.730  0.00  0.00     0.074 A 
ENDROOT
BRANCH   4  12
HETATM   12  C   UNK N   1      40.106  48.358  44.866  0.00  0.00    -0.002 A 
HETATM   13  C   UNK N   1      38.911  48.311  44.121  0.00  0.00     0.024 A 
HETATM   14  C   UNK N   1      38.458  49.440  43.417  0.00  0.00    -0.021 A 
HETATM   15  C   UNK N   1      39.237  50.614  43.416  0.00  0.00     0.072 A 
HETATM   16  C   UNK N   1      40.440  50.652  44.133  0.00  0.00     0.038 A 
HETATM   17  C   UNK N   1      40.865  49.543  44.865  0.00  0.00     0.017 A 
BRANCH  14  18
HETATM   18  C   UNK N   1      37.131  49.384  42.697  0.00  0.00     0.068 C 
BRANCH  18  19
HETATM   19  C   UNK N   1      36.166  50.382  43.288  0.00  0.00    -0.020 C 
HETATM   20  C   UNK N   1      34.840  50.195  43.510  0.00  0.00    -0.091 C 
HETATM   21  C   UNK N   1      34.044  51.311  44.138  0.00  0.00     0.042 C 
HETATM   22  C   UNK N   1      34.088  48.927  43.176  0.00  0.00     0.042 C 
ENDBRANCH  18  19
ENDBRANCH  14  18
BRANCH  15  23
HETATM   23  O   UNK N   1      38.833  51.694  42.716  0.00  0.00    -0.360 OA
HETATM   24  H   UNK N   1      38.438  52.465  43.149  0.00  0.00     0.217 HD
ENDBRANCH  15  23
ENDBRANCH   4  12
BRANCH   6  25
HETATM   25  O   UNK N   1      41.721  43.455  48.874  0.00  0.00    -0.360 OA
HETATM   26  H   UNK N   1      41.863  44.177  49.504  0.00  0.00     0.217 HD
ENDBRANCH   6  25
BRANCH   7  27
HETATM   27  O   UNK N   1      43.030  41.847  44.594  0.00  0.00    -0.361 OA
HETATM   28  H   UNK N   1      43.952  41.893  44.302  0.00  0.00     0.217 HD
ENDBRANCH   7  27
TORSDOF 6
ENDMDL
MODEL 5
REMARK VINA RESULT:      -7.1     16.089     19.395
REMARK  6 active torsions:
REMARK  status: ('A' for Active; 'I' for Inactive)
REMARK    1  A    between atoms: O_3  and  C_9 
REMARK    2  A    between atoms: O_4  and  C_10 
REMARK    3  A    between atoms: O_5  and  C_11 
REMARK    4  A    between atoms: C_7  and  C_13 
REMARK    5  A    between atoms: C_14  and  C_21 
REMARK    6  A    between atoms: C_21  and  C_23 
ROOT
HETATM    1  O   UNK N   1      48.439  31.015  44.986  0.00  0.00    -0.309 OA
HETATM    2  O   UNK N   1      51.748  32.699  46.388  0.00  0.00    -0.287 OA
HETATM    3  C   UNK N   1      49.478  31.130  44.166  0.00  0.00     0.095 A 
HETATM    4  C   UNK N   1      48.446  31.467  46.237  0.00  0.00     0.090 A 
HETATM    5  C   UNK N   1      50.738  32.188  45.938  0.00  0.00     0.190 A 
HETATM    6  C   UNK N   1      51.779  31.809  43.712  0.00  0.00     0.085 A 
HETATM    7  C   UNK N   1      50.432  30.784  41.964  0.00  0.00     0.071 A 
HETATM    8  C   UNK N   1      50.685  31.716  44.609  0.00  0.00     0.081 A 
HETATM    9  C   UNK N   1      49.606  32.077  46.748  0.00  0.00     0.094 A 
HETATM   10  C   UNK N   1      49.357  30.672  42.853  0.00  0.00     0.075 A 
HETATM   11  C   UNK N   1      51.637  31.341  42.395  0.00  0.00     0.074 A 
ENDROOT
BRANCH   4  12
HETATM   12  C   UNK N   1      47.216  31.299  47.057  0.00  0.00    -0.002 A 
HETATM   13  C   UNK N   1      46.708  32.402  47.771  0.00  0.00     0.024 A 
HETATM   14  C   UNK N   1      45.529  32.290  48.526  0.00  0.00    -0.021 A 
HETATM   15  C   UNK N   1      44.877  31.043  48.610  0.00  0.00     0.072 A 
HETATM   16  C   UNK N   1      45.398  29.938  47.924  0.00  0.00     0.038 A 
HETATM   17  C   UNK N   1      46.546  30.065  47.141  0.00  0.00     0.017 A 
BRANCH  14  18
HETATM   18  C   UNK N   1      44.964  33.511  49.212  0.00  0.00     0.068 C 
BRANCH  18  19
HETATM   19  C   UNK N   1      45.697  33.780  50.503  0.00  0.00    -0.020 C 
HETATM   20  C   UNK N   1      46.655  34.718  50.712  0.00  0.00    -0.091 C 
HETATM   21  C   UNK N   1      47.254  34.851  52.089  0.00  0.00     0.042 C 
HETATM   22  C   UNK N   1      47.174  35.661  49.651  0.00  0.00     0.042 C 
ENDBRANCH  18  19
ENDBRANCH  14  18
BRANCH  15  23
HETATM   23  O   UNK N   1      43.763  30.909  49.360  0.00  0.00    -0.360 OA
HETATM   24  H   UNK N   1      43.120  30.205  49.197  0.00  0.00     0.217 HD
ENDBRANCH  15  23
ENDBRANCH   4  12
BRANCH   6  25
HETATM   25  O   UNK N   1      52.953  32.346  44.108  0.00  0.00    -0.360 OA
HETATM   26  H   UNK N   1      53.727  31.797  44.302  0.00  0.00     0.217 HD
ENDBRANCH   6  25
BRANCH   7  27
HETATM   27  O   UNK N   1      50.312  30.359  40.689  0.00  0.00    -0.361 OA
HETATM   28  H   UNK N   1      49.692  29.656  40.444  0.00  0.00     0.217 HD
ENDBRANCH   7  27
TORSDOF 6
ENDMDL
MODEL 6
REMARK VINA RESULT:      -6.7      9.003     14.427
REMARK  6 active torsions:
REMARK  status: ('A' for Active; 'I' for Inactive)
REMARK    1  A    between atoms: O_3  and  C_9 
REMARK    2  A    between atoms: O_4  and  C_10 
REMARK    3  A    between atoms: O_5  and  C_11 
REMARK    4  A    between atoms: C_7  and  C_13 
REMARK    5  A    between atoms: C_14  and  C_21 
REMARK    6  A    between atoms: C_21  and  C_23 
ROOT
HETATM    1  O   UNK N   1      29.138  54.712  42.077  0.00  0.00    -0.309 OA
HETATM    2  O   UNK N   1      30.174  57.554  39.507  0.00  0.00    -0.287 OA
HETATM    3  C   UNK N   1      28.194  55.223  41.295  0.00  0.00     0.095 A 
HETATM    4  C   UNK N   1      30.400  55.131  42.061  0.00  0.00     0.090 A 
HETATM    5  C   UNK N   1      29.836  56.690  40.296  0.00  0.00     0.190 A 
HETATM    6  C   UNK N   1      27.473  56.747  39.527  0.00  0.00     0.085 A 
HETATM    7  C   UNK N   1      25.866  55.277  40.615  0.00  0.00     0.071 A 
HETATM    8  C   UNK N   1      28.502  56.234  40.357  0.00  0.00     0.081 A 
HETATM    9  C   UNK N   1      30.784  56.146  41.165  0.00  0.00     0.094 A 
HETATM   10  C   UNK N   1      26.884  54.755  41.421  0.00  0.00     0.075 A 
HETATM   11  C   UNK N   1      26.162  56.260  39.669  0.00  0.00     0.074 A 
ENDROOT
BRANCH   4  12
HETATM   12  C   UNK N   1      31.368  54.498  42.997  0.00  0.00    -0.002 A 
HETATM   13  C   UNK N   1      32.405  55.276  43.547  0.00  0.00     0.024 A 
HETATM   14  C   UNK N   1      33.315  54.719  44.461  0.00  0.00    -0.021 A 
HETATM   15  C   UNK N   1      33.217  53.352  44.791  0.00  0.00     0.072 A 
HETATM   16  C   UNK N   1      32.202  52.570  44.222  0.00  0.00     0.038 A 
HETATM   17  C   UNK N   1      31.276  53.138  43.347  0.00  0.00     0.017 A 
BRANCH  14  18
HETATM   18  C   UNK N   1      34.365  55.599  45.098  0.00  0.00     0.068 C 
BRANCH  18  19
HETATM   19  C   UNK N   1      33.730  56.557  46.076  0.00  0.00    -0.020 C 
HETATM   20  C   UNK N   1      34.246  56.963  47.264  0.00  0.00    -0.091 C 
HETATM   21  C   UNK N   1      33.468  57.952  48.094  0.00  0.00     0.042 C 
HETATM   22  C   UNK N   1      35.569  56.495  47.827  0.00  0.00     0.042 C 
ENDBRANCH  18  19
ENDBRANCH  14  18
BRANCH  15  23
HETATM   23  O   UNK N   1      34.104  52.794  45.640  0.00  0.00    -0.360 OA
HETATM   24  H   UNK N   1      35.059  52.915  45.534  0.00  0.00     0.217 HD
ENDBRANCH  15  23
ENDBRANCH   4  12
BRANCH   6  25
HETATM   25  O   UNK N   1      27.737  57.699  38.607  0.00  0.00    -0.360 OA
HETATM   26  H   UNK N   1      28.635  57.861  38.283  0.00  0.00     0.217 HD
ENDBRANCH   6  25
BRANCH   7  27
HETATM   27  O   UNK N   1      24.598  54.839  40.747  0.00  0.00    -0.361 OA
HETATM   28  H   UNK N   1      24.187  54.263  40.085  0.00  0.00     0.217 HD
ENDBRANCH   7  27
TORSDOF 6
ENDMDL
MODEL 7
REMARK VINA RESULT:      -6.7     15.566     18.503
REMARK  6 active torsions:
REMARK  status: ('A' for Active; 'I' for Inactive)
REMARK    1  A    between atoms: O_3  and  C_9 
REMARK    2  A    between atoms: O_4  and  C_10 
REMARK    3  A    between atoms: O_5  and  C_11 
REMARK    4  A    between atoms: C_7  and  C_13 
REMARK    5  A    between atoms: C_14  and  C_21 
REMARK    6  A    between atoms: C_21  and  C_23 
ROOT
HETATM    1  O   UNK N   1      49.046  32.932  51.351  0.00  0.00    -0.309 OA
HETATM    2  O   UNK N   1      49.102  35.105  54.672  0.00  0.00    -0.287 OA
HETATM    3  C   UNK N   1      50.170  32.966  52.058  0.00  0.00     0.095 A 
HETATM    4  C   UNK N   1      47.956  33.617  51.686  0.00  0.00     0.090 A 
HETATM    5  C   UNK N   1      49.106  34.441  53.651  0.00  0.00     0.190 A 
HETATM    6  C   UNK N   1      51.461  33.719  53.989  0.00  0.00     0.085 A 
HETATM    7  C   UNK N   1      52.480  32.274  52.317  0.00  0.00     0.071 A 
HETATM    8  C   UNK N   1      50.250  33.717  53.252  0.00  0.00     0.081 A 
HETATM    9  C   UNK N   1      47.961  34.402  52.853  0.00  0.00     0.094 A 
HETATM   10  C   UNK N   1      51.280  32.255  51.597  0.00  0.00     0.075 A 
HETATM   11  C   UNK N   1      52.566  32.996  53.509  0.00  0.00     0.074 A 
ENDROOT
BRANCH   4  12
HETATM   12  C   UNK N   1      46.760  33.518  50.807  0.00  0.00    -0.002 A 
HETATM   13  C   UNK N   1      46.508  32.315  50.119  0.00  0.00     0.024 A 
HETATM   14  C   UNK N   1      45.369  32.174  49.309  0.00  0.00    -0.021 A 
HETATM   15  C   UNK N   1      44.497  33.268  49.144  0.00  0.00     0.072 A 
HETATM   16  C   UNK N   1      44.762  34.475  49.806  0.00  0.00     0.038 A 
HETATM   17  C   UNK N   1      45.871  34.596  50.642  0.00  0.00     0.017 A 
BRANCH  14  18
HETATM   18  C   UNK N   1      45.082  30.844  48.651  0.00  0.00     0.068 C 
BRANCH  18  19
HETATM   19  C   UNK N   1      46.248  30.416  47.794  0.00  0.00    -0.020 C 
HETATM   20  C   UNK N   1      46.736  31.066  46.706  0.00  0.00    -0.091 C 
HETATM   21  C   UNK N   1      47.933  30.490  45.993  0.00  0.00     0.042 C 
HETATM   22  C   UNK N   1      46.165  32.350  46.149  0.00  0.00     0.042 C 
ENDBRANCH  18  19
ENDBRANCH  14  18
BRANCH  15  23
HETATM   23  O   UNK N   1      43.417  33.160  48.342  0.00  0.00    -0.360 OA
HETATM   24  H   UNK N   1      42.809  32.410  48.403  0.00  0.00     0.217 HD
ENDBRANCH  15  23
ENDBRANCH   4  12
BRANCH   6  25
HETATM   25  O   UNK N   1      51.566  34.411  55.144  0.00  0.00    -0.360 OA
HETATM   26  H   UNK N   1      50.967  34.256  55.889  0.00  0.00     0.217 HD
ENDBRANCH   6  25
BRANCH   7  27
HETATM   27  O   UNK N   1      53.559  31.603  51.865  0.00  0.00    -0.361 OA
HETATM   28  H   UNK N   1      53.766  30.708  52.171  0.00  0.00     0.217 HD
ENDBRANCH   7  27
TORSDOF 6
ENDMDL
MODEL 8
REMARK VINA RESULT:      -6.7     15.918     19.228
REMARK  6 active torsions:
REMARK  status: ('A' for Active; 'I' for Inactive)
REMARK    1  A    between atoms: O_3  and  C_9 
REMARK    2  A    between atoms: O_4  and  C_10 
REMARK    3  A    between atoms: O_5  and  C_11 
REMARK    4  A    between atoms: C_7  and  C_13 
REMARK    5  A    between atoms: C_14  and  C_21 
REMARK    6  A    between atoms: C_21  and  C_23 
ROOT
HETATM    1  O   UNK N   1      48.166  32.820  46.879  0.00  0.00    -0.309 OA
HETATM    2  O   UNK N   1      45.152  30.552  48.112  0.00  0.00    -0.287 OA
HETATM    3  C   UNK N   1      47.385  33.289  47.845  0.00  0.00     0.095 A 
HETATM    4  C   UNK N   1      47.964  31.647  46.286  0.00  0.00     0.090 A 
HETATM    5  C   UNK N   1      46.066  31.266  47.739  0.00  0.00     0.190 A 
HETATM    6  C   UNK N   1      45.494  33.050  49.373  0.00  0.00     0.085 A 
HETATM    7  C   UNK N   1      46.838  35.080  49.387  0.00  0.00     0.071 A 
HETATM    8  C   UNK N   1      46.299  32.526  48.330  0.00  0.00     0.081 A 
HETATM    9  C   UNK N   1      46.894  30.835  46.701  0.00  0.00     0.094 A 
HETATM   10  C   UNK N   1      47.645  34.557  48.371  0.00  0.00     0.075 A 
HETATM   11  C   UNK N   1      45.775  34.327  49.889  0.00  0.00     0.074 A 
ENDROOT
BRANCH   4  12
HETATM   12  C   UNK N   1      48.894  31.234  45.200  0.00  0.00    -0.002 A 
HETATM   13  C   UNK N   1      50.185  31.795  45.147  0.00  0.00     0.024 A 
HETATM   14  C   UNK N   1      51.101  31.400  44.158  0.00  0.00    -0.021 A 
HETATM   15  C   UNK N   1      50.703  30.471  43.177  0.00  0.00     0.072 A 
HETATM   16  C   UNK N   1      49.409  29.934  43.211  0.00  0.00     0.038 A 
HETATM   17  C   UNK N   1      48.517  30.297  44.221  0.00  0.00     0.017 A 
BRANCH  14  18
HETATM   18  C   UNK N   1      52.505  31.957  44.178  0.00  0.00     0.068 C 
BRANCH  18  19
HETATM   19  C   UNK N   1      52.694  32.955  43.063  0.00  0.00    -0.020 C 
HETATM   20  C   UNK N   1      53.673  32.945  42.122  0.00  0.00    -0.091 C 
HETATM   21  C   UNK N   1      53.678  34.021  41.066  0.00  0.00     0.042 C 
HETATM   22  C   UNK N   1      54.776  31.914  42.047  0.00  0.00     0.042 C 
ENDBRANCH  18  19
ENDBRANCH  14  18
BRANCH  15  23
HETATM   23  O   UNK N   1      51.559  30.108  42.198  0.00  0.00    -0.360 OA
HETATM   24  H   UNK N   1      51.689  30.651  41.408  0.00  0.00     0.217 HD
ENDBRANCH  15  23
ENDBRANCH   4  12
BRANCH   6  25
HETATM   25  O   UNK N   1      44.461  32.339  49.872  0.00  0.00    -0.360 OA
HETATM   26  H   UNK N   1      43.811  31.910  49.297  0.00  0.00     0.217 HD
ENDBRANCH   6  25
BRANCH   7  27
HETATM   27  O   UNK N   1      47.076  36.311  49.883  0.00  0.00    -0.361 OA
HETATM   28  H   UNK N   1      47.671  36.450  50.634  0.00  0.00     0.217 HD
ENDBRANCH   7  27
TORSDOF 6
ENDMDL
MODEL 9
REMARK VINA RESULT:      -6.7     16.164     19.201
REMARK  6 active torsions:
REMARK  status: ('A' for Active; 'I' for Inactive)
REMARK    1  A    between atoms: O_3  and  C_9 
REMARK    2  A    between atoms: O_4  and  C_10 
REMARK    3  A    between atoms: O_5  and  C_11 
REMARK    4  A    between atoms: C_7  and  C_13 
REMARK    5  A    between atoms: C_14  and  C_21 
REMARK    6  A    between atoms: C_21  and  C_23 
ROOT
HETATM    1  O   UNK N   1      48.304  33.144  49.566  0.00  0.00    -0.309 OA
HETATM    2  O   UNK N   1      44.447  34.072  49.464  0.00  0.00    -0.287 OA
HETATM    3  C   UNK N   1      47.650  32.972  48.423  0.00  0.00     0.095 A 
HETATM    4  C   UNK N   1      47.721  33.577  50.680  0.00  0.00     0.090 A 
HETATM    5  C   UNK N   1      45.627  33.772  49.480  0.00  0.00     0.190 A 
HETATM    6  C   UNK N   1      45.611  33.108  47.084  0.00  0.00     0.085 A 
HETATM    7  C   UNK N   1      47.673  32.265  46.103  0.00  0.00     0.071 A 
HETATM    8  C   UNK N   1      46.276  33.289  48.323  0.00  0.00     0.081 A 
HETATM    9  C   UNK N   1      46.352  33.900  50.666  0.00  0.00     0.094 A 
HETATM   10  C   UNK N   1      48.336  32.461  47.319  0.00  0.00     0.075 A 
HETATM   11  C   UNK N   1      46.321  32.594  45.986  0.00  0.00     0.074 A 
ENDROOT
BRANCH   4  12
HETATM   12  C   UNK N   1      48.552  33.712  51.906  0.00  0.00    -0.002 A 
HETATM   13  C   UNK N   1      49.857  33.184  51.917  0.00  0.00     0.024 A 
HETATM   14  C   UNK N   1      50.682  33.326  53.045  0.00  0.00    -0.021 A 
HETATM   15  C   UNK N   1      50.176  33.959  54.198  0.00  0.00     0.072 A 
HETATM   16  C   UNK N   1      48.867  34.459  54.199  0.00  0.00     0.038 A 
HETATM   17  C   UNK N   1      48.066  34.354  53.061  0.00  0.00     0.017 A 
BRANCH  14  18
HETATM   18  C   UNK N   1      52.106  32.823  52.995  0.00  0.00     0.068 C 
BRANCH  18  19
HETATM   19  C   UNK N   1      52.880  33.534  51.913  0.00  0.00    -0.020 C 
HETATM   20  C   UNK N   1      53.460  34.758  52.000  0.00  0.00    -0.091 C 
HETATM   21  C   UNK N   1      54.219  35.289  50.811  0.00  0.00     0.042 C 
HETATM   22  C   UNK N   1      53.407  35.643  53.224  0.00  0.00     0.042 C 
ENDBRANCH  18  19
ENDBRANCH  14  18
BRANCH  15  23
HETATM   23  O   UNK N   1      50.943  34.072  55.302  0.00  0.00    -0.360 OA
HETATM   24  H   UNK N   1      50.956  34.880  55.834  0.00  0.00     0.217 HD
ENDBRANCH  15  23
ENDBRANCH   4  12
BRANCH   6  25
HETATM   25  O   UNK N   1      44.304  33.419  46.949  0.00  0.00    -0.360 OA
HETATM   26  H   UNK N   1      43.614  32.947  47.438  0.00  0.00     0.217 HD
ENDBRANCH   6  25
BRANCH   7  27
HETATM   27  O   UNK N   1      48.329  31.755  45.041  0.00  0.00    -0.361 OA
HETATM   28  H   UNK N   1      49.171  31.285  45.141  0.00  0.00     0.217 HD
ENDBRANCH   7  27
TORSDOF 6
ENDMDL
