MODEL 1
REMARK VINA RESULT:      -6.8      0.000      0.000
REMARK  7 active torsions:
REMARK  status: ('A' for Active; 'I' for Inactive)
REMARK    1  A    between atoms: O_3  and  C_10 
REMARK    2  A    between atoms: O_4  and  C_11 
REMARK    3  A    between atoms: O_5  and  C_12 
REMARK    4  A    between atoms: O_6  and  C_13 
REMARK    5  A    between atoms: C_15  and  C_16 
REMARK    6  A    between atoms: C_17  and  C_24 
REMARK    7  A    between atoms: C_24  and  C_26 
ROOT
HETATM    1  O   UNK N   1      30.650  54.933  38.439  0.00  0.00    -0.321 OA
HETATM    2  O   UNK N   1      28.517  53.670  41.549  0.00  0.00    -0.286 OA
HETATM    3  C   UNK N   1      29.504  55.550  38.708  0.00  0.00     0.094 A 
HETATM    4  C   UNK N   1      31.116  53.933  39.177  0.00  0.00     0.159 A 
HETATM    5  C   UNK N   1      29.160  54.059  40.589  0.00  0.00     0.200 A 
HETATM    6  C   UNK N   1      27.522  55.880  40.108  0.00  0.00     0.087 A 
HETATM    7  C   UNK N   1      27.927  57.305  38.162  0.00  0.00     0.071 A 
HETATM    8  C   UNK N   1      28.712  55.157  39.813  0.00  0.00     0.082 A 
HETATM    9  C   UNK N   1      30.386  53.441  40.265  0.00  0.00     0.048 A 
HETATM   10  C   UNK N   1      29.101  56.607  37.890  0.00  0.00     0.074 A 
HETATM   11  C   UNK N   1      27.146  56.953  39.268  0.00  0.00     0.074 A 
ENDROOT
BRANCH   9  12
HETATM   12  C   UNK N   1      30.929  52.301  41.051  0.00  0.00    -0.017 A 
HETATM   13  C   UNK N   1      30.788  50.986  40.590  0.00  0.00     0.052 A 
HETATM   14  C   UNK N   1      31.322  49.909  41.314  0.00  0.00     0.100 A 
HETATM   15  C   UNK N   1      31.967  50.144  42.559  0.00  0.00     0.107 A 
HETATM   16  C   UNK N   1      32.081  51.471  43.034  0.00  0.00    -0.018 A 
HETATM   17  C   UNK N   1      31.595  52.537  42.262  0.00  0.00     0.023 A 
BRANCH  14  18
HETATM   18  O   UNK N   1      31.216  48.662  40.811  0.00  0.00    -0.358 OA
HETATM   19  H   UNK N   1      30.488  48.403  40.227  0.00  0.00     0.218 HD
ENDBRANCH  14  18
BRANCH  15  20
HETATM   20  O   UNK N   1      32.506  49.145  43.318  0.00  0.00    -0.353 OA
HETATM   21  C   UNK N   1      33.770  48.602  43.220  0.00  0.00     0.210 C 
ENDBRANCH  15  20
BRANCH  16  22
HETATM   22  C   UNK N   1      32.704  51.763  44.381  0.00  0.00     0.068 C 
BRANCH  22  23
HETATM   23  C   UNK N   1      33.489  53.049  44.340  0.00  0.00    -0.020 C 
HETATM   24  C   UNK N   1      33.085  54.258  44.801  0.00  0.00    -0.091 C 
HETATM   25  C   UNK N   1      34.036  55.425  44.708  0.00  0.00     0.042 C 
HETATM   26  C   UNK N   1      31.732  54.530  45.417  0.00  0.00     0.042 C 
ENDBRANCH  22  23
ENDBRANCH  16  22
ENDBRANCH   9  12
BRANCH   6  27
HETATM   27  O   UNK N   1      26.778  55.549  41.201  0.00  0.00    -0.355 OA
HETATM   28  C   UNK N   1      26.304  56.441  42.145  0.00  0.00     0.210 C 
ENDBRANCH   6  27
BRANCH   7  29
HETATM   29  O   UNK N   1      27.562  58.326  37.361  0.00  0.00    -0.361 OA
HETATM   30  H   UNK N   1      26.687  58.364  36.948  0.00  0.00     0.217 HD
ENDBRANCH   7  29
TORSDOF 7
ENDMDL
MODEL 2
REMARK VINA RESULT:      -6.8      9.360     13.726
REMARK  7 active torsions:
REMARK  status: ('A' for Active; 'I' for Inactive)
REMARK    1  A    between atoms: O_3  and  C_10 
REMARK    2  A    between atoms: O_4  and  C_11 
REMARK    3  A    between atoms: O_5  and  C_12 
REMARK    4  A    between atoms: O_6  and  C_13 
REMARK    5  A    between atoms: C_15  and  C_16 
REMARK    6  A    between atoms: C_17  and  C_24 
REMARK    7  A    between atoms: C_24  and  C_26 
ROOT
HETATM    1  O   UNK N   1      41.659  49.746  45.142  0.00  0.00    -0.321 OA
HETATM    2  O   UNK N   1      38.956  46.846  45.462  0.00  0.00    -0.286 OA
HETATM    3  C   UNK N   1      40.584  49.799  44.362  0.00  0.00     0.094 A 
HETATM    4  C   UNK N   1      41.851  48.780  46.032  0.00  0.00     0.159 A 
HETATM    5  C   UNK N   1      39.782  47.736  45.350  0.00  0.00     0.200 A 
HETATM    6  C   UNK N   1      38.412  48.928  43.639  0.00  0.00     0.087 A 
HETATM    7  C   UNK N   1      39.323  50.978  42.663  0.00  0.00     0.071 A 
HETATM    8  C   UNK N   1      39.579  48.806  44.444  0.00  0.00     0.082 A 
HETATM    9  C   UNK N   1      40.938  47.728  46.160  0.00  0.00     0.048 A 
HETATM   10  C   UNK N   1      40.454  50.864  43.468  0.00  0.00     0.074 A 
HETATM   11  C   UNK N   1      38.304  50.024  42.752  0.00  0.00     0.074 A 
ENDROOT
BRANCH   9  12
HETATM   12  C   UNK N   1      41.203  46.649  47.149  0.00  0.00    -0.017 A 
HETATM   13  C   UNK N   1      41.556  46.961  48.468  0.00  0.00     0.052 A 
HETATM   14  C   UNK N   1      41.780  45.947  49.411  0.00  0.00     0.100 A 
HETATM   15  C   UNK N   1      41.704  44.583  49.017  0.00  0.00     0.107 A 
HETATM   16  C   UNK N   1      41.376  44.274  47.677  0.00  0.00    -0.018 A 
HETATM   17  C   UNK N   1      41.094  45.304  46.766  0.00  0.00     0.023 A 
BRANCH  14  18
HETATM   18  O   UNK N   1      42.063  46.286  50.686  0.00  0.00    -0.358 OA
HETATM   19  H   UNK N   1      41.911  45.680  51.425  0.00  0.00     0.218 HD
ENDBRANCH  14  18
BRANCH  15  20
HETATM   20  O   UNK N   1      41.913  43.545  49.879  0.00  0.00    -0.353 OA
HETATM   21  C   UNK N   1      41.134  43.175  50.955  0.00  0.00     0.210 C 
ENDBRANCH  15  20
BRANCH  16  22
HETATM   22  C   UNK N   1      41.343  42.839  47.197  0.00  0.00     0.068 C 
BRANCH  22  23
HETATM   23  C   UNK N   1      42.695  42.417  46.682  0.00  0.00    -0.020 C 
HETATM   24  C   UNK N   1      43.212  42.678  45.455  0.00  0.00    -0.091 C 
HETATM   25  C   UNK N   1      44.608  42.205  45.140  0.00  0.00     0.042 C 
HETATM   26  C   UNK N   1      42.484  43.426  44.362  0.00  0.00     0.042 C 
ENDBRANCH  22  23
ENDBRANCH  16  22
ENDBRANCH   9  12
BRANCH   6  27
HETATM   27  O   UNK N   1      37.411  48.010  43.747  0.00  0.00    -0.355 OA
HETATM   28  C   UNK N   1      36.368  47.856  42.853  0.00  0.00     0.210 C 
ENDBRANCH   6  27
BRANCH   7  29
HETATM   29  O   UNK N   1      39.218  52.018  41.812  0.00  0.00    -0.361 OA
HETATM   30  H   UNK N   1      39.992  52.400  41.374  0.00  0.00     0.217 HD
ENDBRANCH   7  29
TORSDOF 7
ENDMDL
MODEL 3
REMARK VINA RESULT:      -6.0      1.927      2.476
REMARK  7 active torsions:
REMARK  status: ('A' for Active; 'I' for Inactive)
REMARK    1  A    between atoms: O_3  and  C_10 
REMARK    2  A    between atoms: O_4  and  C_11 
REMARK    3  A    between atoms: O_5  and  C_12 
REMARK    4  A    between atoms: O_6  and  C_13 
REMARK    5  A    between atoms: C_15  and  C_16 
REMARK    6  A    between atoms: C_17  and  C_24 
REMARK    7  A    between atoms: C_24  and  C_26 
ROOT
HETATM    1  O   UNK N   1      29.925  57.631  39.883  0.00  0.00    -0.321 OA
HETATM    2  O   UNK N   1      27.794  55.370  42.366  0.00  0.00    -0.286 OA
HETATM    3  C   UNK N   1      28.671  57.989  40.142  0.00  0.00     0.094 A 
HETATM    4  C   UNK N   1      30.494  56.567  40.436  0.00  0.00     0.159 A 
HETATM    5  C   UNK N   1      28.436  56.065  41.598  0.00  0.00     0.200 A 
HETATM    6  C   UNK N   1      26.554  57.682  41.334  0.00  0.00     0.087 A 
HETATM    7  C   UNK N   1      26.865  59.568  39.808  0.00  0.00     0.071 A 
HETATM    8  C   UNK N   1      27.871  57.235  41.032  0.00  0.00     0.082 A 
HETATM    9  C   UNK N   1      29.774  55.730  41.295  0.00  0.00     0.048 A 
HETATM   10  C   UNK N   1      28.161  59.137  39.531  0.00  0.00     0.074 A 
HETATM   11  C   UNK N   1      26.069  58.854  40.709  0.00  0.00     0.074 A 
ENDROOT
BRANCH   9  12
HETATM   12  C   UNK N   1      30.439  54.531  41.873  0.00  0.00    -0.017 A 
HETATM   13  C   UNK N   1      30.623  53.377  41.101  0.00  0.00     0.052 A 
HETATM   14  C   UNK N   1      31.274  52.254  41.633  0.00  0.00     0.100 A 
HETATM   15  C   UNK N   1      31.705  52.260  42.988  0.00  0.00     0.107 A 
HETATM   16  C   UNK N   1      31.490  53.418  43.771  0.00  0.00    -0.018 A 
HETATM   17  C   UNK N   1      30.894  54.552  43.199  0.00  0.00     0.023 A 
BRANCH  14  18
HETATM   18  O   UNK N   1      31.483  51.181  40.843  0.00  0.00    -0.358 OA
HETATM   19  H   UNK N   1      30.904  50.972  40.096  0.00  0.00     0.218 HD
ENDBRANCH  14  18
BRANCH  15  20
HETATM   20  O   UNK N   1      32.341  51.202  43.572  0.00  0.00    -0.353 OA
HETATM   21  C   UNK N   1      33.682  50.886  43.507  0.00  0.00     0.210 C 
ENDBRANCH  15  20
BRANCH  16  22
HETATM   22  C   UNK N   1      31.877  53.449  45.233  0.00  0.00     0.068 C 
BRANCH  22  23
HETATM   23  C   UNK N   1      32.504  54.772  45.593  0.00  0.00    -0.020 C 
HETATM   24  C   UNK N   1      33.628  55.307  45.056  0.00  0.00    -0.091 C 
HETATM   25  C   UNK N   1      34.076  56.670  45.518  0.00  0.00     0.042 C 
HETATM   26  C   UNK N   1      34.480  54.631  44.005  0.00  0.00     0.042 C 
ENDBRANCH  22  23
ENDBRANCH  16  22
ENDBRANCH   9  12
BRANCH   6  27
HETATM   27  O   UNK N   1      25.791  56.997  42.231  0.00  0.00    -0.355 OA
HETATM   28  C   UNK N   1      25.064  57.565  43.260  0.00  0.00     0.210 C 
ENDBRANCH   6  27
BRANCH   7  29
HETATM   29  O   UNK N   1      26.397  60.682  39.210  0.00  0.00    -0.361 OA
HETATM   30  H   UNK N   1      25.558  60.689  38.728  0.00  0.00     0.217 HD
ENDBRANCH   7  29
TORSDOF 7
ENDMDL
MODEL 4
REMARK VINA RESULT:      -6.0     15.177     18.021
REMARK  7 active torsions:
REMARK  status: ('A' for Active; 'I' for Inactive)
REMARK    1  A    between atoms: O_3  and  C_10 
REMARK    2  A    between atoms: O_4  and  C_11 
REMARK    3  A    between atoms: O_5  and  C_12 
REMARK    4  A    between atoms: O_6  and  C_13 
REMARK    5  A    between atoms: C_15  and  C_16 
REMARK    6  A    between atoms: C_17  and  C_24 
REMARK    7  A    between atoms: C_24  and  C_26 
ROOT
HETATM    1  O   UNK N   1      28.977  41.592  52.435  0.00  0.00    -0.321 OA
HETATM    2  O   UNK N   1      27.018  43.294  55.448  0.00  0.00    -0.286 OA
HETATM    3  C   UNK N   1      27.820  42.192  52.174  0.00  0.00     0.094 A 
HETATM    4  C   UNK N   1      29.509  41.559  53.650  0.00  0.00     0.159 A 
HETATM    5  C   UNK N   1      27.606  42.768  54.519  0.00  0.00     0.200 A 
HETATM    6  C   UNK N   1      25.883  43.516  52.876  0.00  0.00     0.087 A 
HETATM    7  C   UNK N   1      26.157  42.848  50.539  0.00  0.00     0.071 A 
HETATM    8  C   UNK N   1      27.087  42.831  53.202  0.00  0.00     0.082 A 
HETATM    9  C   UNK N   1      28.842  42.124  54.743  0.00  0.00     0.048 A 
HETATM   10  C   UNK N   1      27.345  42.195  50.861  0.00  0.00     0.074 A 
HETATM   11  C   UNK N   1      25.435  43.512  51.536  0.00  0.00     0.074 A 
ENDROOT
BRANCH   9  12
HETATM   12  C   UNK N   1      29.458  42.042  56.095  0.00  0.00    -0.017 A 
HETATM   13  C   UNK N   1      29.166  40.970  56.948  0.00  0.00     0.052 A 
HETATM   14  C   UNK N   1      29.766  40.875  58.213  0.00  0.00     0.100 A 
HETATM   15  C   UNK N   1      30.638  41.903  58.662  0.00  0.00     0.107 A 
HETATM   16  C   UNK N   1      30.907  42.998  57.808  0.00  0.00    -0.018 A 
HETATM   17  C   UNK N   1      30.345  43.040  56.523  0.00  0.00     0.023 A 
BRANCH  14  18
HETATM   18  O   UNK N   1      29.503  39.800  58.984  0.00  0.00    -0.358 OA
HETATM   19  H   UNK N   1      29.827  38.916  58.761  0.00  0.00     0.218 HD
ENDBRANCH  14  18
BRANCH  15  20
HETATM   20  O   UNK N   1      31.253  41.878  59.881  0.00  0.00    -0.353 OA
HETATM   21  C   UNK N   1      32.390  41.183  60.236  0.00  0.00     0.210 C 
ENDBRANCH  15  20
BRANCH  16  22
HETATM   22  C   UNK N   1      31.780  44.145  58.267  0.00  0.00     0.068 C 
BRANCH  22  23
HETATM   23  C   UNK N   1      31.358  45.434  57.611  0.00  0.00    -0.020 C 
HETATM   24  C   UNK N   1      30.631  46.430  58.176  0.00  0.00    -0.091 C 
HETATM   25  C   UNK N   1      30.344  47.669  57.368  0.00  0.00     0.042 C 
HETATM   26  C   UNK N   1      30.081  46.394  59.584  0.00  0.00     0.042 C 
ENDBRANCH  22  23
ENDBRANCH  16  22
ENDBRANCH   9  12
BRANCH   6  27
HETATM   27  O   UNK N   1      25.196  44.183  53.845  0.00  0.00    -0.355 OA
HETATM   28  C   UNK N   1      23.823  44.165  54.007  0.00  0.00     0.210 C 
ENDBRANCH   6  27
BRANCH   7  29
HETATM   29  O   UNK N   1      25.723  42.842  49.263  0.00  0.00    -0.361 OA
HETATM   30  H   UNK N   1      26.164  42.322  48.576  0.00  0.00     0.217 HD
ENDBRANCH   7  29
TORSDOF 7
ENDMDL
MODEL 5
REMARK VINA RESULT:      -6.0      2.354      7.997
REMARK  7 active torsions:
REMARK  status: ('A' for Active; 'I' for Inactive)
REMARK    1  A    between atoms: O_3  and  C_10 
REMARK    2  A    between atoms: O_4  and  C_11 
REMARK    3  A    between atoms: O_5  and  C_12 
REMARK    4  A    between atoms: O_6  and  C_13 
REMARK    5  A    between atoms: C_15  and  C_16 
REMARK    6  A    between atoms: C_17  and  C_24 
REMARK    7  A    between atoms: C_24  and  C_26 
ROOT
HETATM    1  O   UNK N   1      32.190  54.868  44.516  0.00  0.00    -0.321 OA
HETATM    2  O   UNK N   1      30.444  52.799  41.603  0.00  0.00    -0.286 OA
HETATM    3  C   UNK N   1      32.560  53.605  44.333  0.00  0.00     0.094 A 
HETATM    4  C   UNK N   1      31.281  55.466  43.755  0.00  0.00     0.159 A 
HETATM    5  C   UNK N   1      30.979  53.422  42.503  0.00  0.00     0.200 A 
HETATM    6  C   UNK N   1      32.452  51.496  43.092  0.00  0.00     0.087 A 
HETATM    7  C   UNK N   1      33.983  51.755  44.982  0.00  0.00     0.071 A 
HETATM    8  C   UNK N   1      31.988  52.825  43.300  0.00  0.00     0.082 A 
HETATM    9  C   UNK N   1      30.625  54.768  42.735  0.00  0.00     0.048 A 
HETATM   10  C   UNK N   1      33.538  53.063  45.168  0.00  0.00     0.074 A 
HETATM   11  C   UNK N   1      33.453  50.979  43.947  0.00  0.00     0.074 A 
ENDROOT
BRANCH   9  12
HETATM   12  C   UNK N   1      29.593  55.466  41.922  0.00  0.00    -0.017 A 
HETATM   13  C   UNK N   1      29.792  56.785  41.495  0.00  0.00     0.052 A 
HETATM   14  C   UNK N   1      28.833  57.437  40.705  0.00  0.00     0.100 A 
HETATM   15  C   UNK N   1      27.618  56.776  40.376  0.00  0.00     0.107 A 
HETATM   16  C   UNK N   1      27.409  55.455  40.835  0.00  0.00    -0.018 A 
HETATM   17  C   UNK N   1      28.409  54.800  41.571  0.00  0.00     0.023 A 
BRANCH  14  18
HETATM   18  O   UNK N   1      29.085  58.687  40.265  0.00  0.00    -0.358 OA
HETATM   19  H   UNK N   1      29.068  59.453  40.856  0.00  0.00     0.218 HD
ENDBRANCH  14  18
BRANCH  15  20
HETATM   20  O   UNK N   1      26.640  57.351  39.616  0.00  0.00    -0.353 OA
HETATM   21  C   UNK N   1      26.606  57.474  38.243  0.00  0.00     0.210 C 
ENDBRANCH  15  20
BRANCH  16  22
HETATM   22  C   UNK N   1      26.107  54.735  40.562  0.00  0.00     0.068 C 
BRANCH  22  23
HETATM   23  C   UNK N   1      26.243  53.260  40.839  0.00  0.00    -0.020 C 
HETATM   24  C   UNK N   1      26.598  52.299  39.950  0.00  0.00    -0.091 C 
HETATM   25  C   UNK N   1      26.723  50.876  40.431  0.00  0.00     0.042 C 
HETATM   26  C   UNK N   1      26.889  52.552  38.488  0.00  0.00     0.042 C 
ENDBRANCH  22  23
ENDBRANCH  16  22
ENDBRANCH   9  12
BRANCH   6  27
HETATM   27  O   UNK N   1      31.951  50.751  42.067  0.00  0.00    -0.355 OA
HETATM   28  C   UNK N   1      31.647  49.404  42.131  0.00  0.00     0.210 C 
ENDBRANCH   6  27
BRANCH   7  29
HETATM   29  O   UNK N   1      34.933  51.257  45.798  0.00  0.00    -0.361 OA
HETATM   30  H   UNK N   1      35.778  51.708  45.933  0.00  0.00     0.217 HD
ENDBRANCH   7  29
TORSDOF 7
ENDMDL
MODEL 6
REMARK VINA RESULT:      -6.0      2.204      8.033
REMARK  7 active torsions:
REMARK  status: ('A' for Active; 'I' for Inactive)
REMARK    1  A    between atoms: O_3  and  C_10 
REMARK    2  A    between atoms: O_4  and  C_11 
REMARK    3  A    between atoms: O_5  and  C_12 
REMARK    4  A    between atoms: O_6  and  C_13 
REMARK    5  A    between atoms: C_15  and  C_16 
REMARK    6  A    between atoms: C_17  and  C_24 
REMARK    7  A    between atoms: C_24  and  C_26 
ROOT
HETATM    1  O   UNK N   1      32.024  54.838  44.408  0.00  0.00    -0.321 OA
HETATM    2  O   UNK N   1      30.201  53.238  41.256  0.00  0.00    -0.286 OA
HETATM    3  C   UNK N   1      32.320  53.585  44.079  0.00  0.00     0.094 A 
HETATM    4  C   UNK N   1      31.165  55.576  43.716  0.00  0.00     0.159 A 
HETATM    5  C   UNK N   1      30.759  53.717  42.229  0.00  0.00     0.200 A 
HETATM    6  C   UNK N   1      32.105  51.647  42.596  0.00  0.00     0.087 A 
HETATM    7  C   UNK N   1      33.619  51.588  44.516  0.00  0.00     0.071 A 
HETATM    8  C   UNK N   1      31.718  52.969  42.956  0.00  0.00     0.082 A 
HETATM    9  C   UNK N   1      30.483  55.045  42.616  0.00  0.00     0.048 A 
HETATM   10  C   UNK N   1      33.252  52.889  44.852  0.00  0.00     0.074 A 
HETATM   11  C   UNK N   1      33.059  50.973  43.391  0.00  0.00     0.074 A 
ENDROOT
BRANCH   9  12
HETATM   12  C   UNK N   1      29.507  55.896  41.883  0.00  0.00    -0.017 A 
HETATM   13  C   UNK N   1      29.941  56.797  40.903  0.00  0.00     0.052 A 
HETATM   14  C   UNK N   1      29.021  57.581  40.190  0.00  0.00     0.100 A 
HETATM   15  C   UNK N   1      27.636  57.506  40.500  0.00  0.00     0.107 A 
HETATM   16  C   UNK N   1      27.206  56.616  41.511  0.00  0.00    -0.018 A 
HETATM   17  C   UNK N   1      28.137  55.795  42.167  0.00  0.00     0.023 A 
BRANCH  14  18
HETATM   18  O   UNK N   1      29.471  58.397  39.214  0.00  0.00    -0.358 OA
HETATM   19  H   UNK N   1      29.983  59.196  39.407  0.00  0.00     0.218 HD
ENDBRANCH  14  18
BRANCH  15  20
HETATM   20  O   UNK N   1      26.686  58.242  39.851  0.00  0.00    -0.353 OA
HETATM   21  C   UNK N   1      26.123  57.989  38.618  0.00  0.00     0.210 C 
ENDBRANCH  15  20
BRANCH  16  22
HETATM   22  C   UNK N   1      25.751  56.545  41.917  0.00  0.00     0.068 C 
BRANCH  22  23
HETATM   23  C   UNK N   1      25.560  57.071  43.317  0.00  0.00    -0.020 C 
HETATM   24  C   UNK N   1      25.244  58.342  43.668  0.00  0.00    -0.091 C 
HETATM   25  C   UNK N   1      25.052  58.666  45.128  0.00  0.00     0.042 C 
HETATM   26  C   UNK N   1      25.060  59.479  42.689  0.00  0.00     0.042 C 
ENDBRANCH  22  23
ENDBRANCH  16  22
ENDBRANCH   9  12
BRANCH   6  27
HETATM   27  O   UNK N   1      31.575  51.061  41.486  0.00  0.00    -0.355 OA
HETATM   28  C   UNK N   1      31.140  49.752  41.404  0.00  0.00     0.210 C 
ENDBRANCH   6  27
BRANCH   7  29
HETATM   29  O   UNK N   1      34.526  50.939  45.274  0.00  0.00    -0.361 OA
HETATM   30  H   UNK N   1      35.180  51.414  45.806  0.00  0.00     0.217 HD
ENDBRANCH   7  29
TORSDOF 7
ENDMDL
MODEL 7
REMARK VINA RESULT:      -6.0     15.844     18.823
REMARK  7 active torsions:
REMARK  status: ('A' for Active; 'I' for Inactive)
REMARK    1  A    between atoms: O_3  and  C_10 
REMARK    2  A    between atoms: O_4  and  C_11 
REMARK    3  A    between atoms: O_5  and  C_12 
REMARK    4  A    between atoms: O_6  and  C_13 
REMARK    5  A    between atoms: C_15  and  C_16 
REMARK    6  A    between atoms: C_17  and  C_24 
REMARK    7  A    between atoms: C_24  and  C_26 
ROOT
HETATM    1  O   UNK N   1      26.828  47.250  58.284  0.00  0.00    -0.321 OA
HETATM    2  O   UNK N   1      30.587  47.908  57.162  0.00  0.00    -0.286 OA
HETATM    3  C   UNK N   1      27.110  48.395  57.670  0.00  0.00     0.094 A 
HETATM    4  C   UNK N   1      27.744  46.317  58.516  0.00  0.00     0.159 A 
HETATM    5  C   UNK N   1      29.433  47.719  57.509  0.00  0.00     0.200 A 
HETATM    6  C   UNK N   1      28.679  49.884  56.521  0.00  0.00     0.087 A 
HETATM    7  C   UNK N   1      26.327  50.504  56.773  0.00  0.00     0.071 A 
HETATM    8  C   UNK N   1      28.426  48.676  57.231  0.00  0.00     0.082 A 
HETATM    9  C   UNK N   1      29.082  46.518  58.160  0.00  0.00     0.048 A 
HETATM   10  C   UNK N   1      26.080  49.311  57.449  0.00  0.00     0.074 A 
HETATM   11  C   UNK N   1      27.613  50.786  56.303  0.00  0.00     0.074 A 
ENDROOT
BRANCH   9  12
HETATM   12  C   UNK N   1      30.083  45.459  58.462  0.00  0.00    -0.017 A 
HETATM   13  C   UNK N   1      30.755  44.798  57.427  0.00  0.00     0.052 A 
HETATM   14  C   UNK N   1      31.720  43.818  57.708  0.00  0.00     0.100 A 
HETATM   15  C   UNK N   1      31.984  43.450  59.056  0.00  0.00     0.107 A 
HETATM   16  C   UNK N   1      31.280  44.100  60.096  0.00  0.00    -0.018 A 
HETATM   17  C   UNK N   1      30.365  45.121  59.793  0.00  0.00     0.023 A 
BRANCH  14  18
HETATM   18  O   UNK N   1      32.388  43.242  56.688  0.00  0.00    -0.358 OA
HETATM   19  H   UNK N   1      32.924  42.445  56.808  0.00  0.00     0.218 HD
ENDBRANCH  14  18
BRANCH  15  20
HETATM   20  O   UNK N   1      32.905  42.503  59.402  0.00  0.00    -0.353 OA
HETATM   21  C   UNK N   1      34.279  42.606  59.347  0.00  0.00     0.210 C 
ENDBRANCH  15  20
BRANCH  16  22
HETATM   22  C   UNK N   1      31.483  43.699  61.540  0.00  0.00     0.068 C 
BRANCH  22  23
HETATM   23  C   UNK N   1      31.878  44.889  62.375  0.00  0.00    -0.020 C 
HETATM   24  C   UNK N   1      33.110  45.152  62.879  0.00  0.00    -0.091 C 
HETATM   25  C   UNK N   1      33.319  46.424  63.659  0.00  0.00     0.042 C 
HETATM   26  C   UNK N   1      34.312  44.252  62.709  0.00  0.00     0.042 C 
ENDBRANCH  22  23
ENDBRANCH  16  22
ENDBRANCH   9  12
BRANCH   6  27
HETATM   27  O   UNK N   1      29.928  50.143  56.044  0.00  0.00    -0.355 OA
HETATM   28  C   UNK N   1      30.212  50.753  54.836  0.00  0.00     0.210 C 
ENDBRANCH   6  27
BRANCH   7  29
HETATM   29  O   UNK N   1      25.314  51.370  56.567  0.00  0.00    -0.361 OA
HETATM   30  H   UNK N   1      25.451  52.327  56.582  0.00  0.00     0.217 HD
ENDBRANCH   7  29
TORSDOF 7
ENDMDL
MODEL 8
REMARK VINA RESULT:      -5.8      2.025      7.899
REMARK  7 active torsions:
REMARK  status: ('A' for Active; 'I' for Inactive)
REMARK    1  A    between atoms: O_3  and  C_10 
REMARK    2  A    between atoms: O_4  and  C_11 
REMARK    3  A    between atoms: O_5  and  C_12 
REMARK    4  A    between atoms: O_6  and  C_13 
REMARK    5  A    between atoms: C_15  and  C_16 
REMARK    6  A    between atoms: C_17  and  C_24 
REMARK    7  A    between atoms: C_24  and  C_26 
ROOT
HETATM    1  O   UNK N   1      31.470  54.722  44.016  0.00  0.00    -0.321 OA
HETATM    2  O   UNK N   1      30.112  52.384  41.100  0.00  0.00    -0.286 OA
HETATM    3  C   UNK N   1      32.002  53.512  43.882  0.00  0.00     0.094 A 
HETATM    4  C   UNK N   1      30.526  55.184  43.205  0.00  0.00     0.159 A 
HETATM    5  C   UNK N   1      30.530  53.090  42.002  0.00  0.00     0.200 A 
HETATM    6  C   UNK N   1      32.207  51.377  42.698  0.00  0.00     0.087 A 
HETATM    7  C   UNK N   1      33.616  51.871  44.635  0.00  0.00     0.071 A 
HETATM    8  C   UNK N   1      31.572  52.642  42.851  0.00  0.00     0.082 A 
HETATM    9  C   UNK N   1      30.003  54.386  42.182  0.00  0.00     0.048 A 
HETATM   10  C   UNK N   1      33.006  53.116  44.768  0.00  0.00     0.074 A 
HETATM   11  C   UNK N   1      33.228  51.010  43.603  0.00  0.00     0.074 A 
ENDROOT
BRANCH   9  12
HETATM   12  C   UNK N   1      28.925  54.930  41.313  0.00  0.00    -0.017 A 
HETATM   13  C   UNK N   1      27.578  54.673  41.600  0.00  0.00     0.052 A 
HETATM   14  C   UNK N   1      26.558  55.207  40.798  0.00  0.00     0.100 A 
HETATM   15  C   UNK N   1      26.889  55.972  39.647  0.00  0.00     0.107 A 
HETATM   16  C   UNK N   1      28.251  56.204  39.344  0.00  0.00    -0.018 A 
HETATM   17  C   UNK N   1      29.253  55.713  40.196  0.00  0.00     0.023 A 
BRANCH  14  18
HETATM   18  O   UNK N   1      25.272  54.984  41.138  0.00  0.00    -0.358 OA
HETATM   19  H   UNK N   1      25.013  54.736  42.037  0.00  0.00     0.218 HD
ENDBRANCH  14  18
BRANCH  15  20
HETATM   20  O   UNK N   1      25.949  56.518  38.820  0.00  0.00    -0.353 OA
HETATM   21  C   UNK N   1      25.217  55.880  37.842  0.00  0.00     0.210 C 
ENDBRANCH  15  20
BRANCH  16  22
HETATM   22  C   UNK N   1      28.652  56.960  38.097  0.00  0.00     0.068 C 
BRANCH  22  23
HETATM   23  C   UNK N   1      29.343  58.251  38.454  0.00  0.00    -0.020 C 
HETATM   24  C   UNK N   1      28.854  59.505  38.285  0.00  0.00    -0.091 C 
HETATM   25  C   UNK N   1      29.683  60.676  38.747  0.00  0.00     0.042 C 
HETATM   26  C   UNK N   1      27.514  59.823  37.662  0.00  0.00     0.042 C 
ENDBRANCH  22  23
ENDBRANCH  16  22
ENDBRANCH   9  12
BRANCH   6  27
HETATM   27  O   UNK N   1      31.842  50.552  41.677  0.00  0.00    -0.355 OA
HETATM   28  C   UNK N   1      31.513  49.216  41.808  0.00  0.00     0.210 C 
ENDBRANCH   6  27
BRANCH   7  29
HETATM   29  O   UNK N   1      34.588  51.514  45.499  0.00  0.00    -0.361 OA
HETATM   30  H   UNK N   1      35.094  50.697  45.389  0.00  0.00     0.217 HD
ENDBRANCH   7  29
TORSDOF 7
ENDMDL
MODEL 9
REMARK VINA RESULT:      -5.6     16.668     19.858
REMARK  7 active torsions:
REMARK  status: ('A' for Active; 'I' for Inactive)
REMARK    1  A    between atoms: O_3  and  C_10 
REMARK    2  A    between atoms: O_4  and  C_11 
REMARK    3  A    between atoms: O_5  and  C_12 
REMARK    4  A    between atoms: O_6  and  C_13 
REMARK    5  A    between atoms: C_15  and  C_16 
REMARK    6  A    between atoms: C_17  and  C_24 
REMARK    7  A    between atoms: C_24  and  C_26 
ROOT
HETATM    1  O   UNK N   1      28.251  47.980  60.448  0.00  0.00    -0.321 OA
HETATM    2  O   UNK N   1      30.895  46.935  57.668  0.00  0.00    -0.286 OA
HETATM    3  C   UNK N   1      28.611  48.890  59.549  0.00  0.00     0.094 A 
HETATM    4  C   UNK N   1      28.721  46.739  60.440  0.00  0.00     0.159 A 
HETATM    5  C   UNK N   1      30.090  47.267  58.521  0.00  0.00     0.200 A 
HETATM    6  C   UNK N   1      29.849  49.551  57.542  0.00  0.00     0.087 A 
HETATM    7  C   UNK N   1      28.370  51.136  58.674  0.00  0.00     0.071 A 
HETATM    8  C   UNK N   1      29.534  48.570  58.524  0.00  0.00     0.082 A 
HETATM    9  C   UNK N   1      29.671  46.336  59.494  0.00  0.00     0.048 A 
HETATM   10  C   UNK N   1      28.049  50.166  59.622  0.00  0.00     0.074 A 
HETATM   11  C   UNK N   1      29.255  50.830  57.635  0.00  0.00     0.074 A 
ENDROOT
BRANCH   9  12
HETATM   12  C   UNK N   1      30.195  44.944  59.535  0.00  0.00    -0.017 A 
HETATM   13  C   UNK N   1      29.717  43.975  58.644  0.00  0.00     0.052 A 
HETATM   14  C   UNK N   1      30.228  42.669  58.660  0.00  0.00     0.100 A 
HETATM   15  C   UNK N   1      31.204  42.302  59.627  0.00  0.00     0.107 A 
HETATM   16  C   UNK N   1      31.662  43.277  60.544  0.00  0.00    -0.018 A 
HETATM   17  C   UNK N   1      31.183  44.594  60.467  0.00  0.00     0.023 A 
BRANCH  14  18
HETATM   18  O   UNK N   1      29.784  41.778  57.750  0.00  0.00    -0.358 OA
HETATM   19  H   UNK N   1      29.567  42.035  56.842  0.00  0.00     0.218 HD
ENDBRANCH  14  18
BRANCH  15  20
HETATM   20  O   UNK N   1      31.742  41.050  59.704  0.00  0.00    -0.353 OA
HETATM   21  C   UNK N   1      31.190  39.931  60.292  0.00  0.00     0.210 C 
ENDBRANCH  15  20
BRANCH  16  22
HETATM   22  C   UNK N   1      32.654  42.917  61.628  0.00  0.00     0.068 C 
BRANCH  22  23
HETATM   23  C   UNK N   1      34.028  43.438  61.290  0.00  0.00    -0.020 C 
HETATM   24  C   UNK N   1      34.845  44.153  62.103  0.00  0.00    -0.091 C 
HETATM   25  C   UNK N   1      36.208  44.549  61.597  0.00  0.00     0.042 C 
HETATM   26  C   UNK N   1      34.489  44.585  63.508  0.00  0.00     0.042 C 
ENDBRANCH  22  23
ENDBRANCH  16  22
ENDBRANCH   9  12
BRANCH   6  27
HETATM   27  O   UNK N   1      30.693  49.241  56.518  0.00  0.00    -0.355 OA
HETATM   28  C   UNK N   1      30.936  50.036  55.414  0.00  0.00     0.210 C 
ENDBRANCH   6  27
BRANCH   7  29
HETATM   29  O   UNK N   1      27.810  52.359  58.763  0.00  0.00    -0.361 OA
HETATM   30  H   UNK N   1      27.072  52.624  58.196  0.00  0.00     0.217 HD
ENDBRANCH   7  29
TORSDOF 7
ENDMDL
