MODEL 1
REMARK VINA RESULT:      -5.9      0.000      0.000
REMARK  8 active torsions:
REMARK  status: ('A' for Active; 'I' for Inactive)
REMARK    1  A    between atoms: O_1  and  C_10 
REMARK    2  A    between atoms: O_1  and  C_14 
REMARK    3  A    between atoms: O_2  and  C_11 
REMARK    4  A    between atoms: O_2  and  C_15 
REMARK    5  A    between atoms: O_3  and  C_8 
REMARK    6  A    between atoms: O_4  and  C_9 
REMARK    7  A    between atoms: C_9  and  C_11 
REMARK    8  A    between atoms: C_9  and  C_14 
ROOT
HETATM    1  O   UNK N   1      28.056  47.796  59.409  0.00  0.00    -0.293 OA
HETATM    2  C   UNK N   1      31.628  43.964  57.379  0.00  0.00     0.085 C 
HETATM    3  C   UNK N   1      31.006  42.544  57.199  0.00  0.00     0.166 C 
HETATM    4  C   UNK N   1      30.453  44.991  57.622  0.00  0.00     0.035 C 
HETATM    5  C   UNK N   1      29.426  44.606  58.766  0.00  0.00    -0.030 C 
HETATM    6  C   UNK N   1      28.639  47.008  58.679  0.00  0.00     0.156 C 
HETATM    7  C   UNK N   1      30.076  42.154  58.369  0.00  0.00     0.036 C 
HETATM    8  C   UNK N   1      30.943  46.456  57.758  0.00  0.00     0.051 C 
HETATM    9  C   UNK N   1      28.219  45.568  58.642  0.00  0.00     0.093 C 
HETATM   10  C   UNK N   1      28.921  43.161  58.506  0.00  0.00     0.012 C 
HETATM   11  C   UNK N   1      32.729  43.952  58.468  0.00  0.00     0.049 C 
HETATM   12  C   UNK N   1      29.954  44.722  60.225  0.00  0.00     0.016 C 
HETATM   13  C   UNK N   1      29.771  47.441  57.812  0.00  0.00    -0.010 C 
HETATM   14  C   UNK N   1      29.747  48.632  57.118  0.00  0.00    -0.078 C 
HETATM   15  C   UNK N   1      30.912  49.146  56.296  0.00  0.00     0.043 C 
HETATM   16  C   UNK N   1      28.521  49.526  57.086  0.00  0.00     0.043 C 
ENDROOT
BRANCH   3  17
HETATM   17  O   UNK N   1      30.278  42.539  56.024  0.00  0.00    -0.311 OA
BRANCH  17  18
HETATM   18  C   UNK N   1      30.394  41.615  55.035  0.00  0.00     0.296 C 
HETATM   19  O   UNK N   1      31.398  41.571  54.340  0.00  0.00    -0.262 OA
BRANCH  18  20
HETATM   20  C   UNK N   1      29.266  40.633  54.794  0.00  0.00     0.167 C 
HETATM   21  C   UNK N   1      29.801  39.181  54.880  0.00  0.00     0.060 C 
BRANCH  20  22
HETATM   22  O   UNK N   1      28.326  40.834  55.826  0.00  0.00    -0.377 OA
HETATM   23  H   UNK N   1      28.104  41.802  55.868  0.00  0.00     0.211 HD
ENDBRANCH  20  22
BRANCH  20  24
HETATM   24  C   UNK N   1      28.591  40.928  53.419  0.00  0.00     0.171 C 
HETATM   25  C   UNK N   1      27.463  39.938  53.059  0.00  0.00     0.044 C 
BRANCH  24  26
HETATM   26  O   UNK N   1      28.103  42.225  53.436  0.00  0.00    -0.313 OA
BRANCH  26  27
HETATM   27  C   UNK N   1      28.128  43.081  52.384  0.00  0.00     0.255 C 
HETATM   28  O   UNK N   1      29.118  43.171  51.670  0.00  0.00    -0.266 OA
HETATM   29  C   UNK N   1      26.939  43.946  52.126  0.00  0.00     0.126 C 
ENDBRANCH  26  27
ENDBRANCH  24  26
ENDBRANCH  20  24
ENDBRANCH  18  20
ENDBRANCH  17  18
ENDBRANCH   3  17
BRANCH   2  30
HETATM   30  O   UNK N   1      32.260  44.342  56.173  0.00  0.00    -0.387 OA
HETATM   31  H   UNK N   1      31.576  44.385  55.454  0.00  0.00     0.210 HD
ENDBRANCH   2  30
TORSDOF 8
ENDMDL
MODEL 2
REMARK VINA RESULT:      -5.4      1.448      2.805
REMARK  8 active torsions:
REMARK  status: ('A' for Active; 'I' for Inactive)
REMARK    1  A    between atoms: O_1  and  C_10 
REMARK    2  A    between atoms: O_1  and  C_14 
REMARK    3  A    between atoms: O_2  and  C_11 
REMARK    4  A    between atoms: O_2  and  C_15 
REMARK    5  A    between atoms: O_3  and  C_8 
REMARK    6  A    between atoms: O_4  and  C_9 
REMARK    7  A    between atoms: C_9  and  C_11 
REMARK    8  A    between atoms: C_9  and  C_14 
ROOT
HETATM    1  O   UNK N   1      28.040  47.820  59.422  0.00  0.00    -0.293 OA
HETATM    2  C   UNK N   1      31.597  43.981  57.380  0.00  0.00     0.085 C 
HETATM    3  C   UNK N   1      30.970  42.563  57.199  0.00  0.00     0.166 C 
HETATM    4  C   UNK N   1      30.426  45.011  57.626  0.00  0.00     0.035 C 
HETATM    5  C   UNK N   1      29.399  44.627  58.771  0.00  0.00    -0.030 C 
HETATM    6  C   UNK N   1      28.619  47.032  58.689  0.00  0.00     0.156 C 
HETATM    7  C   UNK N   1      30.041  42.174  58.369  0.00  0.00     0.036 C 
HETATM    8  C   UNK N   1      30.920  46.474  57.764  0.00  0.00     0.051 C 
HETATM    9  C   UNK N   1      28.195  45.593  58.651  0.00  0.00     0.093 C 
HETATM   10  C   UNK N   1      28.889  43.184  58.510  0.00  0.00     0.012 C 
HETATM   11  C   UNK N   1      32.700  43.964  58.467  0.00  0.00     0.049 C 
HETATM   12  C   UNK N   1      29.930  44.739  60.230  0.00  0.00     0.016 C 
HETATM   13  C   UNK N   1      29.751  47.463  57.821  0.00  0.00    -0.010 C 
HETATM   14  C   UNK N   1      29.729  48.655  57.129  0.00  0.00    -0.078 C 
HETATM   15  C   UNK N   1      30.895  49.167  56.306  0.00  0.00     0.043 C 
HETATM   16  C   UNK N   1      28.506  49.552  57.100  0.00  0.00     0.043 C 
ENDROOT
BRANCH   3  17
HETATM   17  O   UNK N   1      30.240  42.562  56.025  0.00  0.00    -0.311 OA
BRANCH  17  18
HETATM   18  C   UNK N   1      30.314  41.611  55.058  0.00  0.00     0.296 C 
HETATM   19  O   UNK N   1      31.316  41.504  54.366  0.00  0.00    -0.262 OA
BRANCH  18  20
HETATM   20  C   UNK N   1      29.142  40.676  54.838  0.00  0.00     0.167 C 
HETATM   21  C   UNK N   1      27.877  41.242  55.532  0.00  0.00     0.060 C 
BRANCH  20  22
HETATM   22  O   UNK N   1      28.917  40.629  53.446  0.00  0.00    -0.377 OA
HETATM   23  H   UNK N   1      29.040  39.692  53.138  0.00  0.00     0.211 HD
ENDBRANCH  20  22
BRANCH  20  24
HETATM   24  C   UNK N   1      29.501  39.247  55.349  0.00  0.00     0.171 C 
HETATM   25  C   UNK N   1      29.037  38.973  56.795  0.00  0.00     0.044 C 
BRANCH  24  26
HETATM   26  O   UNK N   1      28.948  38.316  54.484  0.00  0.00    -0.313 OA
BRANCH  26  27
HETATM   27  C   UNK N   1      29.331  37.019  54.386  0.00  0.00     0.255 C 
HETATM   28  O   UNK N   1      28.505  36.126  54.259  0.00  0.00    -0.266 OA
HETATM   29  C   UNK N   1      30.784  36.686  54.471  0.00  0.00     0.126 C 
ENDBRANCH  26  27
ENDBRANCH  24  26
ENDBRANCH  20  24
ENDBRANCH  18  20
ENDBRANCH  17  18
ENDBRANCH   3  17
BRANCH   2  30
HETATM   30  O   UNK N   1      32.229  44.359  56.174  0.00  0.00    -0.387 OA
HETATM   31  H   UNK N   1      33.208  44.224  56.270  0.00  0.00     0.210 HD
ENDBRANCH   2  30
TORSDOF 8
ENDMDL
MODEL 3
REMARK VINA RESULT:      -5.2     13.295     15.347
REMARK  8 active torsions:
REMARK  status: ('A' for Active; 'I' for Inactive)
REMARK    1  A    between atoms: O_1  and  C_10 
REMARK    2  A    between atoms: O_1  and  C_14 
REMARK    3  A    between atoms: O_2  and  C_11 
REMARK    4  A    between atoms: O_2  and  C_15 
REMARK    5  A    between atoms: O_3  and  C_8 
REMARK    6  A    between atoms: O_4  and  C_9 
REMARK    7  A    between atoms: C_9  and  C_11 
REMARK    8  A    between atoms: C_9  and  C_14 
ROOT
HETATM    1  O   UNK N   1      39.992  43.754  50.910  0.00  0.00    -0.293 OA
HETATM    2  C   UNK N   1      41.049  46.791  46.304  0.00  0.00     0.085 C 
HETATM    3  C   UNK N   1      39.775  47.392  45.630  0.00  0.00     0.166 C 
HETATM    4  C   UNK N   1      40.647  46.268  47.739  0.00  0.00     0.035 C 
HETATM    5  C   UNK N   1      39.393  45.301  47.794  0.00  0.00    -0.030 C 
HETATM    6  C   UNK N   1      40.146  44.679  50.127  0.00  0.00     0.156 C 
HETATM    7  C   UNK N   1      38.591  46.401  45.618  0.00  0.00     0.036 C 
HETATM    8  C   UNK N   1      41.848  45.697  48.537  0.00  0.00     0.051 C 
HETATM    9  C   UNK N   1      38.997  45.146  49.283  0.00  0.00     0.093 C 
HETATM   10  C   UNK N   1      38.214  45.983  47.049  0.00  0.00     0.012 C 
HETATM   11  C   UNK N   1      41.721  45.744  45.383  0.00  0.00     0.049 C 
HETATM   12  C   UNK N   1      39.610  43.868  47.228  0.00  0.00     0.016 C 
HETATM   13  C   UNK N   1      41.461  45.365  49.982  0.00  0.00    -0.010 C 
HETATM   14  C   UNK N   1      42.249  45.674  51.070  0.00  0.00    -0.078 C 
HETATM   15  C   UNK N   1      43.628  46.295  50.956  0.00  0.00     0.043 C 
HETATM   16  C   UNK N   1      41.782  45.453  52.497  0.00  0.00     0.043 C 
ENDROOT
BRANCH   3  17
HETATM   17  O   UNK N   1      39.408  48.523  46.335  0.00  0.00    -0.311 OA
BRANCH  17  18
HETATM   18  C   UNK N   1      39.066  49.715  45.780  0.00  0.00     0.296 C 
HETATM   19  O   UNK N   1      38.294  50.469  46.352  0.00  0.00    -0.262 OA
BRANCH  18  20
HETATM   20  C   UNK N   1      39.649  50.108  44.437  0.00  0.00     0.167 C 
HETATM   21  C   UNK N   1      40.301  51.510  44.534  0.00  0.00     0.060 C 
BRANCH  20  22
HETATM   22  O   UNK N   1      40.648  49.159  44.135  0.00  0.00    -0.377 OA
HETATM   23  H   UNK N   1      41.500  49.453  44.556  0.00  0.00     0.211 HD
ENDBRANCH  20  22
BRANCH  20  24
HETATM   24  C   UNK N   1      38.540  50.052  43.342  0.00  0.00     0.171 C 
HETATM   25  C   UNK N   1      39.001  50.580  41.967  0.00  0.00     0.044 C 
BRANCH  24  26
HETATM   26  O   UNK N   1      38.097  48.744  43.228  0.00  0.00    -0.313 OA
BRANCH  26  27
HETATM   27  C   UNK N   1      36.803  48.371  43.064  0.00  0.00     0.255 C 
HETATM   28  O   UNK N   1      36.496  47.190  42.971  0.00  0.00    -0.266 OA
HETATM   29  C   UNK N   1      35.753  49.427  42.961  0.00  0.00     0.126 C 
ENDBRANCH  26  27
ENDBRANCH  24  26
ENDBRANCH  20  24
ENDBRANCH  18  20
ENDBRANCH  17  18
ENDBRANCH   3  17
BRANCH   2  30
HETATM   30  O   UNK N   1      41.995  47.824  46.495  0.00  0.00    -0.387 OA
HETATM   31  H   UNK N   1      41.510  48.677  46.652  0.00  0.00     0.210 HD
ENDBRANCH   2  30
TORSDOF 8
ENDMDL
MODEL 4
REMARK VINA RESULT:      -5.1      2.286      7.549
REMARK  8 active torsions:
REMARK  status: ('A' for Active; 'I' for Inactive)
REMARK    1  A    between atoms: O_1  and  C_10 
REMARK    2  A    between atoms: O_1  and  C_14 
REMARK    3  A    between atoms: O_2  and  C_11 
REMARK    4  A    between atoms: O_2  and  C_15 
REMARK    5  A    between atoms: O_3  and  C_8 
REMARK    6  A    between atoms: O_4  and  C_9 
REMARK    7  A    between atoms: C_9  and  C_11 
REMARK    8  A    between atoms: C_9  and  C_14 
ROOT
HETATM    1  O   UNK N   1      26.762  36.864  57.271  0.00  0.00    -0.293 OA
HETATM    2  C   UNK N   1      29.520  41.071  54.771  0.00  0.00     0.085 C 
HETATM    3  C   UNK N   1      29.470  42.420  55.554  0.00  0.00     0.166 C 
HETATM    4  C   UNK N   1      29.013  39.925  55.731  0.00  0.00     0.035 C 
HETATM    5  C   UNK N   1      27.621  40.186  56.443  0.00  0.00    -0.030 C 
HETATM    6  C   UNK N   1      27.589  37.716  56.987  0.00  0.00     0.156 C 
HETATM    7  C   UNK N   1      28.080  42.697  56.167  0.00  0.00     0.036 C 
HETATM    8  C   UNK N   1      29.071  38.517  55.083  0.00  0.00     0.051 C 
HETATM    9  C   UNK N   1      27.455  39.105  57.539  0.00  0.00     0.093 C 
HETATM   10  C   UNK N   1      27.679  41.573  57.138  0.00  0.00     0.012 C 
HETATM   11  C   UNK N   1      28.767  41.185  53.423  0.00  0.00     0.049 C 
HETATM   12  C   UNK N   1      26.363  40.109  55.531  0.00  0.00     0.016 C 
HETATM   13  C   UNK N   1      28.744  37.414  56.095  0.00  0.00    -0.010 C 
HETATM   14  C   UNK N   1      29.453  36.235  56.190  0.00  0.00    -0.078 C 
HETATM   15  C   UNK N   1      30.577  35.856  55.246  0.00  0.00     0.043 C 
HETATM   16  C   UNK N   1      29.191  35.219  57.286  0.00  0.00     0.043 C 
ENDROOT
BRANCH   3  17
HETATM   17  O   UNK N   1      30.407  42.363  56.569  0.00  0.00    -0.311 OA
BRANCH  17  18
HETATM   18  C   UNK N   1      31.589  43.032  56.583  0.00  0.00     0.296 C 
HETATM   19  O   UNK N   1      32.394  42.891  55.674  0.00  0.00    -0.262 OA
BRANCH  18  20
HETATM   20  C   UNK N   1      31.910  43.959  57.737  0.00  0.00     0.167 C 
HETATM   21  C   UNK N   1      32.896  43.267  58.713  0.00  0.00     0.060 C 
BRANCH  20  22
HETATM   22  O   UNK N   1      32.538  45.094  57.183  0.00  0.00    -0.377 OA
HETATM   23  H   UNK N   1      31.986  45.422  56.424  0.00  0.00     0.211 HD
ENDBRANCH  20  22
BRANCH  20  24
HETATM   24  C   UNK N   1      30.592  44.395  58.449  0.00  0.00     0.171 C 
HETATM   25  C   UNK N   1      30.383  43.730  59.825  0.00  0.00     0.044 C 
BRANCH  24  26
HETATM   26  O   UNK N   1      30.597  45.775  58.580  0.00  0.00    -0.313 OA
BRANCH  26  27
HETATM   27  C   UNK N   1      29.493  46.547  58.737  0.00  0.00     0.255 C 
HETATM   28  O   UNK N   1      28.508  46.388  58.029  0.00  0.00    -0.266 OA
HETATM   29  C   UNK N   1      29.506  47.627  59.768  0.00  0.00     0.126 C 
ENDBRANCH  26  27
ENDBRANCH  24  26
ENDBRANCH  20  24
ENDBRANCH  18  20
ENDBRANCH  17  18
ENDBRANCH   3  17
BRANCH   2  30
HETATM   30  O   UNK N   1      30.865  40.775  54.455  0.00  0.00    -0.387 OA
HETATM   31  H   UNK N   1      31.438  41.031  55.225  0.00  0.00     0.210 HD
ENDBRANCH   2  30
TORSDOF 8
ENDMDL
MODEL 5
REMARK VINA RESULT:      -5.1      2.638      7.857
REMARK  8 active torsions:
REMARK  status: ('A' for Active; 'I' for Inactive)
REMARK    1  A    between atoms: O_1  and  C_10 
REMARK    2  A    between atoms: O_1  and  C_14 
REMARK    3  A    between atoms: O_2  and  C_11 
REMARK    4  A    between atoms: O_2  and  C_15 
REMARK    5  A    between atoms: O_3  and  C_8 
REMARK    6  A    between atoms: O_4  and  C_9 
REMARK    7  A    between atoms: C_9  and  C_11 
REMARK    8  A    between atoms: C_9  and  C_14 
ROOT
HETATM    1  O   UNK N   1      32.524  43.144  57.152  0.00  0.00    -0.293 OA
HETATM    2  C   UNK N   1      27.706  45.586  58.697  0.00  0.00     0.085 C 
HETATM    3  C   UNK N   1      27.795  47.137  58.841  0.00  0.00     0.166 C 
HETATM    4  C   UNK N   1      29.000  45.085  57.945  0.00  0.00     0.035 C 
HETATM    5  C   UNK N   1      30.382  45.582  58.542  0.00  0.00    -0.030 C 
HETATM    6  C   UNK N   1      31.478  43.776  57.151  0.00  0.00     0.156 C 
HETATM    7  C   UNK N   1      29.112  47.594  59.505  0.00  0.00     0.036 C 
HETATM    8  C   UNK N   1      29.002  43.556  57.687  0.00  0.00     0.051 C 
HETATM    9  C   UNK N   1      31.481  45.233  57.509  0.00  0.00     0.093 C 
HETATM   10  C   UNK N   1      30.327  47.126  58.686  0.00  0.00     0.012 C 
HETATM   11  C   UNK N   1      27.439  44.917  60.068  0.00  0.00     0.049 C 
HETATM   12  C   UNK N   1      30.808  44.945  59.896  0.00  0.00     0.016 C 
HETATM   13  C   UNK N   1      30.179  43.132  56.802  0.00  0.00    -0.010 C 
HETATM   14  C   UNK N   1      30.064  42.236  55.761  0.00  0.00    -0.078 C 
HETATM   15  C   UNK N   1      28.782  41.498  55.430  0.00  0.00     0.043 C 
HETATM   16  C   UNK N   1      31.215  41.935  54.820  0.00  0.00     0.043 C 
ENDROOT
BRANCH   3  17
HETATM   17  O   UNK N   1      27.712  47.692  57.578  0.00  0.00    -0.311 OA
BRANCH  17  18
HETATM   18  C   UNK N   1      26.924  48.745  57.235  0.00  0.00     0.296 C 
HETATM   19  O   UNK N   1      25.729  48.589  57.037  0.00  0.00    -0.262 OA
BRANCH  18  20
HETATM   20  C   UNK N   1      27.538  50.123  57.098  0.00  0.00     0.167 C 
HETATM   21  C   UNK N   1      28.942  50.015  56.451  0.00  0.00     0.060 C 
BRANCH  20  22
HETATM   22  O   UNK N   1      26.695  50.859  56.240  0.00  0.00    -0.377 OA
HETATM   23  H   UNK N   1      27.235  51.567  55.797  0.00  0.00     0.211 HD
ENDBRANCH  20  22
BRANCH  20  24
HETATM   24  C   UNK N   1      27.589  50.822  58.493  0.00  0.00     0.171 C 
HETATM   25  C   UNK N   1      28.792  51.772  58.664  0.00  0.00     0.044 C 
BRANCH  24  26
HETATM   26  O   UNK N   1      26.403  51.512  58.684  0.00  0.00    -0.313 OA
BRANCH  26  27
HETATM   27  C   UNK N   1      25.465  51.207  59.615  0.00  0.00     0.255 C 
HETATM   28  O   UNK N   1      24.429  51.852  59.701  0.00  0.00    -0.266 OA
HETATM   29  C   UNK N   1      25.728  50.087  60.567  0.00  0.00     0.126 C 
ENDBRANCH  26  27
ENDBRANCH  24  26
ENDBRANCH  20  24
ENDBRANCH  18  20
ENDBRANCH  17  18
ENDBRANCH   3  17
BRANCH   2  30
HETATM   30  O   UNK N   1      26.603  45.265  57.873  0.00  0.00    -0.387 OA
HETATM   31  H   UNK N   1      25.806  45.120  58.449  0.00  0.00     0.210 HD
ENDBRANCH   2  30
TORSDOF 8
ENDMDL
MODEL 6
REMARK VINA RESULT:      -4.9      3.962      7.546
REMARK  8 active torsions:
REMARK  status: ('A' for Active; 'I' for Inactive)
REMARK    1  A    between atoms: O_1  and  C_10 
REMARK    2  A    between atoms: O_1  and  C_14 
REMARK    3  A    between atoms: O_2  and  C_11 
REMARK    4  A    between atoms: O_2  and  C_15 
REMARK    5  A    between atoms: O_3  and  C_8 
REMARK    6  A    between atoms: O_4  and  C_9 
REMARK    7  A    between atoms: C_9  and  C_11 
REMARK    8  A    between atoms: C_9  and  C_14 
ROOT
HETATM    1  O   UNK N   1      32.052  42.830  61.212  0.00  0.00    -0.293 OA
HETATM    2  C   UNK N   1      28.278  46.319  58.945  0.00  0.00     0.085 C 
HETATM    3  C   UNK N   1      28.039  47.623  59.769  0.00  0.00     0.166 C 
HETATM    4  C   UNK N   1      29.576  45.615  59.501  0.00  0.00     0.035 C 
HETATM    5  C   UNK N   1      29.618  45.383  61.069  0.00  0.00    -0.030 C 
HETATM    6  C   UNK N   1      31.521  43.773  60.643  0.00  0.00     0.156 C 
HETATM    7  C   UNK N   1      27.996  47.361  61.290  0.00  0.00     0.036 C 
HETATM    8  C   UNK N   1      29.954  44.330  58.720  0.00  0.00     0.051 C 
HETATM    9  C   UNK N   1      31.063  44.964  61.433  0.00  0.00     0.093 C 
HETATM   10  C   UNK N   1      29.315  46.734  61.772  0.00  0.00     0.012 C 
HETATM   11  C   UNK N   1      27.005  45.437  58.924  0.00  0.00     0.049 C 
HETATM   12  C   UNK N   1      28.669  44.281  61.621  0.00  0.00     0.016 C 
HETATM   13  C   UNK N   1      31.310  43.774  59.168  0.00  0.00    -0.010 C 
HETATM   14  C   UNK N   1      32.270  43.313  58.292  0.00  0.00    -0.078 C 
HETATM   15  C   UNK N   1      32.060  43.220  56.793  0.00  0.00     0.043 C 
HETATM   16  C   UNK N   1      33.652  42.891  58.754  0.00  0.00     0.043 C 
ENDROOT
BRANCH   3  17
HETATM   17  O   UNK N   1      29.070  48.502  59.492  0.00  0.00    -0.311 OA
BRANCH  17  18
HETATM   18  C   UNK N   1      29.067  49.829  59.784  0.00  0.00     0.296 C 
HETATM   19  O   UNK N   1      29.498  50.230  60.855  0.00  0.00    -0.262 OA
BRANCH  18  20
HETATM   20  C   UNK N   1      28.523  50.816  58.772  0.00  0.00     0.167 C 
HETATM   21  C   UNK N   1      27.035  51.122  59.077  0.00  0.00     0.060 C 
BRANCH  20  22
HETATM   22  O   UNK N   1      29.273  52.001  58.918  0.00  0.00    -0.377 OA
HETATM   23  H   UNK N   1      29.098  52.377  59.822  0.00  0.00     0.211 HD
ENDBRANCH  20  22
BRANCH  20  24
HETATM   24  C   UNK N   1      28.722  50.257  57.328  0.00  0.00     0.171 C 
HETATM   25  C   UNK N   1      27.413  50.169  56.515  0.00  0.00     0.044 C 
BRANCH  24  26
HETATM   26  O   UNK N   1      29.642  51.056  56.668  0.00  0.00    -0.313 OA
BRANCH  26  27
HETATM   27  C   UNK N   1      30.504  50.626  55.713  0.00  0.00     0.255 C 
HETATM   28  O   UNK N   1      31.543  50.055  56.013  0.00  0.00    -0.266 OA
HETATM   29  C   UNK N   1      30.185  50.892  54.279  0.00  0.00     0.126 C 
ENDBRANCH  26  27
ENDBRANCH  24  26
ENDBRANCH  20  24
ENDBRANCH  18  20
ENDBRANCH  17  18
ENDBRANCH   3  17
BRANCH   2  30
HETATM   30  O   UNK N   1      28.545  46.670  57.602  0.00  0.00    -0.387 OA
HETATM   31  H   UNK N   1      28.040  46.056  57.005  0.00  0.00     0.210 HD
ENDBRANCH   2  30
TORSDOF 8
ENDMDL
MODEL 7
REMARK VINA RESULT:      -4.8     18.670     21.878
REMARK  8 active torsions:
REMARK  status: ('A' for Active; 'I' for Inactive)
REMARK    1  A    between atoms: O_1  and  C_10 
REMARK    2  A    between atoms: O_1  and  C_14 
REMARK    3  A    between atoms: O_2  and  C_11 
REMARK    4  A    between atoms: O_2  and  C_15 
REMARK    5  A    between atoms: O_3  and  C_8 
REMARK    6  A    between atoms: O_4  and  C_9 
REMARK    7  A    between atoms: C_9  and  C_11 
REMARK    8  A    between atoms: C_9  and  C_14 
ROOT
HETATM    1  O   UNK N   1      46.147  48.256  61.595  0.00  0.00    -0.293 OA
HETATM    2  C   UNK N   1      49.394  52.799  60.979  0.00  0.00     0.085 C 
HETATM    3  C   UNK N   1      50.442  52.682  59.828  0.00  0.00     0.166 C 
HETATM    4  C   UNK N   1      48.351  51.624  60.817  0.00  0.00     0.035 C 
HETATM    5  C   UNK N   1      48.966  50.170  60.673  0.00  0.00    -0.030 C 
HETATM    6  C   UNK N   1      46.650  49.288  61.177  0.00  0.00     0.156 C 
HETATM    7  C   UNK N   1      51.092  51.283  59.760  0.00  0.00     0.036 C 
HETATM    8  C   UNK N   1      47.218  51.666  61.874  0.00  0.00     0.051 C 
HETATM    9  C   UNK N   1      47.819  49.227  60.238  0.00  0.00     0.093 C 
HETATM   10  C   UNK N   1      50.026  50.196  59.539  0.00  0.00     0.012 C 
HETATM   11  C   UNK N   1      50.093  52.876  62.358  0.00  0.00     0.049 C 
HETATM   12  C   UNK N   1      49.593  49.563  61.962  0.00  0.00     0.016 C 
HETATM   13  C   UNK N   1      46.132  50.626  61.581  0.00  0.00    -0.010 C 
HETATM   14  C   UNK N   1      44.782  50.890  61.673  0.00  0.00    -0.078 C 
HETATM   15  C   UNK N   1      44.218  52.209  62.161  0.00  0.00     0.043 C 
HETATM   16  C   UNK N   1      43.729  49.881  61.251  0.00  0.00     0.043 C 
ENDROOT
BRANCH   3  17
HETATM   17  O   UNK N   1      49.798  52.937  58.632  0.00  0.00    -0.311 OA
BRANCH  17  18
HETATM   18  C   UNK N   1      50.081  53.969  57.795  0.00  0.00     0.296 C 
HETATM   19  O   UNK N   1      50.197  55.106  58.227  0.00  0.00    -0.262 OA
BRANCH  18  20
HETATM   20  C   UNK N   1      50.251  53.704  56.313  0.00  0.00     0.167 C 
HETATM   21  C   UNK N   1      51.210  52.505  56.096  0.00  0.00     0.060 C 
BRANCH  20  22
HETATM   22  O   UNK N   1      48.977  53.365  55.812  0.00  0.00    -0.377 OA
HETATM   23  H   UNK N   1      48.885  52.375  55.823  0.00  0.00     0.211 HD
ENDBRANCH  20  22
BRANCH  20  24
HETATM   24  C   UNK N   1      50.757  54.995  55.598  0.00  0.00     0.171 C 
HETATM   25  C   UNK N   1      52.286  55.027  55.390  0.00  0.00     0.044 C 
BRANCH  24  26
HETATM   26  O   UNK N   1      50.106  55.110  54.381  0.00  0.00    -0.313 OA
BRANCH  26  27
HETATM   27  C   UNK N   1      49.994  56.255  53.662  0.00  0.00     0.255 C 
HETATM   28  O   UNK N   1      50.724  56.471  52.704  0.00  0.00    -0.266 OA
HETATM   29  C   UNK N   1      48.986  57.275  54.078  0.00  0.00     0.126 C 
ENDBRANCH  26  27
ENDBRANCH  24  26
ENDBRANCH  20  24
ENDBRANCH  18  20
ENDBRANCH  17  18
ENDBRANCH   3  17
BRANCH   2  30
HETATM   30  O   UNK N   1      48.677  54.007  60.824  0.00  0.00    -0.387 OA
HETATM   31  H   UNK N   1      48.525  54.405  61.721  0.00  0.00     0.210 HD
ENDBRANCH   2  30
TORSDOF 8
ENDMDL
MODEL 8
REMARK VINA RESULT:      -4.7      2.745      7.108
REMARK  8 active torsions:
REMARK  status: ('A' for Active; 'I' for Inactive)
REMARK    1  A    between atoms: O_1  and  C_10 
REMARK    2  A    between atoms: O_1  and  C_14 
REMARK    3  A    between atoms: O_2  and  C_11 
REMARK    4  A    between atoms: O_2  and  C_15 
REMARK    5  A    between atoms: O_3  and  C_8 
REMARK    6  A    between atoms: O_4  and  C_9 
REMARK    7  A    between atoms: C_9  and  C_11 
REMARK    8  A    between atoms: C_9  and  C_14 
ROOT
HETATM    1  O   UNK N   1      26.430  40.384  51.246  0.00  0.00    -0.293 OA
HETATM    2  C   UNK N   1      27.134  42.653  56.337  0.00  0.00     0.085 C 
HETATM    3  C   UNK N   1      28.506  42.317  57.001  0.00  0.00     0.166 C 
HETATM    4  C   UNK N   1      27.211  42.249  54.813  0.00  0.00     0.035 C 
HETATM    5  C   UNK N   1      27.709  40.775  54.513  0.00  0.00    -0.030 C 
HETATM    6  C   UNK N   1      26.800  41.088  52.174  0.00  0.00     0.156 C 
HETATM    7  C   UNK N   1      28.931  40.851  56.770  0.00  0.00     0.036 C 
HETATM    8  C   UNK N   1      25.919  42.590  54.026  0.00  0.00     0.051 C 
HETATM    9  C   UNK N   1      27.990  40.684  52.993  0.00  0.00     0.093 C 
HETATM   10  C   UNK N   1      29.047  40.546  55.267  0.00  0.00     0.012 C 
HETATM   11  C   UNK N   1      25.965  42.017  57.130  0.00  0.00     0.049 C 
HETATM   12  C   UNK N   1      26.711  39.633  54.862  0.00  0.00     0.016 C 
HETATM   13  C   UNK N   1      26.092  42.352  52.523  0.00  0.00    -0.010 C 
HETATM   14  C   UNK N   1      25.643  43.229  51.557  0.00  0.00    -0.078 C 
HETATM   15  C   UNK N   1      24.846  44.480  51.869  0.00  0.00     0.043 C 
HETATM   16  C   UNK N   1      25.944  43.034  50.083  0.00  0.00     0.043 C 
ENDROOT
BRANCH   3  17
HETATM   17  O   UNK N   1      29.463  43.154  56.457  0.00  0.00    -0.311 OA
BRANCH  17  18
HETATM   18  C   UNK N   1      30.254  44.002  57.164  0.00  0.00     0.296 C 
HETATM   19  O   UNK N   1      29.774  44.970  57.734  0.00  0.00    -0.262 OA
BRANCH  18  20
HETATM   20  C   UNK N   1      31.745  43.741  57.244  0.00  0.00     0.167 C 
HETATM   21  C   UNK N   1      32.193  42.865  56.047  0.00  0.00     0.060 C 
BRANCH  20  22
HETATM   22  O   UNK N   1      32.381  44.997  57.154  0.00  0.00    -0.377 OA
HETATM   23  H   UNK N   1      33.034  45.074  57.899  0.00  0.00     0.211 HD
ENDBRANCH  20  22
BRANCH  20  24
HETATM   24  C   UNK N   1      32.095  43.084  58.615  0.00  0.00     0.171 C 
HETATM   25  C   UNK N   1      33.584  42.705  58.755  0.00  0.00     0.044 C 
BRANCH  24  26
HETATM   26  O   UNK N   1      31.725  43.954  59.628  0.00  0.00    -0.313 OA
BRANCH  26  27
HETATM   27  C   UNK N   1      31.249  43.579  60.842  0.00  0.00     0.255 C 
HETATM   28  O   UNK N   1      31.964  43.602  61.834  0.00  0.00    -0.266 OA
HETATM   29  C   UNK N   1      29.839  43.097  60.948  0.00  0.00     0.126 C 
ENDBRANCH  26  27
ENDBRANCH  24  26
ENDBRANCH  20  24
ENDBRANCH  18  20
ENDBRANCH  17  18
ENDBRANCH   3  17
BRANCH   2  30
HETATM   30  O   UNK N   1      26.934  44.051  56.382  0.00  0.00    -0.387 OA
HETATM   31  H   UNK N   1      26.140  44.243  56.948  0.00  0.00     0.210 HD
ENDBRANCH   2  30
TORSDOF 8
ENDMDL
MODEL 9
REMARK VINA RESULT:      -4.7      2.145      6.888
REMARK  8 active torsions:
REMARK  status: ('A' for Active; 'I' for Inactive)
REMARK    1  A    between atoms: O_1  and  C_10 
REMARK    2  A    between atoms: O_1  and  C_14 
REMARK    3  A    between atoms: O_2  and  C_11 
REMARK    4  A    between atoms: O_2  and  C_15 
REMARK    5  A    between atoms: O_3  and  C_8 
REMARK    6  A    between atoms: O_4  and  C_9 
REMARK    7  A    between atoms: C_9  and  C_11 
REMARK    8  A    between atoms: C_9  and  C_14 
ROOT
HETATM    1  O   UNK N   1      26.146  42.984  50.521  0.00  0.00    -0.293 OA
HETATM    2  C   UNK N   1      27.968  41.686  55.674  0.00  0.00     0.085 C 
HETATM    3  C   UNK N   1      29.519  41.741  55.835  0.00  0.00     0.166 C 
HETATM    4  C   UNK N   1      27.588  42.389  54.313  0.00  0.00     0.035 C 
HETATM    5  C   UNK N   1      28.369  41.880  53.031  0.00  0.00    -0.030 C 
HETATM    6  C   UNK N   1      26.598  43.048  51.654  0.00  0.00     0.156 C 
HETATM    7  C   UNK N   1      30.261  41.161  54.611  0.00  0.00     0.036 C 
HETATM    8  C   UNK N   1      26.058  42.450  54.066  0.00  0.00     0.051 C 
HETATM    9  C   UNK N   1      28.071  42.878  51.885  0.00  0.00     0.093 C 
HETATM   10  C   UNK N   1      29.892  41.933  53.333  0.00  0.00     0.012 C 
HETATM   11  C   UNK N   1      27.446  40.238  55.838  0.00  0.00     0.049 C 
HETATM   12  C   UNK N   1      27.986  40.463  52.515  0.00  0.00     0.016 C 
HETATM   13  C   UNK N   1      25.718  43.292  52.831  0.00  0.00    -0.010 C 
HETATM   14  C   UNK N   1      24.689  44.210  52.797  0.00  0.00    -0.078 C 
HETATM   15  C   UNK N   1      23.720  44.425  53.944  0.00  0.00     0.043 C 
HETATM   16  C   UNK N   1      24.457  45.123  51.608  0.00  0.00     0.043 C 
ENDROOT
BRANCH   3  17
HETATM   17  O   UNK N   1      29.889  43.063  55.999  0.00  0.00    -0.311 OA
BRANCH  17  18
HETATM   18  C   UNK N   1      30.812  43.514  56.888  0.00  0.00     0.296 C 
HETATM   19  O   UNK N   1      31.966  43.113  56.843  0.00  0.00    -0.262 OA
BRANCH  18  20
HETATM   20  C   UNK N   1      30.404  44.521  57.943  0.00  0.00     0.167 C 
HETATM   21  C   UNK N   1      31.006  45.909  57.611  0.00  0.00     0.060 C 
BRANCH  20  22
HETATM   22  O   UNK N   1      28.997  44.610  57.896  0.00  0.00    -0.377 OA
HETATM   23  H   UNK N   1      28.685  44.238  57.028  0.00  0.00     0.211 HD
ENDBRANCH  20  22
BRANCH  20  24
HETATM   24  C   UNK N   1      30.840  44.016  59.354  0.00  0.00     0.171 C 
HETATM   25  C   UNK N   1      30.631  45.057  60.474  0.00  0.00     0.044 C 
BRANCH  24  26
HETATM   26  O   UNK N   1      30.141  42.855  59.643  0.00  0.00    -0.313 OA
BRANCH  26  27
HETATM   27  C   UNK N   1      30.707  41.659  59.941  0.00  0.00     0.255 C 
HETATM   28  O   UNK N   1      31.627  41.580  60.743  0.00  0.00    -0.266 OA
HETATM   29  C   UNK N   1      30.214  40.432  59.247  0.00  0.00     0.126 C 
ENDBRANCH  26  27
ENDBRANCH  24  26
ENDBRANCH  20  24
ENDBRANCH  18  20
ENDBRANCH  17  18
ENDBRANCH   3  17
BRANCH   2  30
HETATM   30  O   UNK N   1      27.374  42.445  56.708  0.00  0.00    -0.387 OA
HETATM   31  H   UNK N   1      27.814  42.213  57.568  0.00  0.00     0.210 HD
ENDBRANCH   2  30
TORSDOF 8
ENDMDL
