MODEL 1
REMARK VINA RESULT:      -7.6      0.000      0.000
REMARK  7 active torsions:
REMARK  status: ('A' for Active; 'I' for Inactive)
REMARK    1  A    between atoms: O_3  and  C_10 
REMARK    2  A    between atoms: O_4  and  C_11 
REMARK    3  A    between atoms: O_5  and  C_12 
REMARK    4  A    between atoms: O_6  and  C_13 
REMARK    5  A    between atoms: C_15  and  C_16 
REMARK    6  A    between atoms: C_17  and  C_25 
REMARK    7  A    between atoms: C_25  and  C_27 
ROOT
HETATM    1  O   UNK N   1      39.632  46.321  48.021  0.00  0.00    -0.320 OA
HETATM    2  O   UNK N   1      41.618  46.368  44.577  0.00  0.00    -0.286 OA
HETATM    3  C   UNK N   1      40.462  45.312  47.756  0.00  0.00     0.098 A 
HETATM    4  C   UNK N   1      39.427  47.323  47.174  0.00  0.00     0.159 A 
HETATM    5  C   UNK N   1      41.014  46.354  45.638  0.00  0.00     0.198 A 
HETATM    6  C   UNK N   1      42.143  43.129  47.155  0.00  0.00     0.102 A 
HETATM    7  C   UNK N   1      41.452  43.174  48.382  0.00  0.00     0.108 A 
HETATM    8  C   UNK N   1      41.170  45.282  46.536  0.00  0.00     0.052 A 
HETATM    9  C   UNK N   1      40.123  47.393  45.960  0.00  0.00     0.048 A 
HETATM   10  C   UNK N   1      40.611  44.267  48.689  0.00  0.00     0.016 A 
HETATM   11  C   UNK N   1      42.004  44.192  46.241  0.00  0.00     0.058 A 
ENDROOT
BRANCH   9  12
HETATM   12  C   UNK N   1      39.910  48.548  45.056  0.00  0.00    -0.017 A 
HETATM   13  C   UNK N   1      38.779  48.597  44.229  0.00  0.00     0.052 A 
HETATM   14  C   UNK N   1      38.592  49.668  43.330  0.00  0.00     0.102 A 
HETATM   15  C   UNK N   1      39.526  50.720  43.302  0.00  0.00     0.101 A 
HETATM   16  C   UNK N   1      40.652  50.671  44.149  0.00  0.00     0.040 A 
HETATM   17  C   UNK N   1      40.850  49.584  45.001  0.00  0.00     0.015 A 
BRANCH  14  18
HETATM   18  O   UNK N   1      37.538  49.706  42.471  0.00  0.00    -0.353 OA
HETATM   19  C   UNK N   1      36.213  49.815  42.847  0.00  0.00     0.210 C 
ENDBRANCH  14  18
BRANCH  15  20
HETATM   20  O   UNK N   1      39.319  51.755  42.441  0.00  0.00    -0.353 OA
HETATM   21  C   UNK N   1      39.929  52.992  42.527  0.00  0.00     0.210 C 
ENDBRANCH  15  20
ENDBRANCH   9  12
BRANCH  10  22
HETATM   22  C   UNK N   1      39.877  44.324  50.012  0.00  0.00     0.072 C 
BRANCH  22  23
HETATM   23  C   UNK N   1      40.801  44.854  51.089  0.00  0.00    -0.020 C 
HETATM   24  C   UNK N   1      40.866  44.438  52.381  0.00  0.00    -0.091 C 
HETATM   25  C   UNK N   1      41.876  45.074  53.305  0.00  0.00     0.042 C 
HETATM   26  C   UNK N   1      39.991  43.361  52.975  0.00  0.00     0.042 C 
ENDBRANCH  22  23
ENDBRANCH  10  22
BRANCH   6  27
HETATM   27  O   UNK N   1      42.932  42.051  46.885  0.00  0.00    -0.353 OA
HETATM   28  C   UNK N   1      43.612  41.832  45.704  0.00  0.00     0.210 C 
ENDBRANCH   6  27
BRANCH   7  29
HETATM   29  O   UNK N   1      41.590  42.172  49.279  0.00  0.00    -0.357 OA
HETATM   30  H   UNK N   1      42.077  42.277  50.109  0.00  0.00     0.218 HD
ENDBRANCH   7  29
TORSDOF 7
ENDMDL
MODEL 2
REMARK VINA RESULT:      -5.9     14.170     17.534
REMARK  7 active torsions:
REMARK  status: ('A' for Active; 'I' for Inactive)
REMARK    1  A    between atoms: O_3  and  C_10 
REMARK    2  A    between atoms: O_4  and  C_11 
REMARK    3  A    between atoms: O_5  and  C_12 
REMARK    4  A    between atoms: O_6  and  C_13 
REMARK    5  A    between atoms: C_15  and  C_16 
REMARK    6  A    between atoms: C_17  and  C_25 
REMARK    7  A    between atoms: C_25  and  C_27 
ROOT
HETATM    1  O   UNK N   1      49.686  32.482  48.836  0.00  0.00    -0.320 OA
HETATM    2  O   UNK N   1      47.399  32.164  45.599  0.00  0.00    -0.286 OA
HETATM    3  C   UNK N   1      48.393  32.784  48.944  0.00  0.00     0.098 A 
HETATM    4  C   UNK N   1      50.242  32.103  47.690  0.00  0.00     0.159 A 
HETATM    5  C   UNK N   1      48.097  32.257  46.596  0.00  0.00     0.198 A 
HETATM    6  C   UNK N   1      45.677  33.517  49.151  0.00  0.00     0.102 A 
HETATM    7  C   UNK N   1      46.515  33.575  50.283  0.00  0.00     0.108 A 
HETATM    8  C   UNK N   1      47.552  32.703  47.814  0.00  0.00     0.052 A 
HETATM    9  C   UNK N   1      49.469  31.955  46.531  0.00  0.00     0.048 A 
HETATM   10  C   UNK N   1      47.874  33.205  50.184  0.00  0.00     0.016 A 
HETATM   11  C   UNK N   1      46.201  33.071  47.922  0.00  0.00     0.058 A 
ENDROOT
BRANCH   9  12
HETATM   12  C   UNK N   1      50.107  31.484  45.278  0.00  0.00    -0.017 A 
HETATM   13  C   UNK N   1      51.215  32.164  44.753  0.00  0.00     0.052 A 
HETATM   14  C   UNK N   1      51.798  31.754  43.536  0.00  0.00     0.102 A 
HETATM   15  C   UNK N   1      51.293  30.621  42.872  0.00  0.00     0.101 A 
HETATM   16  C   UNK N   1      50.189  29.933  43.417  0.00  0.00     0.040 A 
HETATM   17  C   UNK N   1      49.591  30.376  44.597  0.00  0.00     0.015 A 
BRANCH  14  18
HETATM   18  O   UNK N   1      52.832  32.435  42.972  0.00  0.00    -0.353 OA
HETATM   19  C   UNK N   1      52.698  33.468  42.063  0.00  0.00     0.210 C 
ENDBRANCH  14  18
BRANCH  15  20
HETATM   20  O   UNK N   1      51.881  30.227  41.709  0.00  0.00    -0.353 OA
HETATM   21  C   UNK N   1      51.286  30.274  40.463  0.00  0.00     0.210 C 
ENDBRANCH  15  20
ENDBRANCH   9  12
BRANCH  10  22
HETATM   22  C   UNK N   1      48.774  33.254  51.402  0.00  0.00     0.072 C 
BRANCH  22  23
HETATM   23  C   UNK N   1      48.707  31.935  52.142  0.00  0.00    -0.020 C 
HETATM   24  C   UNK N   1      48.179  31.721  53.376  0.00  0.00    -0.091 C 
HETATM   25  C   UNK N   1      48.182  30.321  53.941  0.00  0.00     0.042 C 
HETATM   26  C   UNK N   1      47.571  32.797  54.242  0.00  0.00     0.042 C 
ENDBRANCH  22  23
ENDBRANCH  10  22
BRANCH   6  27
HETATM   27  O   UNK N   1      44.374  33.897  49.279  0.00  0.00    -0.353 OA
HETATM   28  C   UNK N   1      43.367  33.617  48.378  0.00  0.00     0.210 C 
ENDBRANCH   6  27
BRANCH   7  29
HETATM   29  O   UNK N   1      46.022  33.981  51.475  0.00  0.00    -0.357 OA
HETATM   30  H   UNK N   1      46.371  33.664  52.320  0.00  0.00     0.218 HD
ENDBRANCH   7  29
TORSDOF 7
ENDMDL
MODEL 3
REMARK VINA RESULT:      -5.4     10.397     17.186
REMARK  7 active torsions:
REMARK  status: ('A' for Active; 'I' for Inactive)
REMARK    1  A    between atoms: O_3  and  C_10 
REMARK    2  A    between atoms: O_4  and  C_11 
REMARK    3  A    between atoms: O_5  and  C_12 
REMARK    4  A    between atoms: O_6  and  C_13 
REMARK    5  A    between atoms: C_15  and  C_16 
REMARK    6  A    between atoms: C_17  and  C_25 
REMARK    7  A    between atoms: C_25  and  C_27 
ROOT
HETATM    1  O   UNK N   1      27.959  56.218  42.080  0.00  0.00    -0.320 OA
HETATM    2  O   UNK N   1      31.690  56.068  40.717  0.00  0.00    -0.286 OA
HETATM    3  C   UNK N   1      28.250  56.880  40.960  0.00  0.00     0.098 A 
HETATM    4  C   UNK N   1      28.867  55.534  42.766  0.00  0.00     0.159 A 
HETATM    5  C   UNK N   1      30.542  56.111  41.129  0.00  0.00     0.198 A 
HETATM    6  C   UNK N   1      28.885  58.358  38.644  0.00  0.00     0.102 A 
HETATM    7  C   UNK N   1      27.566  58.349  39.139  0.00  0.00     0.108 A 
HETATM    8  C   UNK N   1      29.567  56.867  40.454  0.00  0.00     0.052 A 
HETATM    9  C   UNK N   1      30.188  55.435  42.310  0.00  0.00     0.048 A 
HETATM   10  C   UNK N   1      27.243  57.607  40.296  0.00  0.00     0.016 A 
HETATM   11  C   UNK N   1      29.879  57.606  39.302  0.00  0.00     0.058 A 
ENDROOT
BRANCH   9  12
HETATM   12  C   UNK N   1      31.169  54.625  43.072  0.00  0.00    -0.017 A 
HETATM   13  C   UNK N   1      32.073  55.248  43.942  0.00  0.00     0.052 A 
HETATM   14  C   UNK N   1      33.042  54.491  44.634  0.00  0.00     0.102 A 
HETATM   15  C   UNK N   1      33.066  53.093  44.484  0.00  0.00     0.101 A 
HETATM   16  C   UNK N   1      32.141  52.472  43.619  0.00  0.00     0.040 A 
HETATM   17  C   UNK N   1      31.217  53.236  42.905  0.00  0.00     0.015 A 
BRANCH  14  18
HETATM   18  O   UNK N   1      33.973  55.079  45.434  0.00  0.00    -0.353 OA
HETATM   19  C   UNK N   1      34.079  56.438  45.660  0.00  0.00     0.210 C 
ENDBRANCH  14  18
BRANCH  15  20
HETATM   20  O   UNK N   1      33.995  52.376  45.175  0.00  0.00    -0.353 OA
HETATM   21  C   UNK N   1      34.375  51.080  44.884  0.00  0.00     0.210 C 
ENDBRANCH  15  20
ENDBRANCH   9  12
BRANCH  10  22
HETATM   22  C   UNK N   1      25.823  57.586  40.823  0.00  0.00     0.072 C 
BRANCH  22  23
HETATM   23  C   UNK N   1      25.623  58.721  41.806  0.00  0.00    -0.020 C 
HETATM   24  C   UNK N   1      25.330  58.610  43.128  0.00  0.00    -0.091 C 
HETATM   25  C   UNK N   1      25.192  59.865  43.955  0.00  0.00     0.042 C 
HETATM   26  C   UNK N   1      25.133  57.299  43.851  0.00  0.00     0.042 C 
ENDBRANCH  22  23
ENDBRANCH  10  22
BRANCH   6  27
HETATM   27  O   UNK N   1      29.165  59.098  37.534  0.00  0.00    -0.353 OA
HETATM   28  C   UNK N   1      29.526  60.430  37.529  0.00  0.00     0.210 C 
ENDBRANCH   6  27
BRANCH   7  29
HETATM   29  O   UNK N   1      26.597  59.049  38.506  0.00  0.00    -0.357 OA
HETATM   30  H   UNK N   1      26.663  59.311  37.577  0.00  0.00     0.218 HD
ENDBRANCH   7  29
TORSDOF 7
ENDMDL
MODEL 4
REMARK VINA RESULT:      -5.4     15.470     17.735
REMARK  7 active torsions:
REMARK  status: ('A' for Active; 'I' for Inactive)
REMARK    1  A    between atoms: O_3  and  C_10 
REMARK    2  A    between atoms: O_4  and  C_11 
REMARK    3  A    between atoms: O_5  and  C_12 
REMARK    4  A    between atoms: O_6  and  C_13 
REMARK    5  A    between atoms: C_15  and  C_16 
REMARK    6  A    between atoms: C_17  and  C_25 
REMARK    7  A    between atoms: C_25  and  C_27 
ROOT
HETATM    1  O   UNK N   1      49.514  33.377  48.273  0.00  0.00    -0.320 OA
HETATM    2  O   UNK N   1      48.468  30.648  45.578  0.00  0.00    -0.286 OA
HETATM    3  C   UNK N   1      48.305  32.824  48.370  0.00  0.00     0.098 A 
HETATM    4  C   UNK N   1      50.368  33.071  47.303  0.00  0.00     0.159 A 
HETATM    5  C   UNK N   1      48.789  31.481  46.410  0.00  0.00     0.198 A 
HETATM    6  C   UNK N   1      45.712  31.725  48.520  0.00  0.00     0.102 A 
HETATM    7  C   UNK N   1      46.140  32.664  49.479  0.00  0.00     0.108 A 
HETATM    8  C   UNK N   1      47.889  31.865  47.422  0.00  0.00     0.052 A 
HETATM    9  C   UNK N   1      50.051  32.097  46.347  0.00  0.00     0.048 A 
HETATM   10  C   UNK N   1      47.439  33.215  49.409  0.00  0.00     0.016 A 
HETATM   11  C   UNK N   1      46.596  31.323  47.499  0.00  0.00     0.058 A 
ENDROOT
BRANCH   9  12
HETATM   12  C   UNK N   1      51.043  31.742  45.304  0.00  0.00    -0.017 A 
HETATM   13  C   UNK N   1      50.632  31.540  43.979  0.00  0.00     0.052 A 
HETATM   14  C   UNK N   1      51.560  31.154  42.990  0.00  0.00     0.102 A 
HETATM   15  C   UNK N   1      52.919  31.018  43.330  0.00  0.00     0.101 A 
HETATM   16  C   UNK N   1      53.326  31.240  44.662  0.00  0.00     0.040 A 
HETATM   17  C   UNK N   1      52.391  31.577  45.641  0.00  0.00     0.015 A 
BRANCH  14  18
HETATM   18  O   UNK N   1      51.176  30.888  41.712  0.00  0.00    -0.353 OA
HETATM   19  C   UNK N   1      50.598  31.802  40.852  0.00  0.00     0.210 C 
ENDBRANCH  14  18
BRANCH  15  20
HETATM   20  O   UNK N   1      53.804  30.664  42.358  0.00  0.00    -0.353 OA
HETATM   21  C   UNK N   1      54.560  31.547  41.612  0.00  0.00     0.210 C 
ENDBRANCH  15  20
ENDBRANCH   9  12
BRANCH  10  22
HETATM   22  C   UNK N   1      47.905  34.216  50.446  0.00  0.00     0.072 C 
BRANCH  22  23
HETATM   23  C   UNK N   1      48.495  33.486  51.635  0.00  0.00    -0.020 C 
HETATM   24  C   UNK N   1      48.461  33.887  52.933  0.00  0.00    -0.091 C 
HETATM   25  C   UNK N   1      49.087  33.006  53.987  0.00  0.00     0.042 C 
HETATM   26  C   UNK N   1      47.828  35.170  53.413  0.00  0.00     0.042 C 
ENDBRANCH  22  23
ENDBRANCH  10  22
BRANCH   6  27
HETATM   27  O   UNK N   1      44.447  31.227  48.608  0.00  0.00    -0.353 OA
HETATM   28  C   UNK N   1      44.116  29.935  48.965  0.00  0.00     0.210 C 
ENDBRANCH   6  27
BRANCH   7  29
HETATM   29  O   UNK N   1      45.310  33.045  50.477  0.00  0.00    -0.357 OA
HETATM   30  H   UNK N   1      44.746  32.420  50.954  0.00  0.00     0.218 HD
ENDBRANCH   7  29
TORSDOF 7
ENDMDL
MODEL 5
REMARK VINA RESULT:      -5.4     14.827     18.409
REMARK  7 active torsions:
REMARK  status: ('A' for Active; 'I' for Inactive)
REMARK    1  A    between atoms: O_3  and  C_10 
REMARK    2  A    between atoms: O_4  and  C_11 
REMARK    3  A    between atoms: O_5  and  C_12 
REMARK    4  A    between atoms: O_6  and  C_13 
REMARK    5  A    between atoms: C_15  and  C_16 
REMARK    6  A    between atoms: C_17  and  C_25 
REMARK    7  A    between atoms: C_25  and  C_27 
ROOT
HETATM    1  O   UNK N   1      35.270  43.828  60.991  0.00  0.00    -0.320 OA
HETATM    2  O   UNK N   1      34.807  45.309  64.651  0.00  0.00    -0.286 OA
HETATM    3  C   UNK N   1      34.142  43.554  61.645  0.00  0.00     0.098 A 
HETATM    4  C   UNK N   1      36.249  44.553  61.520  0.00  0.00     0.159 A 
HETATM    5  C   UNK N   1      34.943  44.858  63.525  0.00  0.00     0.198 A 
HETATM    6  C   UNK N   1      31.796  42.893  63.065  0.00  0.00     0.102 A 
HETATM    7  C   UNK N   1      31.983  42.425  61.750  0.00  0.00     0.108 A 
HETATM    8  C   UNK N   1      33.947  44.045  62.953  0.00  0.00     0.052 A 
HETATM    9  C   UNK N   1      36.118  45.114  62.796  0.00  0.00     0.048 A 
HETATM   10  C   UNK N   1      33.155  42.756  61.033  0.00  0.00     0.016 A 
HETATM   11  C   UNK N   1      32.778  43.711  63.657  0.00  0.00     0.058 A 
ENDROOT
BRANCH   9  12
HETATM   12  C   UNK N   1      37.208  45.959  63.342  0.00  0.00    -0.017 A 
HETATM   13  C   UNK N   1      38.230  45.383  64.110  0.00  0.00     0.052 A 
HETATM   14  C   UNK N   1      39.243  46.185  64.675  0.00  0.00     0.102 A 
HETATM   15  C   UNK N   1      39.253  47.568  64.421  0.00  0.00     0.101 A 
HETATM   16  C   UNK N   1      38.231  48.137  63.634  0.00  0.00     0.040 A 
HETATM   17  C   UNK N   1      37.208  47.340  63.119  0.00  0.00     0.015 A 
BRANCH  14  18
HETATM   18  O   UNK N   1      40.208  45.659  65.477  0.00  0.00    -0.353 OA
HETATM   19  C   UNK N   1      40.034  45.313  66.803  0.00  0.00     0.210 C 
ENDBRANCH  14  18
BRANCH  15  20
HETATM   20  O   UNK N   1      40.251  48.324  64.958  0.00  0.00    -0.353 OA
HETATM   21  C   UNK N   1      40.173  49.007  66.157  0.00  0.00     0.210 C 
ENDBRANCH  15  20
ENDBRANCH   9  12
BRANCH  10  22
HETATM   22  C   UNK N   1      33.353  42.264  59.615  0.00  0.00     0.072 C 
BRANCH  22  23
HETATM   23  C   UNK N   1      33.010  43.368  58.636  0.00  0.00    -0.020 C 
HETATM   24  C   UNK N   1      31.862  43.493  57.921  0.00  0.00    -0.091 C 
HETATM   25  C   UNK N   1      31.693  44.683  57.009  0.00  0.00     0.042 C 
HETATM   26  C   UNK N   1      30.714  42.513  57.973  0.00  0.00     0.042 C 
ENDBRANCH  22  23
ENDBRANCH  10  22
BRANCH   6  27
HETATM   27  O   UNK N   1      30.661  42.541  63.732  0.00  0.00    -0.353 OA
HETATM   28  C   UNK N   1      30.127  43.211  64.814  0.00  0.00     0.210 C 
ENDBRANCH   6  27
BRANCH   7  29
HETATM   29  O   UNK N   1      31.040  41.656  61.160  0.00  0.00    -0.357 OA
HETATM   30  H   UNK N   1      31.106  41.361  60.241  0.00  0.00     0.218 HD
ENDBRANCH   7  29
TORSDOF 7
ENDMDL
MODEL 6
REMARK VINA RESULT:      -5.1     14.123     17.011
REMARK  7 active torsions:
REMARK  status: ('A' for Active; 'I' for Inactive)
REMARK    1  A    between atoms: O_3  and  C_10 
REMARK    2  A    between atoms: O_4  and  C_11 
REMARK    3  A    between atoms: O_5  and  C_12 
REMARK    4  A    between atoms: O_6  and  C_13 
REMARK    5  A    between atoms: C_15  and  C_16 
REMARK    6  A    between atoms: C_17  and  C_25 
REMARK    7  A    between atoms: C_25  and  C_27 
ROOT
HETATM    1  O   UNK N   1      29.323  40.018  57.460  0.00  0.00    -0.320 OA
HETATM    2  O   UNK N   1      31.224  43.447  56.804  0.00  0.00    -0.286 OA
HETATM    3  C   UNK N   1      29.321  40.515  56.224  0.00  0.00     0.098 A 
HETATM    4  C   UNK N   1      29.913  40.631  58.480  0.00  0.00     0.159 A 
HETATM    5  C   UNK N   1      30.645  42.391  57.001  0.00  0.00     0.198 A 
HETATM    6  C   UNK N   1      29.233  41.614  53.628  0.00  0.00     0.102 A 
HETATM    7  C   UNK N   1      28.608  40.380  53.896  0.00  0.00     0.108 A 
HETATM    8  C   UNK N   1      29.968  41.740  55.954  0.00  0.00     0.052 A 
HETATM    9  C   UNK N   1      30.614  41.829  58.289  0.00  0.00     0.048 A 
HETATM   10  C   UNK N   1      28.653  39.824  55.194  0.00  0.00     0.016 A 
HETATM   11  C   UNK N   1      29.919  42.284  54.660  0.00  0.00     0.058 A 
ENDROOT
BRANCH   9  12
HETATM   12  C   UNK N   1      31.303  42.467  59.437  0.00  0.00    -0.017 A 
HETATM   13  C   UNK N   1      30.675  43.494  60.155  0.00  0.00     0.052 A 
HETATM   14  C   UNK N   1      31.341  44.140  61.217  0.00  0.00     0.102 A 
HETATM   15  C   UNK N   1      32.629  43.714  61.588  0.00  0.00     0.101 A 
HETATM   16  C   UNK N   1      33.247  42.668  60.872  0.00  0.00     0.040 A 
HETATM   17  C   UNK N   1      32.596  42.068  59.794  0.00  0.00     0.015 A 
BRANCH  14  18
HETATM   18  O   UNK N   1      30.779  45.183  61.886  0.00  0.00    -0.353 OA
HETATM   19  C   UNK N   1      30.343  46.357  61.303  0.00  0.00     0.210 C 
ENDBRANCH  14  18
BRANCH  15  20
HETATM   20  O   UNK N   1      33.249  44.336  62.629  0.00  0.00    -0.353 OA
HETATM   21  C   UNK N   1      34.617  44.394  62.817  0.00  0.00     0.210 C 
ENDBRANCH  15  20
ENDBRANCH   9  12
BRANCH  10  22
HETATM   22  C   UNK N   1      27.993  38.492  55.482  0.00  0.00     0.072 C 
BRANCH  22  23
HETATM   23  C   UNK N   1      28.963  37.365  55.192  0.00  0.00    -0.020 C 
HETATM   24  C   UNK N   1      29.522  36.520  56.098  0.00  0.00    -0.091 C 
HETATM   25  C   UNK N   1      30.454  35.437  55.611  0.00  0.00     0.042 C 
HETATM   26  C   UNK N   1      29.273  36.579  57.585  0.00  0.00     0.042 C 
ENDBRANCH  22  23
ENDBRANCH  10  22
BRANCH   6  27
HETATM   27  O   UNK N   1      29.156  42.130  52.369  0.00  0.00    -0.353 OA
HETATM   28  C   UNK N   1      28.344  43.176  51.979  0.00  0.00     0.210 C 
ENDBRANCH   6  27
BRANCH   7  29
HETATM   29  O   UNK N   1      27.963  39.715  52.911  0.00  0.00    -0.357 OA
HETATM   30  H   UNK N   1      27.598  38.827  53.032  0.00  0.00     0.218 HD
ENDBRANCH   7  29
TORSDOF 7
ENDMDL
MODEL 7
REMARK VINA RESULT:      -5.0     13.909     18.182
REMARK  7 active torsions:
REMARK  status: ('A' for Active; 'I' for Inactive)
REMARK    1  A    between atoms: O_3  and  C_10 
REMARK    2  A    between atoms: O_4  and  C_11 
REMARK    3  A    between atoms: O_5  and  C_12 
REMARK    4  A    between atoms: O_6  and  C_13 
REMARK    5  A    between atoms: C_15  and  C_16 
REMARK    6  A    between atoms: C_17  and  C_25 
REMARK    7  A    between atoms: C_25  and  C_27 
ROOT
HETATM    1  O   UNK N   1      29.673  48.397  57.697  0.00  0.00    -0.320 OA
HETATM    2  O   UNK N   1      27.619  45.131  58.651  0.00  0.00    -0.286 OA
HETATM    3  C   UNK N   1      28.342  48.458  57.672  0.00  0.00     0.098 A 
HETATM    4  C   UNK N   1      30.336  47.288  58.004  0.00  0.00     0.159 A 
HETATM    5  C   UNK N   1      28.247  46.137  58.364  0.00  0.00     0.198 A 
HETATM    6  C   UNK N   1      25.528  48.562  57.525  0.00  0.00     0.102 A 
HETATM    7  C   UNK N   1      26.295  49.708  57.235  0.00  0.00     0.108 A 
HETATM    8  C   UNK N   1      27.577  47.315  57.985  0.00  0.00     0.052 A 
HETATM    9  C   UNK N   1      29.652  46.121  58.370  0.00  0.00     0.048 A 
HETATM   10  C   UNK N   1      27.704  49.661  57.311  0.00  0.00     0.016 A 
HETATM   11  C   UNK N   1      26.176  47.371  57.909  0.00  0.00     0.058 A 
ENDROOT
BRANCH   9  12
HETATM   12  C   UNK N   1      30.419  44.911  58.754  0.00  0.00    -0.017 A 
HETATM   13  C   UNK N   1      30.697  44.651  60.103  0.00  0.00     0.052 A 
HETATM   14  C   UNK N   1      31.467  43.529  60.474  0.00  0.00     0.102 A 
HETATM   15  C   UNK N   1      31.916  42.638  59.483  0.00  0.00     0.101 A 
HETATM   16  C   UNK N   1      31.617  42.898  58.129  0.00  0.00     0.040 A 
HETATM   17  C   UNK N   1      30.894  44.036  57.770  0.00  0.00     0.015 A 
BRANCH  14  18
HETATM   18  O   UNK N   1      31.806  43.291  61.770  0.00  0.00    -0.353 OA
HETATM   19  C   UNK N   1      30.990  42.683  62.704  0.00  0.00     0.210 C 
ENDBRANCH  14  18
BRANCH  15  20
HETATM   20  O   UNK N   1      32.642  41.549  59.861  0.00  0.00    -0.353 OA
HETATM   21  C   UNK N   1      34.004  41.403  59.686  0.00  0.00     0.210 C 
ENDBRANCH  15  20
ENDBRANCH   9  12
BRANCH  10  22
HETATM   22  C   UNK N   1      28.531  50.895  57.013  0.00  0.00     0.072 C 
BRANCH  22  23
HETATM   23  C   UNK N   1      28.883  50.933  55.540  0.00  0.00    -0.020 C 
HETATM   24  C   UNK N   1      30.118  50.781  54.995  0.00  0.00    -0.091 C 
HETATM   25  C   UNK N   1      30.266  50.825  53.493  0.00  0.00     0.042 C 
HETATM   26  C   UNK N   1      31.381  50.560  55.792  0.00  0.00     0.042 C 
ENDBRANCH  22  23
ENDBRANCH  10  22
BRANCH   6  27
HETATM   27  O   UNK N   1      24.171  48.638  57.426  0.00  0.00    -0.353 OA
HETATM   28  C   UNK N   1      23.379  47.834  56.631  0.00  0.00     0.210 C 
ENDBRANCH   6  27
BRANCH   7  29
HETATM   29  O   UNK N   1      25.686  50.864  56.886  0.00  0.00    -0.357 OA
HETATM   30  H   UNK N   1      26.170  51.694  56.768  0.00  0.00     0.218 HD
ENDBRANCH   7  29
TORSDOF 7
ENDMDL
MODEL 8
REMARK VINA RESULT:      -4.9     15.026     17.704
REMARK  7 active torsions:
REMARK  status: ('A' for Active; 'I' for Inactive)
REMARK    1  A    between atoms: O_3  and  C_10 
REMARK    2  A    between atoms: O_4  and  C_11 
REMARK    3  A    between atoms: O_5  and  C_12 
REMARK    4  A    between atoms: O_6  and  C_13 
REMARK    5  A    between atoms: C_15  and  C_16 
REMARK    6  A    between atoms: C_17  and  C_25 
REMARK    7  A    between atoms: C_25  and  C_27 
ROOT
HETATM    1  O   UNK N   1      50.824  51.802  58.782  0.00  0.00    -0.320 OA
HETATM    2  O   UNK N   1      50.308  47.931  59.521  0.00  0.00    -0.286 OA
HETATM    3  C   UNK N   1      51.549  50.925  58.089  0.00  0.00     0.098 A 
HETATM    4  C   UNK N   1      49.957  51.437  59.719  0.00  0.00     0.159 A 
HETATM    5  C   UNK N   1      50.464  49.118  59.287  0.00  0.00     0.198 A 
HETATM    6  C   UNK N   1      53.155  49.074  56.692  0.00  0.00     0.102 A 
HETATM    7  C   UNK N   1      53.274  50.454  56.432  0.00  0.00     0.108 A 
HETATM    8  C   UNK N   1      51.410  49.543  58.335  0.00  0.00     0.052 A 
HETATM    9  C   UNK N   1      49.726  50.083  59.996  0.00  0.00     0.048 A 
HETATM   10  C   UNK N   1      52.470  51.384  57.127  0.00  0.00     0.016 A 
HETATM   11  C   UNK N   1      52.213  48.625  57.639  0.00  0.00     0.058 A 
ENDROOT
BRANCH   9  12
HETATM   12  C   UNK N   1      48.719  49.703  61.014  0.00  0.00    -0.017 A 
HETATM   13  C   UNK N   1      47.406  49.397  60.629  0.00  0.00     0.052 A 
HETATM   14  C   UNK N   1      46.428  49.083  61.595  0.00  0.00     0.102 A 
HETATM   15  C   UNK N   1      46.789  49.028  62.954  0.00  0.00     0.101 A 
HETATM   16  C   UNK N   1      48.116  49.319  63.332  0.00  0.00     0.040 A 
HETATM   17  C   UNK N   1      49.063  49.674  62.371  0.00  0.00     0.015 A 
BRANCH  14  18
HETATM   18  O   UNK N   1      45.132  48.847  61.252  0.00  0.00    -0.353 OA
HETATM   19  C   UNK N   1      44.177  49.824  61.045  0.00  0.00     0.210 C 
ENDBRANCH  14  18
BRANCH  15  20
HETATM   20  O   UNK N   1      45.836  48.703  63.871  0.00  0.00    -0.353 OA
HETATM   21  C   UNK N   1      46.074  48.053  65.067  0.00  0.00     0.210 C 
ENDBRANCH  15  20
ENDBRANCH   9  12
BRANCH  10  22
HETATM   22  C   UNK N   1      52.587  52.867  56.840  0.00  0.00     0.072 C 
BRANCH  22  23
HETATM   23  C   UNK N   1      51.657  53.246  55.707  0.00  0.00    -0.020 C 
HETATM   24  C   UNK N   1      52.013  53.751  54.497  0.00  0.00    -0.091 C 
HETATM   25  C   UNK N   1      50.937  54.046  53.481  0.00  0.00     0.042 C 
HETATM   26  C   UNK N   1      53.434  54.043  54.080  0.00  0.00     0.042 C 
ENDBRANCH  22  23
ENDBRANCH  10  22
BRANCH   6  27
HETATM   27  O   UNK N   1      53.958  48.206  56.015  0.00  0.00    -0.353 OA
HETATM   28  C   UNK N   1      53.720  46.857  55.848  0.00  0.00     0.210 C 
ENDBRANCH   6  27
BRANCH   7  29
HETATM   29  O   UNK N   1      54.159  50.899  55.511  0.00  0.00    -0.357 OA
HETATM   30  H   UNK N   1      54.599  51.758  55.582  0.00  0.00     0.218 HD
ENDBRANCH   7  29
TORSDOF 7
ENDMDL
MODEL 9
REMARK VINA RESULT:      -4.9     14.043     18.280
REMARK  7 active torsions:
REMARK  status: ('A' for Active; 'I' for Inactive)
REMARK    1  A    between atoms: O_3  and  C_10 
REMARK    2  A    between atoms: O_4  and  C_11 
REMARK    3  A    between atoms: O_5  and  C_12 
REMARK    4  A    between atoms: O_6  and  C_13 
REMARK    5  A    between atoms: C_15  and  C_16 
REMARK    6  A    between atoms: C_17  and  C_25 
REMARK    7  A    between atoms: C_25  and  C_27 
ROOT
HETATM    1  O   UNK N   1      29.009  47.493  60.175  0.00  0.00    -0.320 OA
HETATM    2  O   UNK N   1      31.004  45.656  57.269  0.00  0.00    -0.286 OA
HETATM    3  C   UNK N   1      29.404  48.214  59.127  0.00  0.00     0.098 A 
HETATM    4  C   UNK N   1      29.275  46.198  60.297  0.00  0.00     0.159 A 
HETATM    5  C   UNK N   1      30.386  46.222  58.157  0.00  0.00     0.198 A 
HETATM    6  C   UNK N   1      30.322  49.761  56.954  0.00  0.00     0.102 A 
HETATM    7  C   UNK N   1      29.576  50.362  57.986  0.00  0.00     0.108 A 
HETATM    8  C   UNK N   1      30.131  47.603  58.083  0.00  0.00     0.052 A 
HETATM    9  C   UNK N   1      29.954  45.505  59.286  0.00  0.00     0.048 A 
HETATM   10  C   UNK N   1      29.111  49.591  59.074  0.00  0.00     0.016 A 
HETATM   11  C   UNK N   1      30.588  48.378  57.005  0.00  0.00     0.058 A 
ENDROOT
BRANCH   9  12
HETATM   12  C   UNK N   1      30.194  44.049  59.428  0.00  0.00    -0.017 A 
HETATM   13  C   UNK N   1      31.384  43.583  60.004  0.00  0.00     0.052 A 
HETATM   14  C   UNK N   1      31.644  42.200  60.098  0.00  0.00     0.102 A 
HETATM   15  C   UNK N   1      30.675  41.282  59.654  0.00  0.00     0.101 A 
HETATM   16  C   UNK N   1      29.473  41.759  59.091  0.00  0.00     0.040 A 
HETATM   17  C   UNK N   1      29.248  43.129  58.961  0.00  0.00     0.015 A 
BRANCH  14  18
HETATM   18  O   UNK N   1      32.819  41.724  60.593  0.00  0.00    -0.353 OA
HETATM   19  C   UNK N   1      33.974  41.544  59.856  0.00  0.00     0.210 C 
ENDBRANCH  14  18
BRANCH  15  20
HETATM   20  O   UNK N   1      30.934  39.950  59.771  0.00  0.00    -0.353 OA
HETATM   21  C   UNK N   1      30.596  39.168  60.858  0.00  0.00     0.210 C 
ENDBRANCH  15  20
ENDBRANCH   9  12
BRANCH  10  22
HETATM   22  C   UNK N   1      28.297  50.233  60.179  0.00  0.00     0.072 C 
BRANCH  22  23
HETATM   23  C   UNK N   1      26.821  50.135  59.853  0.00  0.00    -0.020 C 
HETATM   24  C   UNK N   1      25.975  51.166  59.595  0.00  0.00    -0.091 C 
HETATM   25  C   UNK N   1      24.534  50.865  59.263  0.00  0.00     0.042 C 
HETATM   26  C   UNK N   1      26.376  52.622  59.609  0.00  0.00     0.042 C 
ENDBRANCH  22  23
ENDBRANCH  10  22
BRANCH   6  27
HETATM   27  O   UNK N   1      30.769  50.538  55.928  0.00  0.00    -0.353 OA
HETATM   28  C   UNK N   1      30.139  50.698  54.710  0.00  0.00     0.210 C 
ENDBRANCH   6  27
BRANCH   7  29
HETATM   29  O   UNK N   1      29.294  51.685  57.942  0.00  0.00    -0.357 OA
HETATM   30  H   UNK N   1      28.583  52.049  57.397  0.00  0.00     0.218 HD
ENDBRANCH   7  29
TORSDOF 7
ENDMDL
