MODEL 1
REMARK VINA RESULT:      -5.3      0.000      0.000
REMARK  8 active torsions:
REMARK  status: ('A' for Active; 'I' for Inactive)
REMARK    1  A    between atoms: O_1  and  C_10 
REMARK    2  A    between atoms: O_1  and  C_14 
REMARK    3  A    between atoms: O_2  and  C_11 
REMARK    4  A    between atoms: O_2  and  C_15 
REMARK    5  A    between atoms: O_3  and  C_8 
REMARK    6  A    between atoms: O_4  and  C_9 
REMARK    7  A    between atoms: C_9  and  C_11 
REMARK    8  A    between atoms: C_9  and  C_14 
ROOT
HETATM    1  O   UNK N   1      25.830  40.763  49.419  0.00  0.00    -0.293 OA
HETATM    2  C   UNK N   1      26.706  42.673  54.639  0.00  0.00     0.089 C 
HETATM    3  C   UNK N   1      28.047  42.061  55.214  0.00  0.00     0.166 C 
HETATM    4  C   UNK N   1      26.654  42.656  53.016  0.00  0.00     0.001 C 
HETATM    5  C   UNK N   1      27.564  41.480  52.432  0.00  0.00    -0.027 C 
HETATM    6  C   UNK N   1      26.138  41.511  50.336  0.00  0.00     0.156 C 
HETATM    7  C   UNK N   1      29.238  42.325  54.303  0.00  0.00     0.036 C 
HETATM    8  C   UNK N   1      25.192  42.511  52.474  0.00  0.00     0.055 C 
HETATM    9  C   UNK N   1      27.541  41.491  50.879  0.00  0.00     0.093 C 
HETATM   10  C   UNK N   1      29.052  41.683  52.902  0.00  0.00     0.013 C 
HETATM   11  C   UNK N   1      25.541  41.887  55.318  0.00  0.00     0.049 C 
HETATM   12  C   UNK N   1      27.138  44.055  52.467  0.00  0.00     0.019 C 
HETATM   13  C   UNK N   1      27.078  40.045  52.830  0.00  0.00     0.016 C 
HETATM   14  C   UNK N   1      25.141  42.440  50.943  0.00  0.00    -0.010 C 
HETATM   15  C   UNK N   1      24.264  43.171  50.174  0.00  0.00    -0.078 C 
HETATM   16  C   UNK N   1      23.183  44.064  50.752  0.00  0.00     0.043 C 
HETATM   17  C   UNK N   1      24.334  43.178  48.659  0.00  0.00     0.043 C 
ENDROOT
BRANCH   3  18
HETATM   18  O   UNK N   1      28.277  42.583  56.473  0.00  0.00    -0.311 OA
BRANCH  18  19
HETATM   19  C   UNK N   1      29.178  42.113  57.372  0.00  0.00     0.296 C 
HETATM   20  O   UNK N   1      29.250  40.918  57.621  0.00  0.00    -0.262 OA
BRANCH  19  21
HETATM   21  C   UNK N   1      30.068  43.118  58.074  0.00  0.00     0.167 C 
HETATM   22  C   UNK N   1      29.679  44.566  57.685  0.00  0.00     0.060 C 
BRANCH  21  23
HETATM   23  O   UNK N   1      29.856  42.940  59.456  0.00  0.00    -0.377 OA
HETATM   24  H   UNK N   1      30.548  42.319  59.805  0.00  0.00     0.211 HD
ENDBRANCH  21  23
BRANCH  21  25
HETATM   25  C   UNK N   1      31.561  42.795  57.737  0.00  0.00     0.171 C 
HETATM   26  C   UNK N   1      31.947  43.066  56.277  0.00  0.00     0.044 C 
BRANCH  25  27
HETATM   27  O   UNK N   1      32.399  43.535  58.559  0.00  0.00    -0.313 OA
BRANCH  27  28
HETATM   28  C   UNK N   1      33.490  43.043  59.205  0.00  0.00     0.255 C 
HETATM   29  O   UNK N   1      34.623  43.293  58.814  0.00  0.00    -0.266 OA
HETATM   30  C   UNK N   1      33.296  42.188  60.413  0.00  0.00     0.126 C 
ENDBRANCH  27  28
ENDBRANCH  25  27
ENDBRANCH  21  25
ENDBRANCH  19  21
ENDBRANCH  18  19
ENDBRANCH   3  18
BRANCH   2  31
HETATM   31  O   UNK N   1      26.591  44.024  55.052  0.00  0.00    -0.387 OA
HETATM   32  H   UNK N   1      26.623  44.085  56.042  0.00  0.00     0.210 HD
ENDBRANCH   2  31
TORSDOF 8
ENDMDL
MODEL 2
REMARK VINA RESULT:      -5.2      2.281      8.137
REMARK  8 active torsions:
REMARK  status: ('A' for Active; 'I' for Inactive)
REMARK    1  A    between atoms: O_1  and  C_10 
REMARK    2  A    between atoms: O_1  and  C_14 
REMARK    3  A    between atoms: O_2  and  C_11 
REMARK    4  A    between atoms: O_2  and  C_15 
REMARK    5  A    between atoms: O_3  and  C_8 
REMARK    6  A    between atoms: O_4  and  C_9 
REMARK    7  A    between atoms: C_9  and  C_11 
REMARK    8  A    between atoms: C_9  and  C_14 
ROOT
HETATM    1  O   UNK N   1      29.590  39.495  57.649  0.00  0.00    -0.293 OA
HETATM    2  C   UNK N   1      27.900  42.340  53.097  0.00  0.00     0.089 C 
HETATM    3  C   UNK N   1      26.809  41.500  52.316  0.00  0.00     0.166 C 
HETATM    4  C   UNK N   1      28.028  41.905  54.658  0.00  0.00     0.001 C 
HETATM    5  C   UNK N   1      27.582  40.386  54.861  0.00  0.00    -0.027 C 
HETATM    6  C   UNK N   1      29.012  40.318  56.953  0.00  0.00     0.156 C 
HETATM    7  C   UNK N   1      25.640  41.104  53.209  0.00  0.00     0.036 C 
HETATM    8  C   UNK N   1      29.479  42.108  55.208  0.00  0.00     0.055 C 
HETATM    9  C   UNK N   1      27.671  39.985  56.359  0.00  0.00     0.093 C 
HETATM   10  C   UNK N   1      26.090  40.207  54.393  0.00  0.00     0.013 C 
HETATM   11  C   UNK N   1      29.226  42.193  52.289  0.00  0.00     0.049 C 
HETATM   12  C   UNK N   1      27.137  42.867  55.538  0.00  0.00     0.019 C 
HETATM   13  C   UNK N   1      28.493  39.352  54.116  0.00  0.00     0.016 C 
HETATM   14  C   UNK N   1      29.620  41.650  56.665  0.00  0.00    -0.010 C 
HETATM   15  C   UNK N   1      30.242  42.393  57.642  0.00  0.00    -0.078 C 
HETATM   16  C   UNK N   1      30.943  43.711  57.376  0.00  0.00     0.043 C 
HETATM   17  C   UNK N   1      30.243  41.969  59.099  0.00  0.00     0.043 C 
ENDROOT
BRANCH   3  18
HETATM   18  O   UNK N   1      26.364  42.235  51.235  0.00  0.00    -0.311 OA
BRANCH  18  19
HETATM   19  C   UNK N   1      25.706  41.739  50.157  0.00  0.00     0.296 C 
HETATM   20  O   UNK N   1      26.184  40.827  49.498  0.00  0.00    -0.262 OA
BRANCH  19  21
HETATM   21  C   UNK N   1      24.380  42.369  49.783  0.00  0.00     0.167 C 
HETATM   22  C   UNK N   1      24.121  42.246  48.261  0.00  0.00     0.060 C 
BRANCH  21  23
HETATM   23  O   UNK N   1      23.388  41.649  50.478  0.00  0.00    -0.377 OA
HETATM   24  H   UNK N   1      22.730  41.302  49.821  0.00  0.00     0.211 HD
ENDBRANCH  21  23
BRANCH  21  25
HETATM   25  C   UNK N   1      24.372  43.855  50.268  0.00  0.00     0.171 C 
HETATM   26  C   UNK N   1      23.931  44.862  49.197  0.00  0.00     0.044 C 
BRANCH  25  27
HETATM   27  O   UNK N   1      23.534  43.986  51.367  0.00  0.00    -0.313 OA
BRANCH  27  28
HETATM   28  C   UNK N   1      23.938  44.332  52.618  0.00  0.00     0.255 C 
HETATM   29  O   UNK N   1      24.998  44.916  52.802  0.00  0.00    -0.266 OA
HETATM   30  C   UNK N   1      23.067  43.995  53.783  0.00  0.00     0.126 C 
ENDBRANCH  27  28
ENDBRANCH  25  27
ENDBRANCH  21  25
ENDBRANCH  19  21
ENDBRANCH  18  19
ENDBRANCH   3  18
BRANCH   2  31
HETATM   31  O   UNK N   1      27.546  43.713  53.068  0.00  0.00    -0.387 OA
HETATM   32  H   UNK N   1      27.089  43.967  53.911  0.00  0.00     0.210 HD
ENDBRANCH   2  31
TORSDOF 8
ENDMDL
MODEL 3
REMARK VINA RESULT:      -5.1      1.971      8.807
REMARK  8 active torsions:
REMARK  status: ('A' for Active; 'I' for Inactive)
REMARK    1  A    between atoms: O_1  and  C_10 
REMARK    2  A    between atoms: O_1  and  C_14 
REMARK    3  A    between atoms: O_2  and  C_11 
REMARK    4  A    between atoms: O_2  and  C_15 
REMARK    5  A    between atoms: O_3  and  C_8 
REMARK    6  A    between atoms: O_4  and  C_9 
REMARK    7  A    between atoms: C_9  and  C_11 
REMARK    8  A    between atoms: C_9  and  C_14 
ROOT
HETATM    1  O   UNK N   1      30.921  40.865  59.193  0.00  0.00    -0.293 OA
HETATM    2  C   UNK N   1      28.104  42.124  54.488  0.00  0.00     0.089 C 
HETATM    3  C   UNK N   1      27.031  40.999  54.189  0.00  0.00     0.166 C 
HETATM    4  C   UNK N   1      28.551  42.166  56.049  0.00  0.00     0.001 C 
HETATM    5  C   UNK N   1      28.370  40.733  56.729  0.00  0.00    -0.027 C 
HETATM    6  C   UNK N   1      30.123  41.397  58.436  0.00  0.00     0.156 C 
HETATM    7  C   UNK N   1      26.097  40.768  55.369  0.00  0.00     0.036 C 
HETATM    8  C   UNK N   1      30.029  42.651  56.225  0.00  0.00     0.055 C 
HETATM    9  C   UNK N   1      28.764  40.786  58.231  0.00  0.00     0.093 C 
HETATM   10  C   UNK N   1      26.862  40.291  56.633  0.00  0.00     0.013 C 
HETATM   11  C   UNK N   1      29.283  41.876  53.498  0.00  0.00     0.049 C 
HETATM   12  C   UNK N   1      27.689  43.252  56.806  0.00  0.00     0.019 C 
HETATM   13  C   UNK N   1      29.284  39.619  56.115  0.00  0.00     0.016 C 
HETATM   14  C   UNK N   1      30.475  42.642  57.692  0.00  0.00    -0.010 C 
HETATM   15  C   UNK N   1      31.137  43.688  58.295  0.00  0.00    -0.078 C 
HETATM   16  C   UNK N   1      31.586  44.935  57.558  0.00  0.00     0.043 C 
HETATM   17  C   UNK N   1      31.442  43.699  59.781  0.00  0.00     0.043 C 
ENDROOT
BRANCH   3  18
HETATM   18  O   UNK N   1      26.310  41.351  53.064  0.00  0.00    -0.311 OA
BRANCH  18  19
HETATM   19  C   UNK N   1      26.290  40.668  51.892  0.00  0.00     0.296 C 
HETATM   20  O   UNK N   1      26.205  39.448  51.880  0.00  0.00    -0.262 OA
BRANCH  19  21
HETATM   21  C   UNK N   1      26.404  41.461  50.607  0.00  0.00     0.167 C 
HETATM   22  C   UNK N   1      26.507  42.978  50.902  0.00  0.00     0.060 C 
BRANCH  21  23
HETATM   23  O   UNK N   1      27.590  41.033  49.979  0.00  0.00    -0.377 OA
HETATM   24  H   UNK N   1      27.602  40.041  49.966  0.00  0.00     0.211 HD
ENDBRANCH  21  23
BRANCH  21  25
HETATM   25  C   UNK N   1      25.185  41.117  49.690  0.00  0.00     0.171 C 
HETATM   26  C   UNK N   1      23.820  41.413  50.325  0.00  0.00     0.044 C 
BRANCH  25  27
HETATM   27  O   UNK N   1      25.279  41.823  48.499  0.00  0.00    -0.313 OA
BRANCH  27  28
HETATM   28  C   UNK N   1      25.108  41.288  47.260  0.00  0.00     0.255 C 
HETATM   29  O   UNK N   1      26.061  40.870  46.615  0.00  0.00    -0.266 OA
HETATM   30  C   UNK N   1      23.733  41.208  46.684  0.00  0.00     0.126 C 
ENDBRANCH  27  28
ENDBRANCH  25  27
ENDBRANCH  21  25
ENDBRANCH  19  21
ENDBRANCH  18  19
ENDBRANCH   3  18
BRANCH   2  31
HETATM   31  O   UNK N   1      27.555  43.393  54.171  0.00  0.00    -0.387 OA
HETATM   32  H   UNK N   1      27.145  43.801  54.977  0.00  0.00     0.210 HD
ENDBRANCH   2  31
TORSDOF 8
ENDMDL
MODEL 4
REMARK VINA RESULT:      -5.1      4.691      9.021
REMARK  8 active torsions:
REMARK  status: ('A' for Active; 'I' for Inactive)
REMARK    1  A    between atoms: O_1  and  C_10 
REMARK    2  A    between atoms: O_1  and  C_14 
REMARK    3  A    between atoms: O_2  and  C_11 
REMARK    4  A    between atoms: O_2  and  C_15 
REMARK    5  A    between atoms: O_3  and  C_8 
REMARK    6  A    between atoms: O_4  and  C_9 
REMARK    7  A    between atoms: C_9  and  C_11 
REMARK    8  A    between atoms: C_9  and  C_14 
ROOT
HETATM    1  O   UNK N   1      28.165  34.325  58.519  0.00  0.00    -0.293 OA
HETATM    2  C   UNK N   1      27.875  37.212  53.697  0.00  0.00     0.089 C 
HETATM    3  C   UNK N   1      27.892  38.765  54.002  0.00  0.00     0.166 C 
HETATM    4  C   UNK N   1      28.509  36.329  54.904  0.00  0.00     0.001 C 
HETATM    5  C   UNK N   1      28.362  37.089  56.300  0.00  0.00    -0.027 C 
HETATM    6  C   UNK N   1      28.501  34.840  57.462  0.00  0.00     0.156 C 
HETATM    7  C   UNK N   1      29.096  39.173  54.840  0.00  0.00     0.036 C 
HETATM    8  C   UNK N   1      27.854  34.910  55.003  0.00  0.00     0.055 C 
HETATM    9  C   UNK N   1      29.002  36.258  57.446  0.00  0.00     0.093 C 
HETATM   10  C   UNK N   1      29.104  38.475  56.226  0.00  0.00     0.013 C 
HETATM   11  C   UNK N   1      26.396  36.850  53.357  0.00  0.00     0.049 C 
HETATM   12  C   UNK N   1      30.029  36.037  54.590  0.00  0.00     0.019 C 
HETATM   13  C   UNK N   1      26.878  37.311  56.748  0.00  0.00     0.016 C 
HETATM   14  C   UNK N   1      28.410  34.091  56.174  0.00  0.00    -0.010 C 
HETATM   15  C   UNK N   1      28.808  32.778  56.066  0.00  0.00    -0.078 C 
HETATM   16  C   UNK N   1      28.657  31.956  54.801  0.00  0.00     0.043 C 
HETATM   17  C   UNK N   1      29.479  32.042  57.211  0.00  0.00     0.043 C 
ENDROOT
BRANCH   3  18
HETATM   18  O   UNK N   1      27.877  39.458  52.807  0.00  0.00    -0.311 OA
BRANCH  18  19
HETATM   19  C   UNK N   1      27.050  40.489  52.500  0.00  0.00     0.296 C 
HETATM   20  O   UNK N   1      25.881  40.481  52.858  0.00  0.00    -0.262 OA
BRANCH  19  21
HETATM   21  C   UNK N   1      27.614  41.631  51.679  0.00  0.00     0.167 C 
HETATM   22  C   UNK N   1      28.947  42.138  52.283  0.00  0.00     0.060 C 
BRANCH  21  23
HETATM   23  O   UNK N   1      27.860  41.112  50.393  0.00  0.00    -0.377 OA
HETATM   24  H   UNK N   1      27.038  40.657  50.072  0.00  0.00     0.211 HD
ENDBRANCH  21  23
BRANCH  21  25
HETATM   25  C   UNK N   1      26.539  42.762  51.581  0.00  0.00     0.171 C 
HETATM   26  C   UNK N   1      26.839  43.989  52.451  0.00  0.00     0.044 C 
BRANCH  25  27
HETATM   27  O   UNK N   1      26.414  43.178  50.262  0.00  0.00    -0.313 OA
BRANCH  27  28
HETATM   28  C   UNK N   1      25.343  42.925  49.464  0.00  0.00     0.255 C 
HETATM   29  O   UNK N   1      25.171  41.820  48.966  0.00  0.00    -0.266 OA
HETATM   30  C   UNK N   1      24.360  44.017  49.197  0.00  0.00     0.126 C 
ENDBRANCH  27  28
ENDBRANCH  25  27
ENDBRANCH  21  25
ENDBRANCH  19  21
ENDBRANCH  18  19
ENDBRANCH   3  18
BRANCH   2  31
HETATM   31  O   UNK N   1      28.644  36.953  52.534  0.00  0.00    -0.387 OA
HETATM   32  H   UNK N   1      29.445  37.538  52.514  0.00  0.00     0.210 HD
ENDBRANCH   2  31
TORSDOF 8
ENDMDL
MODEL 5
REMARK VINA RESULT:      -5.0      3.283      5.802
REMARK  8 active torsions:
REMARK  status: ('A' for Active; 'I' for Inactive)
REMARK    1  A    between atoms: O_1  and  C_10 
REMARK    2  A    between atoms: O_1  and  C_14 
REMARK    3  A    between atoms: O_2  and  C_11 
REMARK    4  A    between atoms: O_2  and  C_15 
REMARK    5  A    between atoms: O_3  and  C_8 
REMARK    6  A    between atoms: O_4  and  C_9 
REMARK    7  A    between atoms: C_9  and  C_11 
REMARK    8  A    between atoms: C_9  and  C_14 
ROOT
HETATM    1  O   UNK N   1      27.374  39.075  52.681  0.00  0.00    -0.293 OA
HETATM    2  C   UNK N   1      29.848  42.057  56.762  0.00  0.00     0.089 C 
HETATM    3  C   UNK N   1      29.092  43.435  56.950  0.00  0.00     0.166 C 
HETATM    4  C   UNK N   1      28.921  40.925  56.055  0.00  0.00     0.001 C 
HETATM    5  C   UNK N   1      27.803  41.602  55.137  0.00  0.00    -0.027 C 
HETATM    6  C   UNK N   1      27.700  39.451  53.797  0.00  0.00     0.156 C 
HETATM    7  C   UNK N   1      27.603  43.245  57.204  0.00  0.00     0.036 C 
HETATM    8  C   UNK N   1      29.767  39.920  55.203  0.00  0.00     0.055 C 
HETATM    9  C   UNK N   1      26.897  40.518  54.491  0.00  0.00     0.093 C 
HETATM   10  C   UNK N   1      26.895  42.539  56.017  0.00  0.00     0.013 C 
HETATM   11  C   UNK N   1      31.159  42.380  55.982  0.00  0.00     0.049 C 
HETATM   12  C   UNK N   1      28.254  40.029  57.170  0.00  0.00     0.019 C 
HETATM   13  C   UNK N   1      28.380  42.413  53.928  0.00  0.00     0.016 C 
HETATM   14  C   UNK N   1      28.894  38.882  54.488  0.00  0.00    -0.010 C 
HETATM   15  C   UNK N   1      29.164  37.532  54.480  0.00  0.00    -0.078 C 
HETATM   16  C   UNK N   1      30.407  36.922  55.098  0.00  0.00     0.043 C 
HETATM   17  C   UNK N   1      28.206  36.522  53.879  0.00  0.00     0.043 C 
ENDROOT
BRANCH   3  18
HETATM   18  O   UNK N   1      29.676  44.130  57.992  0.00  0.00    -0.311 OA
BRANCH  18  19
HETATM   19  C   UNK N   1      30.079  45.425  57.953  0.00  0.00     0.296 C 
HETATM   20  O   UNK N   1      31.094  45.746  57.350  0.00  0.00    -0.262 OA
BRANCH  19  21
HETATM   21  C   UNK N   1      29.250  46.449  58.699  0.00  0.00     0.167 C 
HETATM   22  C   UNK N   1      28.398  45.771  59.801  0.00  0.00     0.060 C 
BRANCH  21  23
HETATM   23  O   UNK N   1      30.163  47.335  59.304  0.00  0.00    -0.377 OA
HETATM   24  H   UNK N   1      30.336  47.028  60.232  0.00  0.00     0.211 HD
ENDBRANCH  21  23
BRANCH  21  25
HETATM   25  C   UNK N   1      28.372  47.236  57.672  0.00  0.00     0.171 C 
HETATM   26  C   UNK N   1      26.862  47.047  57.863  0.00  0.00     0.044 C 
BRANCH  25  27
HETATM   27  O   UNK N   1      28.660  48.592  57.751  0.00  0.00    -0.313 OA
BRANCH  27  28
HETATM   28  C   UNK N   1      29.369  49.293  56.826  0.00  0.00     0.255 C 
HETATM   29  O   UNK N   1      30.567  49.097  56.666  0.00  0.00    -0.266 OA
HETATM   30  C   UNK N   1      28.669  50.315  55.993  0.00  0.00     0.126 C 
ENDBRANCH  27  28
ENDBRANCH  25  27
ENDBRANCH  21  25
ENDBRANCH  19  21
ENDBRANCH  18  19
ENDBRANCH   3  18
BRANCH   2  31
HETATM   31  O   UNK N   1      30.232  41.555  58.031  0.00  0.00    -0.387 OA
HETATM   32  H   UNK N   1      31.043  42.027  58.356  0.00  0.00     0.210 HD
ENDBRANCH   2  31
TORSDOF 8
ENDMDL
MODEL 6
REMARK VINA RESULT:      -5.0      2.202      8.644
REMARK  8 active torsions:
REMARK  status: ('A' for Active; 'I' for Inactive)
REMARK    1  A    between atoms: O_1  and  C_10 
REMARK    2  A    between atoms: O_1  and  C_14 
REMARK    3  A    between atoms: O_2  and  C_11 
REMARK    4  A    between atoms: O_2  and  C_15 
REMARK    5  A    between atoms: O_3  and  C_8 
REMARK    6  A    between atoms: O_4  and  C_9 
REMARK    7  A    between atoms: C_9  and  C_11 
REMARK    8  A    between atoms: C_9  and  C_14 
ROOT
HETATM    1  O   UNK N   1      30.840  39.445  60.427  0.00  0.00    -0.293 OA
HETATM    2  C   UNK N   1      28.808  41.626  55.654  0.00  0.00     0.089 C 
HETATM    3  C   UNK N   1      27.767  40.623  55.009  0.00  0.00     0.166 C 
HETATM    4  C   UNK N   1      29.012  41.379  57.247  0.00  0.00     0.001 C 
HETATM    5  C   UNK N   1      28.694  39.862  57.631  0.00  0.00    -0.027 C 
HETATM    6  C   UNK N   1      30.181  40.138  59.666  0.00  0.00     0.156 C 
HETATM    7  C   UNK N   1      26.658  40.242  55.980  0.00  0.00     0.036 C 
HETATM    8  C   UNK N   1      30.457  41.752  57.721  0.00  0.00     0.055 C 
HETATM    9  C   UNK N   1      28.854  39.640  59.160  0.00  0.00     0.093 C 
HETATM   10  C   UNK N   1      27.209  39.520  57.239  0.00  0.00     0.013 C 
HETATM   11  C   UNK N   1      30.119  41.490  54.820  0.00  0.00     0.049 C 
HETATM   12  C   UNK N   1      28.071  42.363  58.048  0.00  0.00     0.019 C 
HETATM   13  C   UNK N   1      29.664  38.825  56.971  0.00  0.00     0.016 C 
HETATM   14  C   UNK N   1      30.673  41.472  59.212  0.00  0.00    -0.010 C 
HETATM   15  C   UNK N   1      31.260  42.365  60.080  0.00  0.00    -0.078 C 
HETATM   16  C   UNK N   1      31.846  43.694  59.647  0.00  0.00     0.043 C 
HETATM   17  C   UNK N   1      31.333  42.108  61.573  0.00  0.00     0.043 C 
ENDROOT
BRANCH   3  18
HETATM   18  O   UNK N   1      27.236  41.197  53.870  0.00  0.00    -0.311 OA
BRANCH  18  19
HETATM   19  C   UNK N   1      27.410  40.746  52.602  0.00  0.00     0.296 C 
HETATM   20  O   UNK N   1      27.409  39.548  52.358  0.00  0.00    -0.262 OA
BRANCH  19  21
HETATM   21  C   UNK N   1      27.633  41.771  51.509  0.00  0.00     0.167 C 
HETATM   22  C   UNK N   1      28.975  42.517  51.718  0.00  0.00     0.060 C 
BRANCH  21  23
HETATM   23  O   UNK N   1      27.689  41.054  50.297  0.00  0.00    -0.377 OA
HETATM   24  H   UNK N   1      28.547  40.556  50.263  0.00  0.00     0.211 HD
ENDBRANCH  21  23
BRANCH  21  25
HETATM   25  C   UNK N   1      26.412  42.747  51.472  0.00  0.00     0.171 C 
HETATM   26  C   UNK N   1      26.586  44.001  52.339  0.00  0.00     0.044 C 
BRANCH  25  27
HETATM   27  O   UNK N   1      26.168  43.145  50.166  0.00  0.00    -0.313 OA
BRANCH  27  28
HETATM   28  C   UNK N   1      24.953  43.115  49.556  0.00  0.00     0.255 C 
HETATM   29  O   UNK N   1      24.418  42.053  49.262  0.00  0.00    -0.266 OA
HETATM   30  C   UNK N   1      24.261  44.401  49.246  0.00  0.00     0.126 C 
ENDBRANCH  27  28
ENDBRANCH  25  27
ENDBRANCH  21  25
ENDBRANCH  19  21
ENDBRANCH  18  19
ENDBRANCH   3  18
BRANCH   2  31
HETATM   31  O   UNK N   1      28.346  42.956  55.488  0.00  0.00    -0.387 OA
HETATM   32  H   UNK N   1      27.410  42.955  55.155  0.00  0.00     0.210 HD
ENDBRANCH   2  31
TORSDOF 8
ENDMDL
MODEL 7
REMARK VINA RESULT:      -4.9      2.617      8.682
REMARK  8 active torsions:
REMARK  status: ('A' for Active; 'I' for Inactive)
REMARK    1  A    between atoms: O_1  and  C_10 
REMARK    2  A    between atoms: O_1  and  C_14 
REMARK    3  A    between atoms: O_2  and  C_11 
REMARK    4  A    between atoms: O_2  and  C_15 
REMARK    5  A    between atoms: O_3  and  C_8 
REMARK    6  A    between atoms: O_4  and  C_9 
REMARK    7  A    between atoms: C_9  and  C_11 
REMARK    8  A    between atoms: C_9  and  C_14 
ROOT
HETATM    1  O   UNK N   1      32.067  42.695  62.995  0.00  0.00    -0.293 OA
HETATM    2  C   UNK N   1      30.353  43.787  57.747  0.00  0.00     0.089 C 
HETATM    3  C   UNK N   1      30.408  42.463  56.880  0.00  0.00     0.166 C 
HETATM    4  C   UNK N   1      30.271  43.489  59.342  0.00  0.00     0.001 C 
HETATM    5  C   UNK N   1      30.930  42.077  59.689  0.00  0.00    -0.027 C 
HETATM    6  C   UNK N   1      31.328  42.920  62.047  0.00  0.00     0.156 C 
HETATM    7  C   UNK N   1      29.618  41.327  57.515  0.00  0.00     0.036 C 
HETATM    8  C   UNK N   1      30.956  44.614  60.187  0.00  0.00     0.055 C 
HETATM    9  C   UNK N   1      30.817  41.780  61.210  0.00  0.00     0.093 C 
HETATM   10  C   UNK N   1      30.176  40.937  58.909  0.00  0.00     0.013 C 
HETATM   11  C   UNK N   1      31.590  44.637  57.325  0.00  0.00     0.049 C 
HETATM   12  C   UNK N   1      28.759  43.522  59.798  0.00  0.00     0.019 C 
HETATM   13  C   UNK N   1      32.464  42.000  59.380  0.00  0.00     0.016 C 
HETATM   14  C   UNK N   1      30.930  44.313  61.691  0.00  0.00    -0.010 C 
HETATM   15  C   UNK N   1      30.563  45.233  62.647  0.00  0.00    -0.078 C 
HETATM   16  C   UNK N   1      30.230  46.680  62.337  0.00  0.00     0.043 C 
HETATM   17  C   UNK N   1      30.418  44.859  64.110  0.00  0.00     0.043 C 
ENDROOT
BRANCH   3  18
HETATM   18  O   UNK N   1      29.931  42.735  55.613  0.00  0.00    -0.311 OA
BRANCH  18  19
HETATM   19  C   UNK N   1      30.101  41.952  54.518  0.00  0.00     0.296 C 
HETATM   20  O   UNK N   1      31.182  41.430  54.284  0.00  0.00    -0.262 OA
BRANCH  19  21
HETATM   21  C   UNK N   1      28.921  41.769  53.586  0.00  0.00     0.167 C 
HETATM   22  C   UNK N   1      29.317  42.094  52.125  0.00  0.00     0.060 C 
BRANCH  21  23
HETATM   23  O   UNK N   1      28.552  40.412  53.672  0.00  0.00    -0.377 OA
HETATM   24  H   UNK N   1      28.719  40.097  54.599  0.00  0.00     0.211 HD
ENDBRANCH  21  23
BRANCH  21  25
HETATM   25  C   UNK N   1      27.736  42.656  54.091  0.00  0.00     0.171 C 
HETATM   26  C   UNK N   1      26.972  43.376  52.972  0.00  0.00     0.044 C 
BRANCH  25  27
HETATM   27  O   UNK N   1      26.837  41.877  54.807  0.00  0.00    -0.313 OA
BRANCH  27  28
HETATM   28  C   UNK N   1      26.472  42.097  56.098  0.00  0.00     0.255 C 
HETATM   29  O   UNK N   1      26.659  43.182  56.633  0.00  0.00    -0.266 OA
HETATM   30  C   UNK N   1      25.828  40.993  56.870  0.00  0.00     0.126 C 
ENDBRANCH  27  28
ENDBRANCH  25  27
ENDBRANCH  21  25
ENDBRANCH  19  21
ENDBRANCH  18  19
ENDBRANCH   3  18
BRANCH   2  31
HETATM   31  O   UNK N   1      29.198  44.530  57.396  0.00  0.00    -0.387 OA
HETATM   32  H   UNK N   1      29.449  45.455  57.139  0.00  0.00     0.210 HD
ENDBRANCH   2  31
TORSDOF 8
ENDMDL
MODEL 8
REMARK VINA RESULT:      -4.9      3.854      7.867
REMARK  8 active torsions:
REMARK  status: ('A' for Active; 'I' for Inactive)
REMARK    1  A    between atoms: O_1  and  C_10 
REMARK    2  A    between atoms: O_1  and  C_14 
REMARK    3  A    between atoms: O_2  and  C_11 
REMARK    4  A    between atoms: O_2  and  C_15 
REMARK    5  A    between atoms: O_3  and  C_8 
REMARK    6  A    between atoms: O_4  and  C_9 
REMARK    7  A    between atoms: C_9  and  C_11 
REMARK    8  A    between atoms: C_9  and  C_14 
ROOT
HETATM    1  O   UNK N   1      30.431  46.690  61.269  0.00  0.00    -0.293 OA
HETATM    2  C   UNK N   1      29.176  43.070  57.147  0.00  0.00     0.089 C 
HETATM    3  C   UNK N   1      28.772  41.671  57.769  0.00  0.00     0.166 C 
HETATM    4  C   UNK N   1      29.002  44.297  58.198  0.00  0.00     0.001 C 
HETATM    5  C   UNK N   1      29.140  43.778  59.702  0.00  0.00    -0.027 C 
HETATM    6  C   UNK N   1      29.810  46.129  60.378  0.00  0.00     0.156 C 
HETATM    7  C   UNK N   1      27.642  41.797  58.782  0.00  0.00     0.036 C 
HETATM    8  C   UNK N   1      30.034  45.445  57.939  0.00  0.00     0.055 C 
HETATM    9  C   UNK N   1      28.937  44.948  60.704  0.00  0.00     0.093 C 
HETATM   10  C   UNK N   1      28.038  42.691  59.987  0.00  0.00     0.013 C 
HETATM   11  C   UNK N   1      30.628  42.904  56.603  0.00  0.00     0.049 C 
HETATM   12  C   UNK N   1      27.595  44.977  57.973  0.00  0.00     0.019 C 
HETATM   13  C   UNK N   1      30.553  43.198  60.045  0.00  0.00     0.016 C 
HETATM   14  C   UNK N   1      29.912  46.582  58.960  0.00  0.00    -0.010 C 
HETATM   15  C   UNK N   1      29.885  47.916  58.619  0.00  0.00    -0.078 C 
HETATM   16  C   UNK N   1      30.067  48.423  57.201  0.00  0.00     0.043 C 
HETATM   17  C   UNK N   1      29.626  49.004  59.643  0.00  0.00     0.043 C 
ENDROOT
BRANCH   3  18
HETATM   18  O   UNK N   1      28.413  40.813  56.748  0.00  0.00    -0.311 OA
BRANCH  18  19
HETATM   19  C   UNK N   1      29.056  39.665  56.416  0.00  0.00     0.296 C 
HETATM   20  O   UNK N   1      29.497  38.922  57.282  0.00  0.00    -0.262 OA
BRANCH  19  21
HETATM   21  C   UNK N   1      29.233  39.350  54.945  0.00  0.00     0.167 C 
HETATM   22  C   UNK N   1      28.407  40.325  54.070  0.00  0.00     0.060 C 
BRANCH  21  23
HETATM   23  O   UNK N   1      30.602  39.527  54.663  0.00  0.00    -0.377 OA
HETATM   24  H   UNK N   1      30.948  38.699  54.239  0.00  0.00     0.211 HD
ENDBRANCH  21  23
BRANCH  21  25
HETATM   25  C   UNK N   1      28.846  37.856  54.697  0.00  0.00     0.171 C 
HETATM   26  C   UNK N   1      27.892  37.644  53.514  0.00  0.00     0.044 C 
BRANCH  25  27
HETATM   27  O   UNK N   1      29.992  37.104  54.478  0.00  0.00    -0.313 OA
BRANCH  27  28
HETATM   28  C   UNK N   1      30.375  36.034  55.225  0.00  0.00     0.255 C 
HETATM   29  O   UNK N   1      31.549  35.694  55.288  0.00  0.00    -0.266 OA
HETATM   30  C   UNK N   1      29.341  35.266  55.981  0.00  0.00     0.126 C 
ENDBRANCH  27  28
ENDBRANCH  25  27
ENDBRANCH  21  25
ENDBRANCH  19  21
ENDBRANCH  18  19
ENDBRANCH   3  18
BRANCH   2  31
HETATM   31  O   UNK N   1      28.344  43.347  56.033  0.00  0.00    -0.387 OA
HETATM   32  H   UNK N   1      28.573  42.748  55.275  0.00  0.00     0.210 HD
ENDBRANCH   2  31
TORSDOF 8
ENDMDL
MODEL 9
REMARK VINA RESULT:      -4.9      3.650      7.863
REMARK  8 active torsions:
REMARK  status: ('A' for Active; 'I' for Inactive)
REMARK    1  A    between atoms: O_1  and  C_10 
REMARK    2  A    between atoms: O_1  and  C_14 
REMARK    3  A    between atoms: O_2  and  C_11 
REMARK    4  A    between atoms: O_2  and  C_15 
REMARK    5  A    between atoms: O_3  and  C_8 
REMARK    6  A    between atoms: O_4  and  C_9 
REMARK    7  A    between atoms: C_9  and  C_11 
REMARK    8  A    between atoms: C_9  and  C_14 
ROOT
HETATM    1  O   UNK N   1      29.505  49.620  60.600  0.00  0.00    -0.293 OA
HETATM    2  C   UNK N   1      30.063  44.569  58.182  0.00  0.00     0.089 C 
HETATM    3  C   UNK N   1      29.751  43.433  59.239  0.00  0.00     0.166 C 
HETATM    4  C   UNK N   1      29.402  45.998  58.583  0.00  0.00     0.001 C 
HETATM    5  C   UNK N   1      29.210  46.109  60.164  0.00  0.00    -0.027 C 
HETATM    6  C   UNK N   1      29.257  48.633  59.923  0.00  0.00     0.156 C 
HETATM    7  C   UNK N   1      28.383  43.609  59.884  0.00  0.00     0.036 C 
HETATM    8  C   UNK N   1      30.253  47.207  58.068  0.00  0.00     0.055 C 
HETATM    9  C   UNK N   1      28.543  47.461  60.540  0.00  0.00     0.093 C 
HETATM   10  C   UNK N   1      28.275  44.946  60.665  0.00  0.00     0.013 C 
HETATM   11  C   UNK N   1      31.615  44.611  58.031  0.00  0.00     0.049 C 
HETATM   12  C   UNK N   1      28.014  46.152  57.844  0.00  0.00     0.019 C 
HETATM   13  C   UNK N   1      30.553  46.088  60.969  0.00  0.00     0.016 C 
HETATM   14  C   UNK N   1      29.663  48.558  58.489  0.00  0.00    -0.010 C 
HETATM   15  C   UNK N   1      29.502  49.622  57.630  0.00  0.00    -0.078 C 
HETATM   16  C   UNK N   1      29.975  49.617  56.189  0.00  0.00     0.043 C 
HETATM   17  C   UNK N   1      28.791  50.894  58.048  0.00  0.00     0.043 C 
ENDROOT
BRANCH   3  18
HETATM   18  O   UNK N   1      29.837  42.203  58.615  0.00  0.00    -0.311 OA
BRANCH  18  19
HETATM   19  C   UNK N   1      28.879  41.242  58.625  0.00  0.00     0.296 C 
HETATM   20  O   UNK N   1      28.605  40.643  59.656  0.00  0.00    -0.262 OA
BRANCH  19  21
HETATM   21  C   UNK N   1      28.185  40.918  57.319  0.00  0.00     0.167 C 
HETATM   22  C   UNK N   1      27.197  39.738  57.496  0.00  0.00     0.060 C 
BRANCH  21  23
HETATM   23  O   UNK N   1      27.463  42.072  56.956  0.00  0.00    -0.377 OA
HETATM   24  H   UNK N   1      26.663  41.796  56.436  0.00  0.00     0.211 HD
ENDBRANCH  21  23
BRANCH  21  25
HETATM   25  C   UNK N   1      29.267  40.626  56.229  0.00  0.00     0.171 C 
HETATM   26  C   UNK N   1      28.996  39.365  55.398  0.00  0.00     0.044 C 
BRANCH  25  27
HETATM   27  O   UNK N   1      29.370  41.708  55.366  0.00  0.00    -0.313 OA
BRANCH  27  28
HETATM   28  C   UNK N   1      30.184  41.763  54.279  0.00  0.00     0.255 C 
HETATM   29  O   UNK N   1      31.390  41.582  54.381  0.00  0.00    -0.266 OA
HETATM   30  C   UNK N   1      29.590  42.046  52.938  0.00  0.00     0.126 C 
ENDBRANCH  27  28
ENDBRANCH  25  27
ENDBRANCH  21  25
ENDBRANCH  19  21
ENDBRANCH  18  19
ENDBRANCH   3  18
BRANCH   2  31
HETATM   31  O   UNK N   1      29.533  44.197  56.920  0.00  0.00    -0.387 OA
HETATM   32  H   UNK N   1      30.220  43.721  56.386  0.00  0.00     0.210 HD
ENDBRANCH   2  31
TORSDOF 8
ENDMDL
