MODEL 1
REMARK VINA RESULT:      -8.4      0.000      0.000
REMARK  4 active torsions:
REMARK  status: ('A' for Active; 'I' for Inactive)
REMARK    1  A    between atoms: O_1  and  C_11 
REMARK    2  A    between atoms: O_1  and  C_13 
REMARK    3  A    between atoms: C_5  and  C_13 
REMARK    4  A    between atoms: C_22  and  C_27 
ROOT
HETATM    1  O   UNK N   1      43.136  46.450  50.572  0.00  0.00    -0.283 OA
HETATM    2  O   UNK N   1      42.798  45.591  53.103  0.00  0.00    -0.283 OA
HETATM    3  C   UNK N   1      40.283  46.912  45.986  0.00  0.00     0.145 C 
HETATM    4  C   UNK N   1      40.801  44.785  47.291  0.00  0.00     0.011 C 
HETATM    5  C   UNK N   1      42.224  45.682  50.840  0.00  0.00     0.233 A 
HETATM    6  C   UNK N   1      42.048  45.200  52.220  0.00  0.00     0.229 A 
HETATM    7  C   UNK N   1      40.809  45.461  45.832  0.00  0.00    -0.006 C 
HETATM    8  C   UNK N   1      41.271  45.748  48.396  0.00  0.00    -0.034 C 
HETATM    9  C   UNK N   1      39.452  44.255  47.780  0.00  0.00    -0.011 C 
HETATM   10  C   UNK N   1      41.228  47.742  46.874  0.00  0.00     0.061 C 
HETATM   11  C   UNK N   1      41.739  43.536  47.289  0.00  0.00     0.025 C 
HETATM   12  C   UNK N   1      41.290  45.202  49.787  0.00  0.00     0.035 A 
HETATM   13  C   UNK N   1      40.977  44.209  52.511  0.00  0.00     0.000 A 
HETATM   14  C   UNK N   1      40.321  44.301  50.109  0.00  0.00    -0.021 A 
HETATM   15  C   UNK N   1      41.513  47.063  48.181  0.00  0.00    -0.015 C 
HETATM   16  C   UNK N   1      39.285  43.940  49.086  0.00  0.00     0.009 C 
HETATM   17  C   UNK N   1      40.182  43.780  51.500  0.00  0.00     0.024 A 
HETATM   18  C   UNK N   1      39.919  44.691  44.815  0.00  0.00     0.019 C 
HETATM   19  C   UNK N   1      42.237  45.504  45.201  0.00  0.00     0.019 C 
ENDROOT
BRANCH   3  20
HETATM   20  O   UNK N   1      40.177  47.544  44.757  0.00  0.00    -0.311 OA
BRANCH  20  21
HETATM   21  C   UNK N   1      39.108  48.281  44.346  0.00  0.00     0.293 C 
HETATM   22  O   UNK N   1      37.970  47.857  44.489  0.00  0.00    -0.259 OA
BRANCH  21  23
HETATM   23  C   UNK N   1      39.340  49.568  43.651  0.00  0.00     0.039 A 
HETATM   24  C   UNK N   1      40.072  50.589  44.281  0.00  0.00     0.017 A 
HETATM   25  C   UNK N   1      40.300  51.801  43.622  0.00  0.00     0.001 A 
HETATM   26  C   UNK N   1      39.811  51.998  42.329  0.00  0.00     0.000 A 
HETATM   27  C   UNK N   1      39.084  50.988  41.695  0.00  0.00     0.001 A 
HETATM   28  C   UNK N   1      38.842  49.778  42.352  0.00  0.00     0.017 A 
ENDBRANCH  21  23
ENDBRANCH  20  21
ENDBRANCH   3  20
BRANCH  13  29
HETATM   29  C   UNK N   1      40.794  43.690  53.936  0.00  0.00     0.014 C 
HETATM   30  C   UNK N   1      39.434  43.000  54.138  0.00  0.00     0.015 C 
HETATM   31  C   UNK N   1      41.947  42.762  54.323  0.00  0.00     0.015 C 
ENDBRANCH  13  29
TORSDOF 4
ENDMDL
MODEL 2
REMARK VINA RESULT:      -6.9     13.954     17.555
REMARK  4 active torsions:
REMARK  status: ('A' for Active; 'I' for Inactive)
REMARK    1  A    between atoms: O_1  and  C_11 
REMARK    2  A    between atoms: O_1  and  C_13 
REMARK    3  A    between atoms: C_5  and  C_13 
REMARK    4  A    between atoms: C_22  and  C_27 
ROOT
HETATM    1  O   UNK N   1      28.846  48.928  60.939  0.00  0.00    -0.283 OA
HETATM    2  O   UNK N   1      28.658  50.948  59.167  0.00  0.00    -0.283 OA
HETATM    3  C   UNK N   1      31.641  44.336  61.637  0.00  0.00     0.145 C 
HETATM    4  C   UNK N   1      30.103  44.945  59.698  0.00  0.00     0.011 C 
HETATM    5  C   UNK N   1      29.246  48.776  59.795  0.00  0.00     0.233 A 
HETATM    6  C   UNK N   1      29.130  49.875  58.822  0.00  0.00     0.229 A 
HETATM    7  C   UNK N   1      30.464  43.808  60.776  0.00  0.00    -0.006 C 
HETATM    8  C   UNK N   1      30.155  46.365  60.290  0.00  0.00    -0.034 C 
HETATM    9  C   UNK N   1      30.997  45.004  58.458  0.00  0.00    -0.011 C 
HETATM   10  C   UNK N   1      31.219  45.590  62.425  0.00  0.00     0.061 C 
HETATM   11  C   UNK N   1      28.667  44.692  59.138  0.00  0.00     0.025 C 
HETATM   12  C   UNK N   1      29.837  47.485  59.353  0.00  0.00     0.035 A 
HETATM   13  C   UNK N   1      29.556  49.646  57.414  0.00  0.00     0.000 A 
HETATM   14  C   UNK N   1      30.220  47.331  58.055  0.00  0.00    -0.021 A 
HETATM   15  C   UNK N   1      30.606  46.633  61.537  0.00  0.00    -0.015 C 
HETATM   16  C   UNK N   1      30.958  46.090  57.650  0.00  0.00     0.009 C 
HETATM   17  C   UNK N   1      30.051  48.434  57.064  0.00  0.00     0.024 A 
HETATM   18  C   UNK N   1      30.870  42.464  60.109  0.00  0.00     0.019 C 
HETATM   19  C   UNK N   1      29.262  43.472  61.714  0.00  0.00     0.019 C 
ENDROOT
BRANCH   3  20
HETATM   20  O   UNK N   1      32.074  43.381  62.543  0.00  0.00    -0.311 OA
BRANCH  20  21
HETATM   21  C   UNK N   1      33.100  43.545  63.423  0.00  0.00     0.293 C 
HETATM   22  O   UNK N   1      33.001  43.146  64.573  0.00  0.00    -0.259 OA
BRANCH  21  23
HETATM   23  C   UNK N   1      34.310  44.282  62.993  0.00  0.00     0.039 A 
HETATM   24  C   UNK N   1      35.050  43.841  61.882  0.00  0.00     0.017 A 
HETATM   25  C   UNK N   1      36.187  44.542  61.470  0.00  0.00     0.001 A 
HETATM   26  C   UNK N   1      36.588  45.692  62.154  0.00  0.00     0.000 A 
HETATM   27  C   UNK N   1      35.858  46.139  63.258  0.00  0.00     0.001 A 
HETATM   28  C   UNK N   1      34.726  45.436  63.683  0.00  0.00     0.017 A 
ENDBRANCH  21  23
ENDBRANCH  20  21
ENDBRANCH   3  20
BRANCH  13  29
HETATM   29  C   UNK N   1      29.427  50.773  56.392  0.00  0.00     0.014 C 
HETATM   30  C   UNK N   1      30.434  50.635  55.238  0.00  0.00     0.015 C 
HETATM   31  C   UNK N   1      27.993  50.861  55.866  0.00  0.00     0.015 C 
ENDBRANCH  13  29
TORSDOF 4
ENDMDL
MODEL 3
REMARK VINA RESULT:      -6.9     13.379     16.760
REMARK  4 active torsions:
REMARK  status: ('A' for Active; 'I' for Inactive)
REMARK    1  A    between atoms: O_1  and  C_11 
REMARK    2  A    between atoms: O_1  and  C_13 
REMARK    3  A    between atoms: C_5  and  C_13 
REMARK    4  A    between atoms: C_22  and  C_27 
ROOT
HETATM    1  O   UNK N   1      24.290  42.434  54.494  0.00  0.00    -0.283 OA
HETATM    2  O   UNK N   1      22.701  43.195  52.457  0.00  0.00    -0.283 OA
HETATM    3  C   UNK N   1      29.490  42.783  55.986  0.00  0.00     0.145 C 
HETATM    4  C   UNK N   1      28.541  41.692  53.887  0.00  0.00     0.011 C 
HETATM    5  C   UNK N   1      24.779  42.712  53.409  0.00  0.00     0.233 A 
HETATM    6  C   UNK N   1      23.909  43.113  52.291  0.00  0.00     0.229 A 
HETATM    7  C   UNK N   1      29.541  41.491  55.130  0.00  0.00    -0.006 C 
HETATM    8  C   UNK N   1      27.233  42.400  54.283  0.00  0.00    -0.034 C 
HETATM    9  C   UNK N   1      29.086  42.504  52.710  0.00  0.00    -0.011 C 
HETATM   10  C   UNK N   1      28.080  42.995  56.568  0.00  0.00     0.061 C 
HETATM   11  C   UNK N   1      28.186  40.300  53.275  0.00  0.00     0.025 C 
HETATM   12  C   UNK N   1      26.247  42.633  53.185  0.00  0.00     0.035 A 
HETATM   13  C   UNK N   1      24.516  43.376  50.957  0.00  0.00     0.000 A 
HETATM   14  C   UNK N   1      26.752  42.894  51.947  0.00  0.00    -0.021 A 
HETATM   15  C   UNK N   1      27.019  42.932  55.509  0.00  0.00    -0.015 C 
HETATM   16  C   UNK N   1      28.238  42.969  51.762  0.00  0.00     0.009 C 
HETATM   17  C   UNK N   1      25.857  43.250  50.807  0.00  0.00     0.024 A 
HETATM   18  C   UNK N   1      31.004  41.223  54.679  0.00  0.00     0.019 C 
HETATM   19  C   UNK N   1      29.142  40.275  56.026  0.00  0.00     0.019 C 
ENDROOT
BRANCH   3  20
HETATM   20  O   UNK N   1      30.390  42.728  57.038  0.00  0.00    -0.311 OA
BRANCH  20  21
HETATM   21  C   UNK N   1      31.285  43.704  57.354  0.00  0.00     0.293 C 
HETATM   22  O   UNK N   1      32.458  43.599  57.027  0.00  0.00    -0.259 OA
BRANCH  21  23
HETATM   23  C   UNK N   1      30.840  44.860  58.165  0.00  0.00     0.039 A 
HETATM   24  C   UNK N   1      30.686  46.125  57.571  0.00  0.00     0.017 A 
HETATM   25  C   UNK N   1      30.257  47.214  58.334  0.00  0.00     0.001 A 
HETATM   26  C   UNK N   1      29.966  47.048  59.690  0.00  0.00     0.000 A 
HETATM   27  C   UNK N   1      30.114  45.795  60.289  0.00  0.00     0.001 A 
HETATM   28  C   UNK N   1      30.555  44.704  59.535  0.00  0.00     0.017 A 
ENDBRANCH  21  23
ENDBRANCH  20  21
ENDBRANCH   3  20
BRANCH  13  29
HETATM   29  C   UNK N   1      23.623  43.779  49.786  0.00  0.00     0.014 C 
HETATM   30  C   UNK N   1      23.889  45.219  49.315  0.00  0.00     0.015 C 
HETATM   31  C   UNK N   1      23.769  42.785  48.633  0.00  0.00     0.015 C 
ENDBRANCH  13  29
TORSDOF 4
ENDMDL
MODEL 4
REMARK VINA RESULT:      -6.8     11.839     17.438
REMARK  4 active torsions:
REMARK  status: ('A' for Active; 'I' for Inactive)
REMARK    1  A    between atoms: O_1  and  C_11 
REMARK    2  A    between atoms: O_1  and  C_13 
REMARK    3  A    between atoms: C_5  and  C_13 
REMARK    4  A    between atoms: C_22  and  C_27 
ROOT
HETATM    1  O   UNK N   1      24.826  55.105  40.728  0.00  0.00    -0.283 OA
HETATM    2  O   UNK N   1      23.703  57.152  42.072  0.00  0.00    -0.283 OA
HETATM    3  C   UNK N   1      29.601  52.565  40.371  0.00  0.00     0.145 C 
HETATM    4  C   UNK N   1      29.103  55.020  39.902  0.00  0.00     0.011 C 
HETATM    5  C   UNK N   1      25.532  55.961  41.239  0.00  0.00     0.233 A 
HETATM    6  C   UNK N   1      24.919  57.088  41.960  0.00  0.00     0.229 A 
HETATM    7  C   UNK N   1      29.819  53.698  39.334  0.00  0.00    -0.006 C 
HETATM    8  C   UNK N   1      27.747  54.724  40.567  0.00  0.00    -0.034 C 
HETATM    9  C   UNK N   1      29.888  55.814  40.948  0.00  0.00    -0.011 C 
HETATM   10  C   UNK N   1      28.103  52.242  40.516  0.00  0.00     0.061 C 
HETATM   11  C   UNK N   1      28.873  56.029  38.733  0.00  0.00     0.025 C 
HETATM   12  C   UNK N   1      27.014  55.900  41.128  0.00  0.00     0.035 A 
HETATM   13  C   UNK N   1      25.793  58.159  42.512  0.00  0.00     0.000 A 
HETATM   14  C   UNK N   1      27.769  56.901  41.660  0.00  0.00    -0.021 A 
HETATM   15  C   UNK N   1      27.286  53.471  40.786  0.00  0.00    -0.015 C 
HETATM   16  C   UNK N   1      29.262  56.759  41.688  0.00  0.00     0.009 C 
HETATM   17  C   UNK N   1      27.136  58.065  42.345  0.00  0.00     0.024 A 
HETATM   18  C   UNK N   1      31.343  53.901  39.098  0.00  0.00     0.019 C 
HETATM   19  C   UNK N   1      29.233  53.245  37.959  0.00  0.00     0.019 C 
ENDROOT
BRANCH   3  20
HETATM   20  O   UNK N   1      30.261  51.405  39.998  0.00  0.00    -0.311 OA
BRANCH  20  21
HETATM   21  C   UNK N   1      30.436  50.314  40.795  0.00  0.00     0.293 C 
HETATM   22  O   UNK N   1      29.699  49.345  40.692  0.00  0.00    -0.259 OA
BRANCH  21  23
HETATM   23  C   UNK N   1      31.483  50.345  41.843  0.00  0.00     0.039 A 
HETATM   24  C   UNK N   1      31.925  51.573  42.364  0.00  0.00     0.017 A 
HETATM   25  C   UNK N   1      32.906  51.602  43.360  0.00  0.00     0.001 A 
HETATM   26  C   UNK N   1      33.443  50.410  43.850  0.00  0.00     0.000 A 
HETATM   27  C   UNK N   1      33.008  49.185  43.339  0.00  0.00     0.001 A 
HETATM   28  C   UNK N   1      32.036  49.148  42.335  0.00  0.00     0.017 A 
ENDBRANCH  21  23
ENDBRANCH  20  21
ENDBRANCH   3  20
BRANCH  13  29
HETATM   29  C   UNK N   1      25.168  59.341  43.250  0.00  0.00     0.014 C 
HETATM   30  C   UNK N   1      25.049  59.089  44.763  0.00  0.00     0.015 C 
HETATM   31  C   UNK N   1      25.947  60.626  42.964  0.00  0.00     0.015 C 
ENDBRANCH  13  29
TORSDOF 4
ENDMDL
MODEL 5
REMARK VINA RESULT:      -6.3     13.733     17.080
REMARK  4 active torsions:
REMARK  status: ('A' for Active; 'I' for Inactive)
REMARK    1  A    between atoms: O_1  and  C_11 
REMARK    2  A    between atoms: O_1  and  C_13 
REMARK    3  A    between atoms: C_5  and  C_13 
REMARK    4  A    between atoms: C_22  and  C_27 
ROOT
HETATM    1  O   UNK N   1      27.604  38.382  52.889  0.00  0.00    -0.283 OA
HETATM    2  O   UNK N   1      27.391  35.753  52.338  0.00  0.00    -0.283 OA
HETATM    3  C   UNK N   1      30.019  41.631  56.495  0.00  0.00     0.145 C 
HETATM    4  C   UNK N   1      28.319  39.787  56.951  0.00  0.00     0.011 C 
HETATM    5  C   UNK N   1      27.845  37.555  53.756  0.00  0.00     0.233 A 
HETATM    6  C   UNK N   1      27.714  36.118  53.459  0.00  0.00     0.229 A 
HETATM    7  C   UNK N   1      28.701  41.320  57.251  0.00  0.00    -0.006 C 
HETATM    8  C   UNK N   1      28.576  39.384  55.488  0.00  0.00    -0.034 C 
HETATM    9  C   UNK N   1      29.056  38.736  57.783  0.00  0.00    -0.011 C 
HETATM   10  C   UNK N   1      29.816  41.503  54.974  0.00  0.00     0.061 C 
HETATM   11  C   UNK N   1      26.808  39.557  57.272  0.00  0.00     0.025 C 
HETATM   12  C   UNK N   1      28.253  37.972  55.124  0.00  0.00     0.035 A 
HETATM   13  C   UNK N   1      27.941  35.129  54.548  0.00  0.00     0.000 A 
HETATM   14  C   UNK N   1      28.458  37.025  56.081  0.00  0.00    -0.021 A 
HETATM   15  C   UNK N   1      29.200  40.188  54.596  0.00  0.00    -0.015 C 
HETATM   16  C   UNK N   1      29.020  37.435  57.410  0.00  0.00     0.009 C 
HETATM   17  C   UNK N   1      28.273  35.574  55.785  0.00  0.00     0.024 A 
HETATM   18  C   UNK N   1      28.894  41.600  58.768  0.00  0.00     0.019 C 
HETATM   19  C   UNK N   1      27.596  42.315  56.772  0.00  0.00     0.019 C 
ENDROOT
BRANCH   3  20
HETATM   20  O   UNK N   1      30.467  42.914  56.766  0.00  0.00    -0.311 OA
BRANCH  20  21
HETATM   21  C   UNK N   1      31.762  43.253  57.014  0.00  0.00     0.293 C 
HETATM   22  O   UNK N   1      32.520  43.523  56.094  0.00  0.00    -0.259 OA
BRANCH  21  23
HETATM   23  C   UNK N   1      32.266  43.218  58.406  0.00  0.00     0.039 A 
HETATM   24  C   UNK N   1      31.491  43.747  59.452  0.00  0.00     0.017 A 
HETATM   25  C   UNK N   1      31.962  43.705  60.768  0.00  0.00     0.001 A 
HETATM   26  C   UNK N   1      33.201  43.126  61.051  0.00  0.00     0.000 A 
HETATM   27  C   UNK N   1      33.977  42.596  60.018  0.00  0.00     0.001 A 
HETATM   28  C   UNK N   1      33.518  42.645  58.698  0.00  0.00     0.017 A 
ENDBRANCH  21  23
ENDBRANCH  20  21
ENDBRANCH   3  20
BRANCH  13  29
HETATM   29  C   UNK N   1      27.795  33.637  54.258  0.00  0.00     0.014 C 
HETATM   30  C   UNK N   1      28.798  32.784  55.052  0.00  0.00     0.015 C 
HETATM   31  C   UNK N   1      26.358  33.179  54.512  0.00  0.00     0.015 C 
ENDBRANCH  13  29
TORSDOF 4
ENDMDL
MODEL 6
REMARK VINA RESULT:      -6.2     13.953     17.328
REMARK  4 active torsions:
REMARK  status: ('A' for Active; 'I' for Inactive)
REMARK    1  A    between atoms: O_1  and  C_11 
REMARK    2  A    between atoms: O_1  and  C_13 
REMARK    3  A    between atoms: C_5  and  C_13 
REMARK    4  A    between atoms: C_22  and  C_27 
ROOT
HETATM    1  O   UNK N   1      28.421  44.823  59.688  0.00  0.00    -0.283 OA
HETATM    2  O   UNK N   1      27.910  43.855  57.227  0.00  0.00    -0.283 OA
HETATM    3  C   UNK N   1      32.680  45.908  62.861  0.00  0.00     0.145 C 
HETATM    4  C   UNK N   1      32.006  43.658  61.873  0.00  0.00     0.011 C 
HETATM    5  C   UNK N   1      29.264  44.155  59.107  0.00  0.00     0.233 A 
HETATM    6  C   UNK N   1      28.978  43.612  57.768  0.00  0.00     0.229 A 
HETATM    7  C   UNK N   1      32.449  44.417  63.219  0.00  0.00    -0.006 C 
HETATM    8  C   UNK N   1      31.036  44.487  61.013  0.00  0.00    -0.034 C 
HETATM    9  C   UNK N   1      33.137  43.264  60.920  0.00  0.00    -0.011 C 
HETATM   10  C   UNK N   1      31.371  46.562  62.382  0.00  0.00     0.061 C 
HETATM   11  C   UNK N   1      31.314  42.308  62.243  0.00  0.00     0.025 C 
HETATM   12  C   UNK N   1      30.577  43.856  59.739  0.00  0.00     0.035 A 
HETATM   13  C   UNK N   1      29.988  42.740  57.109  0.00  0.00     0.000 A 
HETATM   14  C   UNK N   1      31.469  43.060  59.087  0.00  0.00    -0.021 A 
HETATM   15  C   UNK N   1      30.716  45.773  61.286  0.00  0.00    -0.015 C 
HETATM   16  C   UNK N   1      32.849  42.891  59.651  0.00  0.00     0.009 C 
HETATM   17  C   UNK N   1      31.151  42.474  57.752  0.00  0.00     0.024 A 
HETATM   18  C   UNK N   1      33.747  43.824  63.837  0.00  0.00     0.019 C 
HETATM   19  C   UNK N   1      31.365  44.328  64.339  0.00  0.00     0.019 C 
ENDROOT
BRANCH   3  20
HETATM   20  O   UNK N   1      33.148  46.624  63.952  0.00  0.00    -0.311 OA
BRANCH  20  21
HETATM   21  C   UNK N   1      34.031  47.658  63.888  0.00  0.00     0.293 C 
HETATM   22  O   UNK N   1      33.663  48.804  64.102  0.00  0.00    -0.259 OA
BRANCH  21  23
HETATM   23  C   UNK N   1      35.430  47.391  63.481  0.00  0.00     0.039 A 
HETATM   24  C   UNK N   1      36.041  48.179  62.489  0.00  0.00     0.017 A 
HETATM   25  C   UNK N   1      37.364  47.933  62.111  0.00  0.00     0.001 A 
HETATM   26  C   UNK N   1      38.090  46.910  62.725  0.00  0.00     0.000 A 
HETATM   27  C   UNK N   1      37.492  46.123  63.712  0.00  0.00     0.001 A 
HETATM   28  C   UNK N   1      36.165  46.356  64.088  0.00  0.00     0.017 A 
ENDBRANCH  21  23
ENDBRANCH  20  21
ENDBRANCH   3  20
BRANCH  13  29
HETATM   29  C   UNK N   1      29.699  42.160  55.726  0.00  0.00     0.014 C 
HETATM   30  C   UNK N   1      30.980  41.933  54.906  0.00  0.00     0.015 C 
HETATM   31  C   UNK N   1      28.883  40.871  55.844  0.00  0.00     0.015 C 
ENDBRANCH  13  29
TORSDOF 4
ENDMDL
MODEL 7
REMARK VINA RESULT:      -6.0     14.802     16.623
REMARK  4 active torsions:
REMARK  status: ('A' for Active; 'I' for Inactive)
REMARK    1  A    between atoms: O_1  and  C_11 
REMARK    2  A    between atoms: O_1  and  C_13 
REMARK    3  A    between atoms: C_5  and  C_13 
REMARK    4  A    between atoms: C_22  and  C_27 
ROOT
HETATM    1  O   UNK N   1      32.019  43.575  63.618  0.00  0.00    -0.283 OA
HETATM    2  O   UNK N   1      34.242  44.616  64.730  0.00  0.00    -0.283 OA
HETATM    3  C   UNK N   1      30.597  40.610  59.309  0.00  0.00     0.145 C 
HETATM    4  C   UNK N   1      31.757  42.879  59.325  0.00  0.00     0.011 C 
HETATM    5  C   UNK N   1      33.025  43.732  62.942  0.00  0.00     0.233 A 
HETATM    6  C   UNK N   1      34.235  44.315  63.546  0.00  0.00     0.229 A 
HETATM    7  C   UNK N   1      30.549  42.030  58.688  0.00  0.00    -0.006 C 
HETATM    8  C   UNK N   1      31.942  42.614  60.829  0.00  0.00    -0.034 C 
HETATM    9  C   UNK N   1      33.139  42.647  58.712  0.00  0.00    -0.011 C 
HETATM   10  C   UNK N   1      30.355  40.672  60.828  0.00  0.00     0.061 C 
HETATM   11  C   UNK N   1      31.484  44.403  59.118  0.00  0.00     0.025 C 
HETATM   12  C   UNK N   1      33.048  43.361  61.502  0.00  0.00     0.035 A 
HETATM   13  C   UNK N   1      35.426  44.565  62.688  0.00  0.00     0.000 A 
HETATM   14  C   UNK N   1      34.167  43.602  60.764  0.00  0.00    -0.021 A 
HETATM   15  C   UNK N   1      31.264  41.656  61.504  0.00  0.00    -0.015 C 
HETATM   16  C   UNK N   1      34.245  43.085  59.358  0.00  0.00     0.009 C 
HETATM   17  C   UNK N   1      35.371  44.240  61.373  0.00  0.00     0.024 A 
HETATM   18  C   UNK N   1      30.649  41.923  57.140  0.00  0.00     0.019 C 
HETATM   19  C   UNK N   1      29.153  42.664  58.982  0.00  0.00     0.019 C 
ENDROOT
BRANCH   3  20
HETATM   20  O   UNK N   1      29.637  39.780  58.751  0.00  0.00    -0.311 OA
BRANCH  20  21
HETATM   21  C   UNK N   1      29.807  38.456  58.483  0.00  0.00     0.293 C 
HETATM   22  O   UNK N   1      30.129  37.679  59.370  0.00  0.00    -0.259 OA
BRANCH  21  23
HETATM   23  C   UNK N   1      29.675  37.978  57.087  0.00  0.00     0.039 A 
HETATM   24  C   UNK N   1      29.889  36.623  56.780  0.00  0.00     0.017 A 
HETATM   25  C   UNK N   1      29.755  36.170  55.465  0.00  0.00     0.001 A 
HETATM   26  C   UNK N   1      29.396  37.060  54.450  0.00  0.00     0.000 A 
HETATM   27  C   UNK N   1      29.180  38.407  54.745  0.00  0.00     0.001 A 
HETATM   28  C   UNK N   1      29.324  38.870  56.057  0.00  0.00     0.017 A 
ENDBRANCH  21  23
ENDBRANCH  20  21
ENDBRANCH   3  20
BRANCH  13  29
HETATM   29  C   UNK N   1      36.682  45.182  63.299  0.00  0.00     0.014 C 
HETATM   30  C   UNK N   1      37.934  44.931  62.442  0.00  0.00     0.015 C 
HETATM   31  C   UNK N   1      36.477  46.676  63.553  0.00  0.00     0.015 C 
ENDBRANCH  13  29
TORSDOF 4
ENDMDL
MODEL 8
REMARK VINA RESULT:      -5.9     13.869     17.241
REMARK  4 active torsions:
REMARK  status: ('A' for Active; 'I' for Inactive)
REMARK    1  A    between atoms: O_1  and  C_11 
REMARK    2  A    between atoms: O_1  and  C_13 
REMARK    3  A    between atoms: C_5  and  C_13 
REMARK    4  A    between atoms: C_22  and  C_27 
ROOT
HETATM    1  O   UNK N   1      51.722  52.475  57.896  0.00  0.00    -0.283 OA
HETATM    2  O   UNK N   1      52.123  53.770  55.568  0.00  0.00    -0.283 OA
HETATM    3  C   UNK N   1      47.635  51.185  61.215  0.00  0.00     0.145 C 
HETATM    4  C   UNK N   1      48.397  53.514  60.513  0.00  0.00     0.011 C 
HETATM    5  C   UNK N   1      50.891  53.273  57.489  0.00  0.00     0.233 A 
HETATM    6  C   UNK N   1      51.117  53.993  56.225  0.00  0.00     0.229 A 
HETATM    7  C   UNK N   1      47.998  52.588  61.767  0.00  0.00    -0.006 C 
HETATM    8  C   UNK N   1      49.240  52.766  59.465  0.00  0.00    -0.034 C 
HETATM    9  C   UNK N   1      47.233  54.115  59.724  0.00  0.00    -0.011 C 
HETATM   10  C   UNK N   1      48.855  50.533  60.540  0.00  0.00     0.061 C 
HETATM   11  C   UNK N   1      49.211  54.747  61.018  0.00  0.00     0.025 C 
HETATM   12  C   UNK N   1      49.651  53.552  58.263  0.00  0.00     0.035 A 
HETATM   13  C   UNK N   1      50.128  55.014  55.784  0.00  0.00     0.000 A 
HETATM   14  C   UNK N   1      48.774  54.490  57.810  0.00  0.00    -0.021 A 
HETATM   15  C   UNK N   1      49.485  51.436  59.521  0.00  0.00    -0.015 C 
HETATM   16  C   UNK N   1      47.454  54.657  58.503  0.00  0.00     0.009 C 
HETATM   17  C   UNK N   1      49.037  55.251  56.553  0.00  0.00     0.024 A 
HETATM   18  C   UNK N   1      46.795  53.159  62.569  0.00  0.00     0.019 C 
HETATM   19  C   UNK N   1      49.164  52.441  62.795  0.00  0.00     0.019 C 
ENDROOT
BRANCH   3  20
HETATM   20  O   UNK N   1      47.196  50.343  62.224  0.00  0.00    -0.311 OA
BRANCH  20  21
HETATM   21  C   UNK N   1      46.159  49.467  62.117  0.00  0.00     0.293 C 
HETATM   22  O   UNK N   1      46.367  48.278  61.929  0.00  0.00    -0.259 OA
BRANCH  21  23
HETATM   23  C   UNK N   1      44.771  49.983  62.154  0.00  0.00     0.039 A 
HETATM   24  C   UNK N   1      43.948  49.880  61.019  0.00  0.00     0.017 A 
HETATM   25  C   UNK N   1      42.635  50.358  61.056  0.00  0.00     0.001 A 
HETATM   26  C   UNK N   1      42.129  50.929  62.227  0.00  0.00     0.000 A 
HETATM   27  C   UNK N   1      42.939  51.034  63.360  0.00  0.00     0.001 A 
HETATM   28  C   UNK N   1      44.257  50.569  63.326  0.00  0.00     0.017 A 
ENDBRANCH  21  23
ENDBRANCH  20  21
ENDBRANCH   3  20
BRANCH  13  29
HETATM   29  C   UNK N   1      50.359  55.778  54.482  0.00  0.00     0.014 C 
HETATM   30  C   UNK N   1      49.978  54.950  53.243  0.00  0.00     0.015 C 
HETATM   31  C   UNK N   1      49.614  57.114  54.503  0.00  0.00     0.015 C 
ENDBRANCH  13  29
TORSDOF 4
ENDMDL
MODEL 9
REMARK VINA RESULT:      -5.9     12.311     18.348
REMARK  4 active torsions:
REMARK  status: ('A' for Active; 'I' for Inactive)
REMARK    1  A    between atoms: O_1  and  C_11 
REMARK    2  A    between atoms: O_1  and  C_13 
REMARK    3  A    between atoms: C_5  and  C_13 
REMARK    4  A    between atoms: C_22  and  C_27 
ROOT
HETATM    1  O   UNK N   1      25.299  55.075  41.492  0.00  0.00    -0.283 OA
HETATM    2  O   UNK N   1      23.173  56.613  40.884  0.00  0.00    -0.283 OA
HETATM    3  C   UNK N   1      30.632  55.595  42.313  0.00  0.00     0.145 C 
HETATM    4  C   UNK N   1      29.317  56.165  40.206  0.00  0.00     0.011 C 
HETATM    5  C   UNK N   1      25.465  56.166  40.968  0.00  0.00     0.233 A 
HETATM    6  C   UNK N   1      24.302  57.001  40.621  0.00  0.00     0.229 A 
HETATM    7  C   UNK N   1      30.613  55.403  40.774  0.00  0.00    -0.006 C 
HETATM    8  C   UNK N   1      28.079  55.985  41.102  0.00  0.00    -0.034 C 
HETATM    9  C   UNK N   1      29.453  57.679  40.024  0.00  0.00    -0.011 C 
HETATM   10  C   UNK N   1      29.399  54.937  42.959  0.00  0.00     0.061 C 
HETATM   11  C   UNK N   1      28.981  55.626  38.779  0.00  0.00     0.025 C 
HETATM   12  C   UNK N   1      26.828  56.667  40.649  0.00  0.00     0.035 A 
HETATM   13  C   UNK N   1      24.521  58.293  39.916  0.00  0.00     0.000 A 
HETATM   14  C   UNK N   1      26.973  57.861  40.012  0.00  0.00    -0.021 A 
HETATM   15  C   UNK N   1      28.120  55.381  42.312  0.00  0.00    -0.015 C 
HETATM   16  C   UNK N   1      28.347  58.437  39.834  0.00  0.00     0.009 C 
HETATM   17  C   UNK N   1      25.787  58.676  39.619  0.00  0.00     0.024 A 
HETATM   18  C   UNK N   1      31.937  55.945  40.166  0.00  0.00     0.019 C 
HETATM   19  C   UNK N   1      30.594  53.874  40.456  0.00  0.00     0.019 C 
ENDROOT
BRANCH   3  20
HETATM   20  O   UNK N   1      31.768  55.037  42.879  0.00  0.00    -0.311 OA
BRANCH  20  21
HETATM   21  C   UNK N   1      31.788  54.283  44.012  0.00  0.00     0.293 C 
HETATM   22  O   UNK N   1      31.328  54.720  45.056  0.00  0.00    -0.259 OA
BRANCH  21  23
HETATM   23  C   UNK N   1      32.443  52.955  43.986  0.00  0.00     0.039 A 
HETATM   24  C   UNK N   1      31.981  51.956  43.112  0.00  0.00     0.017 A 
HETATM   25  C   UNK N   1      32.606  50.705  43.080  0.00  0.00     0.001 A 
HETATM   26  C   UNK N   1      33.700  50.447  43.909  0.00  0.00     0.000 A 
HETATM   27  C   UNK N   1      34.166  51.434  44.779  0.00  0.00     0.001 A 
HETATM   28  C   UNK N   1      33.540  52.683  44.825  0.00  0.00     0.017 A 
ENDBRANCH  21  23
ENDBRANCH  20  21
ENDBRANCH   3  20
BRANCH  13  29
HETATM   29  C   UNK N   1      23.322  59.161  39.538  0.00  0.00     0.014 C 
HETATM   30  C   UNK N   1      23.356  60.537  40.226  0.00  0.00     0.015 C 
HETATM   31  C   UNK N   1      23.220  59.305  38.019  0.00  0.00     0.015 C 
ENDBRANCH  13  29
TORSDOF 4
ENDMDL
