MODEL 1
REMARK VINA RESULT:      -7.9      0.000      0.000
REMARK  5 active torsions:
REMARK  status: ('A' for Active; 'I' for Inactive)
REMARK    1  A    between atoms: O_1  and  C_11 
REMARK    2  A    between atoms: O_1  and  C_13 
REMARK    3  A    between atoms: O_4  and  C_15 
REMARK    4  A    between atoms: C_5  and  C_13 
REMARK    5  A    between atoms: C_22  and  C_27 
ROOT
HETATM    1  O   UNK N   1      39.450  42.933  51.985  0.00  0.00    -0.285 OA
HETATM    2  C   UNK N   1      40.142  47.451  45.796  0.00  0.00     0.144 C 
HETATM    3  C   UNK N   1      40.813  45.335  47.910  0.00  0.00     0.011 A 
HETATM    4  C   UNK N   1      40.202  43.753  51.476  0.00  0.00     0.212 A 
HETATM    5  C   UNK N   1      40.066  44.073  50.026  0.00  0.00     0.124 A 
HETATM    6  C   UNK N   1      40.883  45.003  49.436  0.00  0.00     0.002 A 
HETATM    7  C   UNK N   1      41.757  46.516  47.495  0.00  0.00    -0.057 A 
HETATM    8  C   UNK N   1      41.652  47.150  46.061  0.00  0.00     0.004 C 
HETATM    9  C   UNK N   1      39.244  46.236  46.064  0.00  0.00     0.035 C 
HETATM   10  C   UNK N   1      39.369  45.778  47.526  0.00  0.00     0.021 C 
HETATM   11  C   UNK N   1      41.222  44.021  47.189  0.00  0.00     0.025 C 
HETATM   12  C   UNK N   1      41.230  44.425  52.310  0.00  0.00    -0.001 A 
HETATM   13  C   UNK N   1      41.893  45.684  50.295  0.00  0.00    -0.025 A 
HETATM   14  C   UNK N   1      42.604  47.060  48.406  0.00  0.00     0.006 A 
HETATM   15  C   UNK N   1      42.025  45.344  51.733  0.00  0.00     0.023 A 
HETATM   16  C   UNK N   1      42.695  46.618  49.793  0.00  0.00     0.012 A 
HETATM   17  C   UNK N   1      42.408  48.510  45.939  0.00  0.00     0.022 C 
HETATM   18  C   UNK N   1      42.269  46.258  44.953  0.00  0.00     0.022 C 
ENDROOT
BRANCH   2  19
HETATM   19  O   UNK N   1      39.952  47.856  44.484  0.00  0.00    -0.311 OA
BRANCH  19  20
HETATM   20  C   UNK N   1      38.971  48.690  44.046  0.00  0.00     0.293 C 
HETATM   21  O   UNK N   1      37.795  48.363  44.122  0.00  0.00    -0.259 OA
BRANCH  20  22
HETATM   22  C   UNK N   1      39.338  50.038  43.553  0.00  0.00     0.039 A 
HETATM   23  C   UNK N   1      40.060  50.929  44.369  0.00  0.00     0.017 A 
HETATM   24  C   UNK N   1      40.424  52.189  43.884  0.00  0.00     0.001 A 
HETATM   25  C   UNK N   1      40.062  52.574  42.591  0.00  0.00     0.000 A 
HETATM   26  C   UNK N   1      39.338  51.700  41.778  0.00  0.00     0.001 A 
HETATM   27  C   UNK N   1      38.981  50.435  42.252  0.00  0.00     0.017 A 
ENDBRANCH  20  22
ENDBRANCH  19  20
ENDBRANCH   2  19
BRANCH   5  28
HETATM   28  O   UNK N   1      39.120  43.425  49.308  0.00  0.00    -0.356 OA
HETATM   29  H   UNK N   1      38.665  43.833  48.559  0.00  0.00     0.218 HD
ENDBRANCH   5  28
BRANCH  12  30
HETATM   30  C   UNK N   1      41.353  44.050  53.791  0.00  0.00     0.014 C 
HETATM   31  C   UNK N   1      39.954  43.872  54.394  0.00  0.00     0.015 C 
HETATM   32  C   UNK N   1      42.206  42.801  54.078  0.00  0.00     0.015 C 
ENDBRANCH  12  30
TORSDOF 5
ENDMDL
MODEL 2
REMARK VINA RESULT:      -7.7      1.429      2.035
REMARK  5 active torsions:
REMARK  status: ('A' for Active; 'I' for Inactive)
REMARK    1  A    between atoms: O_1  and  C_11 
REMARK    2  A    between atoms: O_1  and  C_13 
REMARK    3  A    between atoms: O_4  and  C_15 
REMARK    4  A    between atoms: C_5  and  C_13 
REMARK    5  A    between atoms: C_22  and  C_27 
ROOT
HETATM    1  O   UNK N   1      39.360  43.105  51.807  0.00  0.00    -0.285 OA
HETATM    2  C   UNK N   1      40.116  47.996  45.917  0.00  0.00     0.144 C 
HETATM    3  C   UNK N   1      40.717  45.688  47.842  0.00  0.00     0.011 A 
HETATM    4  C   UNK N   1      40.149  43.901  51.317  0.00  0.00     0.212 A 
HETATM    5  C   UNK N   1      39.972  44.334  49.902  0.00  0.00     0.124 A 
HETATM    6  C   UNK N   1      40.831  45.241  49.336  0.00  0.00     0.002 A 
HETATM    7  C   UNK N   1      41.730  46.822  47.461  0.00  0.00    -0.057 A 
HETATM    8  C   UNK N   1      41.609  47.565  46.082  0.00  0.00     0.004 C 
HETATM    9  C   UNK N   1      39.139  46.836  46.147  0.00  0.00     0.035 C 
HETATM   10  C   UNK N   1      39.296  46.264  47.565  0.00  0.00     0.021 C 
HETATM   11  C   UNK N   1      40.988  44.404  47.012  0.00  0.00     0.025 C 
HETATM   12  C   UNK N   1      41.264  44.432  52.142  0.00  0.00    -0.001 A 
HETATM   13  C   UNK N   1      41.930  45.781  50.187  0.00  0.00    -0.025 A 
HETATM   14  C   UNK N   1      42.658  47.234  48.362  0.00  0.00     0.006 A 
HETATM   15  C   UNK N   1      42.101  45.329  51.589  0.00  0.00     0.023 A 
HETATM   16  C   UNK N   1      42.778  46.687  49.709  0.00  0.00     0.012 A 
HETATM   17  C   UNK N   1      42.462  48.871  46.015  0.00  0.00     0.022 C 
HETATM   18  C   UNK N   1      42.102  46.712  44.884  0.00  0.00     0.022 C 
ENDROOT
BRANCH   2  19
HETATM   19  O   UNK N   1      39.898  48.509  44.647  0.00  0.00    -0.311 OA
BRANCH  19  20
HETATM   20  C   UNK N   1      39.178  49.626  44.356  0.00  0.00     0.293 C 
HETATM   21  O   UNK N   1      39.672  50.737  44.486  0.00  0.00    -0.259 OA
BRANCH  20  22
HETATM   22  C   UNK N   1      37.814  49.478  43.797  0.00  0.00     0.039 A 
HETATM   23  C   UNK N   1      37.425  48.285  43.161  0.00  0.00     0.017 A 
HETATM   24  C   UNK N   1      36.126  48.147  42.660  0.00  0.00     0.001 A 
HETATM   25  C   UNK N   1      35.213  49.198  42.777  0.00  0.00     0.000 A 
HETATM   26  C   UNK N   1      35.594  50.388  43.398  0.00  0.00     0.001 A 
HETATM   27  C   UNK N   1      36.887  50.529  43.912  0.00  0.00     0.017 A 
ENDBRANCH  20  22
ENDBRANCH  19  20
ENDBRANCH   2  19
BRANCH   5  28
HETATM   28  O   UNK N   1      38.946  43.812  49.191  0.00  0.00    -0.356 OA
HETATM   29  H   UNK N   1      38.704  42.877  49.236  0.00  0.00     0.218 HD
ENDBRANCH   5  28
BRANCH  12  30
HETATM   30  C   UNK N   1      41.426  43.942  53.585  0.00  0.00     0.014 C 
HETATM   31  C   UNK N   1      40.048  43.851  54.254  0.00  0.00     0.015 C 
HETATM   32  C   UNK N   1      42.169  42.602  53.738  0.00  0.00     0.015 C 
ENDBRANCH  12  30
TORSDOF 5
ENDMDL
MODEL 3
REMARK VINA RESULT:      -7.3     13.639     16.883
REMARK  5 active torsions:
REMARK  status: ('A' for Active; 'I' for Inactive)
REMARK    1  A    between atoms: O_1  and  C_11 
REMARK    2  A    between atoms: O_1  and  C_13 
REMARK    3  A    between atoms: O_4  and  C_15 
REMARK    4  A    between atoms: C_5  and  C_13 
REMARK    5  A    between atoms: C_22  and  C_27 
ROOT
HETATM    1  O   UNK N   1      26.107  41.696  48.977  0.00  0.00    -0.285 OA
HETATM    2  C   UNK N   1      29.942  42.515  55.596  0.00  0.00     0.144 C 
HETATM    3  C   UNK N   1      27.753  41.687  53.616  0.00  0.00     0.011 A 
HETATM    4  C   UNK N   1      25.970  42.112  50.118  0.00  0.00     0.212 A 
HETATM    5  C   UNK N   1      26.927  41.681  51.177  0.00  0.00     0.124 A 
HETATM    6  C   UNK N   1      26.807  42.150  52.460  0.00  0.00     0.002 A 
HETATM    7  C   UNK N   1      27.500  42.453  54.961  0.00  0.00    -0.057 A 
HETATM    8  C   UNK N   1      28.501  42.300  56.162  0.00  0.00     0.004 C 
HETATM    9  C   UNK N   1      30.227  41.645  54.365  0.00  0.00     0.035 C 
HETATM   10  C   UNK N   1      29.238  41.963  53.232  0.00  0.00     0.021 C 
HETATM   11  C   UNK N   1      27.476  40.168  53.785  0.00  0.00     0.025 C 
HETATM   12  C   UNK N   1      24.862  43.050  50.431  0.00  0.00    -0.001 A 
HETATM   13  C   UNK N   1      25.702  43.109  52.749  0.00  0.00    -0.025 A 
HETATM   14  C   UNK N   1      26.467  43.327  55.059  0.00  0.00     0.006 A 
HETATM   15  C   UNK N   1      24.751  43.517  51.687  0.00  0.00     0.023 A 
HETATM   16  C   UNK N   1      25.550  43.625  53.965  0.00  0.00     0.012 A 
HETATM   17  C   UNK N   1      28.291  43.377  57.272  0.00  0.00     0.022 C 
HETATM   18  C   UNK N   1      28.365  40.943  56.901  0.00  0.00     0.022 C 
ENDROOT
BRANCH   2  19
HETATM   19  O   UNK N   1      30.891  42.229  56.566  0.00  0.00    -0.311 OA
BRANCH  19  20
HETATM   20  C   UNK N   1      31.906  43.049  56.948  0.00  0.00     0.293 C 
HETATM   21  O   UNK N   1      32.436  43.801  56.143  0.00  0.00    -0.259 OA
BRANCH  20  22
HETATM   22  C   UNK N   1      32.305  43.083  58.374  0.00  0.00     0.039 A 
HETATM   23  C   UNK N   1      31.394  43.491  59.366  0.00  0.00     0.017 A 
HETATM   24  C   UNK N   1      31.774  43.495  60.712  0.00  0.00     0.001 A 
HETATM   25  C   UNK N   1      33.065  43.105  61.077  0.00  0.00     0.000 A 
HETATM   26  C   UNK N   1      33.978  42.708  60.099  0.00  0.00     0.001 A 
HETATM   27  C   UNK N   1      33.602  42.691  58.753  0.00  0.00     0.017 A 
ENDBRANCH  20  22
ENDBRANCH  19  20
ENDBRANCH   2  19
BRANCH   5  28
HETATM   28  O   UNK N   1      27.913  40.817  50.843  0.00  0.00    -0.356 OA
HETATM   29  H   UNK N   1      28.830  41.097  50.717  0.00  0.00     0.218 HD
ENDBRANCH   5  28
BRANCH  12  30
HETATM   30  C   UNK N   1      23.886  43.450  49.319  0.00  0.00     0.014 C 
HETATM   31  C   UNK N   1      22.513  42.822  49.590  0.00  0.00     0.015 C 
HETATM   32  C   UNK N   1      23.732  44.965  49.101  0.00  0.00     0.015 C 
ENDBRANCH  12  30
TORSDOF 5
ENDMDL
MODEL 4
REMARK VINA RESULT:      -7.1     11.864     16.089
REMARK  5 active torsions:
REMARK  status: ('A' for Active; 'I' for Inactive)
REMARK    1  A    between atoms: O_1  and  C_11 
REMARK    2  A    between atoms: O_1  and  C_13 
REMARK    3  A    between atoms: O_4  and  C_15 
REMARK    4  A    between atoms: C_5  and  C_13 
REMARK    5  A    between atoms: C_22  and  C_27 
ROOT
HETATM    1  O   UNK N   1      31.382  49.766  41.200  0.00  0.00    -0.285 OA
HETATM    2  C   UNK N   1      27.091  56.149  41.017  0.00  0.00     0.144 C 
HETATM    3  C   UNK N   1      29.516  54.296  40.727  0.00  0.00     0.011 A 
HETATM    4  C   UNK N   1      31.361  50.918  41.609  0.00  0.00     0.212 A 
HETATM    5  C   UNK N   1      30.461  51.912  40.956  0.00  0.00     0.124 A 
HETATM    6  C   UNK N   1      30.403  53.205  41.409  0.00  0.00     0.002 A 
HETATM    7  C   UNK N   1      29.520  55.662  41.496  0.00  0.00    -0.057 A 
HETATM    8  C   UNK N   1      28.509  56.799  41.103  0.00  0.00     0.004 C 
HETATM    9  C   UNK N   1      27.071  54.893  40.135  0.00  0.00     0.035 C 
HETATM   10  C   UNK N   1      28.031  53.826  40.686  0.00  0.00     0.021 C 
HETATM   11  C   UNK N   1      30.104  54.465  39.299  0.00  0.00     0.025 C 
HETATM   12  C   UNK N   1      32.220  51.308  42.755  0.00  0.00    -0.001 A 
HETATM   13  C   UNK N   1      31.257  53.571  42.576  0.00  0.00    -0.025 A 
HETATM   14  C   UNK N   1      30.332  55.833  42.570  0.00  0.00     0.006 A 
HETATM   15  C   UNK N   1      32.156  52.574  43.205  0.00  0.00     0.023 A 
HETATM   16  C   UNK N   1      31.224  54.800  43.084  0.00  0.00     0.012 A 
HETATM   17  C   UNK N   1      28.418  57.932  42.173  0.00  0.00     0.022 C 
HETATM   18  C   UNK N   1      28.893  57.529  39.790  0.00  0.00     0.022 C 
ENDROOT
BRANCH   2  19
HETATM   19  O   UNK N   1      26.172  57.055  40.510  0.00  0.00    -0.311 OA
BRANCH  19  20
HETATM   20  C   UNK N   1      24.967  57.357  41.064  0.00  0.00     0.293 C 
HETATM   21  O   UNK N   1      23.930  56.958  40.553  0.00  0.00    -0.259 OA
BRANCH  20  22
HETATM   22  C   UNK N   1      24.929  58.103  42.342  0.00  0.00     0.039 A 
HETATM   23  C   UNK N   1      24.774  57.425  43.565  0.00  0.00     0.017 A 
HETATM   24  C   UNK N   1      24.765  58.137  44.769  0.00  0.00     0.001 A 
HETATM   25  C   UNK N   1      24.899  59.528  44.762  0.00  0.00     0.000 A 
HETATM   26  C   UNK N   1      25.044  60.210  43.553  0.00  0.00     0.001 A 
HETATM   27  C   UNK N   1      25.065  59.503  42.346  0.00  0.00     0.017 A 
ENDBRANCH  20  22
ENDBRANCH  19  20
ENDBRANCH   2  19
BRANCH   5  28
HETATM   28  O   UNK N   1      29.706  51.509  39.909  0.00  0.00    -0.356 OA
HETATM   29  H   UNK N   1      30.035  50.898  39.235  0.00  0.00     0.218 HD
ENDBRANCH   5  28
BRANCH  12  30
HETATM   30  C   UNK N   1      33.149  50.261  43.382  0.00  0.00     0.014 C 
HETATM   31  C   UNK N   1      34.447  50.937  43.842  0.00  0.00     0.015 C 
HETATM   32  C   UNK N   1      32.537  49.461  44.546  0.00  0.00     0.015 C 
ENDBRANCH  12  30
TORSDOF 5
ENDMDL
MODEL 5
REMARK VINA RESULT:      -7.0     14.162     16.818
REMARK  5 active torsions:
REMARK  status: ('A' for Active; 'I' for Inactive)
REMARK    1  A    between atoms: O_1  and  C_11 
REMARK    2  A    between atoms: O_1  and  C_13 
REMARK    3  A    between atoms: O_4  and  C_15 
REMARK    4  A    between atoms: C_5  and  C_13 
REMARK    5  A    between atoms: C_22  and  C_27 
ROOT
HETATM    1  O   UNK N   1      26.503  41.274  49.372  0.00  0.00    -0.285 OA
HETATM    2  C   UNK N   1      29.795  42.661  56.186  0.00  0.00     0.144 C 
HETATM    3  C   UNK N   1      27.792  41.624  54.110  0.00  0.00     0.011 A 
HETATM    4  C   UNK N   1      26.266  41.756  50.471  0.00  0.00     0.212 A 
HETATM    5  C   UNK N   1      27.154  41.431  51.623  0.00  0.00     0.124 A 
HETATM    6  C   UNK N   1      26.921  41.975  52.860  0.00  0.00     0.002 A 
HETATM    7  C   UNK N   1      27.412  42.462  55.379  0.00  0.00    -0.057 A 
HETATM    8  C   UNK N   1      28.324  42.426  56.658  0.00  0.00     0.004 C 
HETATM    9  C   UNK N   1      30.203  41.727  55.039  0.00  0.00     0.035 C 
HETATM   10  C   UNK N   1      29.292  41.934  53.818  0.00  0.00     0.021 C 
HETATM   11  C   UNK N   1      27.557  40.109  54.358  0.00  0.00     0.025 C 
HETATM   12  C   UNK N   1      25.105  42.667  50.638  0.00  0.00    -0.001 A 
HETATM   13  C   UNK N   1      25.765  42.905  53.003  0.00  0.00    -0.025 A 
HETATM   14  C   UNK N   1      26.345  43.300  55.344  0.00  0.00     0.006 A 
HETATM   15  C   UNK N   1      24.883  43.208  51.850  0.00  0.00     0.023 A 
HETATM   16  C   UNK N   1      25.503  43.492  54.168  0.00  0.00     0.012 A 
HETATM   17  C   UNK N   1      27.993  43.562  57.676  0.00  0.00     0.022 C 
HETATM   18  C   UNK N   1      28.179  41.114  57.473  0.00  0.00     0.022 C 
ENDROOT
BRANCH   2  19
HETATM   19  O   UNK N   1      30.677  42.475  57.239  0.00  0.00    -0.311 OA
BRANCH  19  20
HETATM   20  C   UNK N   1      31.567  43.394  57.701  0.00  0.00     0.293 C 
HETATM   21  O   UNK N   1      32.767  43.243  57.524  0.00  0.00    -0.259 OA
BRANCH  20  22
HETATM   22  C   UNK N   1      31.059  44.626  58.347  0.00  0.00     0.039 A 
HETATM   23  C   UNK N   1      30.772  44.648  59.725  0.00  0.00     0.017 A 
HETATM   24  C   UNK N   1      30.318  45.825  60.330  0.00  0.00     0.001 A 
HETATM   25  C   UNK N   1      30.134  46.980  59.566  0.00  0.00     0.000 A 
HETATM   26  C   UNK N   1      30.407  46.965  58.197  0.00  0.00     0.001 A 
HETATM   27  C   UNK N   1      30.873  45.796  57.588  0.00  0.00     0.017 A 
ENDBRANCH  20  22
ENDBRANCH  19  20
ENDBRANCH   2  19
BRANCH   5  28
HETATM   28  O   UNK N   1      28.192  40.587  51.420  0.00  0.00    -0.356 OA
HETATM   29  H   UNK N   1      29.053  40.889  51.101  0.00  0.00     0.218 HD
ENDBRANCH   5  28
BRANCH  12  30
HETATM   30  C   UNK N   1      24.202  42.957  49.434  0.00  0.00     0.014 C 
HETATM   31  C   UNK N   1      22.937  42.094  49.521  0.00  0.00     0.015 C 
HETATM   32  C   UNK N   1      23.814  44.435  49.252  0.00  0.00     0.015 C 
ENDBRANCH  12  30
TORSDOF 5
ENDMDL
MODEL 6
REMARK VINA RESULT:      -6.8     13.844     17.192
REMARK  5 active torsions:
REMARK  status: ('A' for Active; 'I' for Inactive)
REMARK    1  A    between atoms: O_1  and  C_11 
REMARK    2  A    between atoms: O_1  and  C_13 
REMARK    3  A    between atoms: O_4  and  C_15 
REMARK    4  A    between atoms: C_5  and  C_13 
REMARK    5  A    between atoms: C_22  and  C_27 
ROOT
HETATM    1  O   UNK N   1      28.319  34.346  58.963  0.00  0.00    -0.285 OA
HETATM    2  C   UNK N   1      30.446  41.511  57.140  0.00  0.00     0.144 C 
HETATM    3  C   UNK N   1      28.889  38.870  57.110  0.00  0.00     0.011 A 
HETATM    4  C   UNK N   1      28.654  35.032  58.008  0.00  0.00     0.212 A 
HETATM    5  C   UNK N   1      28.594  36.518  58.114  0.00  0.00     0.124 A 
HETATM    6  C   UNK N   1      28.983  37.310  57.065  0.00  0.00     0.002 A 
HETATM    7  C   UNK N   1      29.507  39.559  55.844  0.00  0.00    -0.057 A 
HETATM    8  C   UNK N   1      29.723  41.115  55.812  0.00  0.00     0.004 C 
HETATM    9  C   UNK N   1      29.742  40.952  58.383  0.00  0.00     0.035 C 
HETATM   10  C   UNK N   1      29.685  39.417  58.333  0.00  0.00     0.021 C 
HETATM   11  C   UNK N   1      27.373  39.184  57.224  0.00  0.00     0.025 C 
HETATM   12  C   UNK N   1      29.127  34.377  56.762  0.00  0.00    -0.001 A 
HETATM   13  C   UNK N   1      29.477  36.635  55.831  0.00  0.00    -0.025 A 
HETATM   14  C   UNK N   1      29.949  38.802  54.808  0.00  0.00     0.006 A 
HETATM   15  C   UNK N   1      29.518  35.155  55.736  0.00  0.00     0.023 A 
HETATM   16  C   UNK N   1      29.899  37.345  54.789  0.00  0.00     0.012 A 
HETATM   17  C   UNK N   1      30.647  41.580  54.643  0.00  0.00     0.022 C 
HETATM   18  C   UNK N   1      28.405  41.909  55.610  0.00  0.00     0.022 C 
ENDROOT
BRANCH   2  19
HETATM   19  O   UNK N   1      30.518  42.891  57.259  0.00  0.00    -0.311 OA
BRANCH  19  20
HETATM   20  C   UNK N   1      31.632  43.601  57.584  0.00  0.00     0.293 C 
HETATM   21  O   UNK N   1      32.132  44.377  56.782  0.00  0.00    -0.259 OA
BRANCH  20  22
HETATM   22  C   UNK N   1      32.183  43.488  58.954  0.00  0.00     0.039 A 
HETATM   23  C   UNK N   1      31.445  43.937  60.064  0.00  0.00     0.017 A 
HETATM   24  C   UNK N   1      31.964  43.801  61.356  0.00  0.00     0.001 A 
HETATM   25  C   UNK N   1      33.225  43.231  61.548  0.00  0.00     0.000 A 
HETATM   26  C   UNK N   1      33.969  42.792  60.451  0.00  0.00     0.001 A 
HETATM   27  C   UNK N   1      33.451  42.913  59.159  0.00  0.00     0.017 A 
ENDBRANCH  20  22
ENDBRANCH  19  20
ENDBRANCH   2  19
BRANCH   5  28
HETATM   28  O   UNK N   1      28.146  37.065  59.268  0.00  0.00    -0.356 OA
HETATM   29  H   UNK N   1      28.495  36.812  60.134  0.00  0.00     0.218 HD
ENDBRANCH   5  28
BRANCH  12  30
HETATM   30  C   UNK N   1      29.150  32.847  56.685  0.00  0.00     0.014 C 
HETATM   31  C   UNK N   1      27.778  32.334  56.231  0.00  0.00     0.015 C 
HETATM   32  C   UNK N   1      30.251  32.257  55.785  0.00  0.00     0.015 C 
ENDBRANCH  12  30
TORSDOF 5
ENDMDL
MODEL 7
REMARK VINA RESULT:      -6.7     14.715     16.605
REMARK  5 active torsions:
REMARK  status: ('A' for Active; 'I' for Inactive)
REMARK    1  A    between atoms: O_1  and  C_11 
REMARK    2  A    between atoms: O_1  and  C_13 
REMARK    3  A    between atoms: O_4  and  C_15 
REMARK    4  A    between atoms: C_5  and  C_13 
REMARK    5  A    between atoms: C_22  and  C_27 
ROOT
HETATM    1  O   UNK N   1      35.995  47.171  65.945  0.00  0.00    -0.285 OA
HETATM    2  C   UNK N   1      31.103  44.340  60.725  0.00  0.00     0.144 C 
HETATM    3  C   UNK N   1      33.247  44.433  62.915  0.00  0.00     0.011 A 
HETATM    4  C   UNK N   1      35.958  46.449  64.959  0.00  0.00     0.212 A 
HETATM    5  C   UNK N   1      34.653  45.885  64.510  0.00  0.00     0.124 A 
HETATM    6  C   UNK N   1      34.582  45.089  63.395  0.00  0.00     0.002 A 
HETATM    7  C   UNK N   1      33.392  43.671  61.552  0.00  0.00    -0.057 A 
HETATM    8  C   UNK N   1      32.118  43.153  60.791  0.00  0.00     0.004 C 
HETATM    9  C   UNK N   1      30.856  44.982  62.096  0.00  0.00     0.035 C 
HETATM   10  C   UNK N   1      32.166  45.532  62.684  0.00  0.00     0.021 C 
HETATM   11  C   UNK N   1      32.839  43.458  64.053  0.00  0.00     0.025 C 
HETATM   12  C   UNK N   1      37.210  46.153  64.217  0.00  0.00    -0.001 A 
HETATM   13  C   UNK N   1      35.846  44.822  62.650  0.00  0.00    -0.025 A 
HETATM   14  C   UNK N   1      34.613  43.540  60.975  0.00  0.00     0.006 A 
HETATM   15  C   UNK N   1      37.138  45.379  63.118  0.00  0.00     0.023 A 
HETATM   16  C   UNK N   1      35.841  44.084  61.544  0.00  0.00     0.012 A 
HETATM   17  C   UNK N   1      32.415  42.735  59.318  0.00  0.00     0.022 C 
HETATM   18  C   UNK N   1      31.492  41.891  61.440  0.00  0.00     0.022 C 
ENDROOT
BRANCH   2  19
HETATM   19  O   UNK N   1      29.887  43.909  60.216  0.00  0.00    -0.311 OA
BRANCH  19  20
HETATM   20  C   UNK N   1      29.262  44.416  59.120  0.00  0.00     0.293 C 
HETATM   21  O   UNK N   1      28.482  43.730  58.474  0.00  0.00    -0.259 OA
BRANCH  20  22
HETATM   22  C   UNK N   1      29.471  45.839  58.766  0.00  0.00     0.039 A 
HETATM   23  C   UNK N   1      30.352  46.199  57.729  0.00  0.00     0.017 A 
HETATM   24  C   UNK N   1      30.522  47.544  57.385  0.00  0.00     0.001 A 
HETATM   25  C   UNK N   1      29.828  48.538  58.079  0.00  0.00     0.000 A 
HETATM   26  C   UNK N   1      28.959  48.191  59.115  0.00  0.00     0.001 A 
HETATM   27  C   UNK N   1      28.775  46.847  59.456  0.00  0.00     0.017 A 
ENDBRANCH  20  22
ENDBRANCH  19  20
ENDBRANCH   2  19
BRANCH   5  28
HETATM   28  O   UNK N   1      33.543  46.176  65.226  0.00  0.00    -0.356 OA
HETATM   29  H   UNK N   1      32.723  45.670  65.145  0.00  0.00     0.218 HD
ENDBRANCH   5  28
BRANCH  12  30
HETATM   30  C   UNK N   1      38.535  46.732  64.726  0.00  0.00     0.014 C 
HETATM   31  C   UNK N   1      39.597  45.626  64.767  0.00  0.00     0.015 C 
HETATM   32  C   UNK N   1      39.067  47.937  63.930  0.00  0.00     0.015 C 
ENDBRANCH  12  30
TORSDOF 5
ENDMDL
MODEL 8
REMARK VINA RESULT:      -6.7     13.879     16.902
REMARK  5 active torsions:
REMARK  status: ('A' for Active; 'I' for Inactive)
REMARK    1  A    between atoms: O_1  and  C_11 
REMARK    2  A    between atoms: O_1  and  C_13 
REMARK    3  A    between atoms: O_4  and  C_15 
REMARK    4  A    between atoms: C_5  and  C_13 
REMARK    5  A    between atoms: C_22  and  C_27 
ROOT
HETATM    1  O   UNK N   1      28.099  34.648  58.941  0.00  0.00    -0.285 OA
HETATM    2  C   UNK N   1      30.272  41.728  56.859  0.00  0.00     0.144 C 
HETATM    3  C   UNK N   1      28.762  39.060  56.863  0.00  0.00     0.011 A 
HETATM    4  C   UNK N   1      28.504  35.281  57.977  0.00  0.00     0.212 A 
HETATM    5  C   UNK N   1      28.414  36.769  57.984  0.00  0.00     0.124 A 
HETATM    6  C   UNK N   1      28.881  37.503  56.924  0.00  0.00     0.002 A 
HETATM    7  C   UNK N   1      29.476  39.682  55.613  0.00  0.00    -0.057 A 
HETATM    8  C   UNK N   1      29.671  41.238  55.502  0.00  0.00     0.004 C 
HETATM    9  C   UNK N   1      29.472  41.233  58.071  0.00  0.00     0.035 C 
HETATM   10  C   UNK N   1      29.441  39.697  58.113  0.00  0.00     0.021 C 
HETATM   11  C   UNK N   1      27.236  39.351  56.829  0.00  0.00     0.025 C 
HETATM   12  C   UNK N   1      29.091  34.560  56.819  0.00  0.00    -0.001 A 
HETATM   13  C   UNK N   1      29.488  36.763  55.781  0.00  0.00    -0.025 A 
HETATM   14  C   UNK N   1      30.015  38.872  54.668  0.00  0.00     0.006 A 
HETATM   15  C   UNK N   1      29.558  35.281  55.783  0.00  0.00     0.023 A 
HETATM   16  C   UNK N   1      29.988  37.416  54.736  0.00  0.00     0.012 A 
HETATM   17  C   UNK N   1      30.685  41.648  54.389  0.00  0.00     0.022 C 
HETATM   18  C   UNK N   1      28.365  41.992  55.140  0.00  0.00     0.022 C 
ENDROOT
BRANCH   2  19
HETATM   19  O   UNK N   1      30.314  43.114  56.897  0.00  0.00    -0.311 OA
BRANCH  19  20
HETATM   20  C   UNK N   1      31.259  43.861  57.529  0.00  0.00     0.293 C 
HETATM   21  O   UNK N   1      32.447  43.599  57.403  0.00  0.00    -0.259 OA
BRANCH  20  22
HETATM   22  C   UNK N   1      30.837  45.050  58.303  0.00  0.00     0.039 A 
HETATM   23  C   UNK N   1      30.622  46.285  57.663  0.00  0.00     0.017 A 
HETATM   24  C   UNK N   1      30.198  47.395  58.401  0.00  0.00     0.001 A 
HETATM   25  C   UNK N   1      29.998  47.287  59.779  0.00  0.00     0.000 A 
HETATM   26  C   UNK N   1      30.218  46.068  60.424  0.00  0.00     0.001 A 
HETATM   27  C   UNK N   1      30.630  44.951  59.691  0.00  0.00     0.017 A 
ENDBRANCH  20  22
ENDBRANCH  19  20
ENDBRANCH   2  19
BRANCH   5  28
HETATM   28  O   UNK N   1      27.861  37.377  59.059  0.00  0.00    -0.356 OA
HETATM   29  H   UNK N   1      27.882  38.335  59.183  0.00  0.00     0.218 HD
ENDBRANCH   5  28
BRANCH  12  30
HETATM   30  C   UNK N   1      29.143  33.029  56.840  0.00  0.00     0.014 C 
HETATM   31  C   UNK N   1      27.753  32.463  56.521  0.00  0.00     0.015 C 
HETATM   32  C   UNK N   1      30.189  32.399  55.903  0.00  0.00     0.015 C 
ENDBRANCH  12  30
TORSDOF 5
ENDMDL
MODEL 9
REMARK VINA RESULT:      -6.7     13.469     16.267
REMARK  5 active torsions:
REMARK  status: ('A' for Active; 'I' for Inactive)
REMARK    1  A    between atoms: O_1  and  C_11 
REMARK    2  A    between atoms: O_1  and  C_13 
REMARK    3  A    between atoms: O_4  and  C_15 
REMARK    4  A    between atoms: C_5  and  C_13 
REMARK    5  A    between atoms: C_22  and  C_27 
ROOT
HETATM    1  O   UNK N   1      26.200  48.528  59.806  0.00  0.00    -0.285 OA
HETATM    2  C   UNK N   1      29.460  42.412  56.466  0.00  0.00     0.144 C 
HETATM    3  C   UNK N   1      28.975  44.693  58.456  0.00  0.00     0.011 A 
HETATM    4  C   UNK N   1      27.267  48.138  59.354  0.00  0.00     0.212 A 
HETATM    5  C   UNK N   1      27.492  46.678  59.157  0.00  0.00     0.124 A 
HETATM    6  C   UNK N   1      28.672  46.217  58.633  0.00  0.00     0.002 A 
HETATM    7  C   UNK N   1      30.334  44.418  57.724  0.00  0.00    -0.057 A 
HETATM    8  C   UNK N   1      30.698  42.967  57.243  0.00  0.00     0.004 C 
HETATM    9  C   UNK N   1      28.155  42.553  57.260  0.00  0.00     0.035 C 
HETATM   10  C   UNK N   1      27.869  44.029  57.582  0.00  0.00     0.021 C 
HETATM   11  C   UNK N   1      28.995  44.112  59.896  0.00  0.00     0.025 C 
HETATM   12  C   UNK N   1      28.319  49.125  58.998  0.00  0.00    -0.001 A 
HETATM   13  C   UNK N   1      29.707  47.224  58.260  0.00  0.00    -0.025 A 
HETATM   14  C   UNK N   1      31.160  45.450  57.417  0.00  0.00     0.006 A 
HETATM   15  C   UNK N   1      29.473  48.672  58.475  0.00  0.00     0.023 A 
HETATM   16  C   UNK N   1      30.861  46.846  57.718  0.00  0.00     0.012 A 
HETATM   17  C   UNK N   1      31.901  42.937  56.249  0.00  0.00     0.022 C 
HETATM   18  C   UNK N   1      31.123  42.029  58.402  0.00  0.00     0.022 C 
ENDROOT
BRANCH   2  19
HETATM   19  O   UNK N   1      29.644  41.073  56.157  0.00  0.00    -0.311 OA
BRANCH  19  20
HETATM   20  C   UNK N   1      29.381  40.494  54.954  0.00  0.00     0.293 C 
HETATM   21  O   UNK N   1      29.564  39.297  54.786  0.00  0.00    -0.259 OA
BRANCH  20  22
HETATM   22  C   UNK N   1      28.788  41.316  53.874  0.00  0.00     0.039 A 
HETATM   23  C   UNK N   1      27.392  41.426  53.740  0.00  0.00     0.017 A 
HETATM   24  C   UNK N   1      26.844  42.226  52.732  0.00  0.00     0.001 A 
HETATM   25  C   UNK N   1      27.680  42.909  51.845  0.00  0.00     0.000 A 
HETATM   26  C   UNK N   1      29.066  42.798  51.965  0.00  0.00     0.001 A 
HETATM   27  C   UNK N   1      29.621  42.010  52.978  0.00  0.00     0.017 A 
ENDBRANCH  20  22
ENDBRANCH  19  20
ENDBRANCH   2  19
BRANCH   5  28
HETATM   28  O   UNK N   1      26.506  45.820  59.508  0.00  0.00    -0.356 OA
HETATM   29  H   UNK N   1      26.353  44.986  59.043  0.00  0.00     0.218 HD
ENDBRANCH   5  28
BRANCH  12  30
HETATM   30  C   UNK N   1      28.057  50.616  59.240  0.00  0.00     0.014 C 
HETATM   31  C   UNK N   1      28.329  50.953  60.711  0.00  0.00     0.015 C 
HETATM   32  C   UNK N   1      28.850  51.571  58.330  0.00  0.00     0.015 C 
ENDBRANCH  12  30
TORSDOF 5
ENDMDL
