MODEL 1
REMARK VINA RESULT:      -7.8      0.000      0.000
REMARK  5 active torsions:
REMARK  status: ('A' for Active; 'I' for Inactive)
REMARK    1  A    between atoms: O_1  and  C_6 
REMARK    2  A    between atoms: O_1  and  C_8 
REMARK    3  A    between atoms: O_4  and  C_10 
REMARK    4  A    between atoms: O_5  and  C_11 
REMARK    5  A    between atoms: C_11  and  C_18 
ROOT
HETATM    1  O   UNK N   1      41.408  50.164  44.498  0.00  0.00    -0.285 OA
HETATM    2  C   UNK N   1      41.466  45.362  50.438  0.00  0.00     0.144 C 
HETATM    3  C   UNK N   1      41.358  46.286  47.517  0.00  0.00     0.011 C 
HETATM    4  C   UNK N   1      40.766  49.230  44.947  0.00  0.00     0.214 A 
HETATM    5  C   UNK N   1      41.417  48.309  45.924  0.00  0.00     0.125 A 
HETATM    6  C   UNK N   1      40.713  47.290  46.506  0.00  0.00     0.002 A 
HETATM    7  C   UNK N   1      40.303  45.342  48.193  0.00  0.00    -0.057 C 
HETATM    8  C   UNK N   1      40.702  44.457  49.426  0.00  0.00     0.004 C 
HETATM    9  C   UNK N   1      42.613  46.142  49.779  0.00  0.00     0.035 C 
HETATM   10  C   UNK N   1      42.066  47.059  48.673  0.00  0.00     0.021 C 
HETATM   11  C   UNK N   1      42.372  45.465  46.679  0.00  0.00     0.025 C 
HETATM   12  C   UNK N   1      39.352  49.006  44.507  0.00  0.00     0.029 A 
HETATM   13  C   UNK N   1      39.286  47.124  46.114  0.00  0.00    -0.025 A 
HETATM   14  C   UNK N   1      39.014  45.350  47.769  0.00  0.00     0.006 C 
HETATM   15  C   UNK N   1      38.674  47.987  45.076  0.00  0.00     0.026 A 
HETATM   16  C   UNK N   1      38.522  46.204  46.695  0.00  0.00     0.012 C 
HETATM   17  C   UNK N   1      39.471  43.889  50.199  0.00  0.00     0.022 C 
HETATM   18  C   UNK N   1      41.531  43.216  49.015  0.00  0.00     0.022 C 
ENDROOT
BRANCH  12  19
HETATM   19  C   UNK N   1      38.702  49.934  43.446  0.00  0.00     0.082 C 
HETATM   20  C   UNK N   1      39.124  49.510  42.018  0.00  0.00     0.051 C 
HETATM   21  C   UNK N   1      37.156  49.914  43.468  0.00  0.00     0.051 C 
BRANCH  19  22
HETATM   22  O   UNK N   1      39.083  51.266  43.700  0.00  0.00    -0.386 OA
HETATM   23  H   UNK N   1      40.026  51.286  43.997  0.00  0.00     0.211 HD
ENDBRANCH  19  22
ENDBRANCH  12  19
BRANCH   5  24
HETATM   24  O   UNK N   1      42.721  48.510  46.225  0.00  0.00    -0.356 OA
HETATM   25  H   UNK N   1      43.012  49.175  46.863  0.00  0.00     0.218 HD
ENDBRANCH   5  24
BRANCH   2  26
HETATM   26  O   UNK N   1      41.953  44.596  51.487  0.00  0.00    -0.315 OA
BRANCH  26  27
HETATM   27  C   UNK N   1      41.694  44.827  52.799  0.00  0.00     0.255 C 
HETATM   28  O   UNK N   1      42.180  45.790  53.376  0.00  0.00    -0.266 OA
HETATM   29  C   UNK N   1      40.784  43.899  53.534  0.00  0.00     0.126 C 
ENDBRANCH  26  27
ENDBRANCH   2  26
TORSDOF 5
ENDMDL
MODEL 2
REMARK VINA RESULT:      -6.5     15.275     17.122
REMARK  5 active torsions:
REMARK  status: ('A' for Active; 'I' for Inactive)
REMARK    1  A    between atoms: O_1  and  C_6 
REMARK    2  A    between atoms: O_1  and  C_8 
REMARK    3  A    between atoms: O_4  and  C_10 
REMARK    4  A    between atoms: O_5  and  C_11 
REMARK    5  A    between atoms: C_11  and  C_18 
ROOT
HETATM    1  O   UNK N   1      45.666  31.978  47.533  0.00  0.00    -0.285 OA
HETATM    2  C   UNK N   1      48.577  32.558  54.571  0.00  0.00     0.144 C 
HETATM    3  C   UNK N   1      47.978  33.311  51.660  0.00  0.00     0.011 C 
HETATM    4  C   UNK N   1      46.736  32.170  48.086  0.00  0.00     0.214 A 
HETATM    5  C   UNK N   1      46.743  32.639  49.503  0.00  0.00     0.125 A 
HETATM    6  C   UNK N   1      47.918  32.801  50.183  0.00  0.00     0.002 A 
HETATM    7  C   UNK N   1      49.416  33.217  52.279  0.00  0.00    -0.057 C 
HETATM    8  C   UNK N   1      49.635  33.421  53.820  0.00  0.00     0.004 C 
HETATM    9  C   UNK N   1      47.150  32.805  54.063  0.00  0.00     0.035 C 
HETATM   10  C   UNK N   1      47.048  32.450  52.570  0.00  0.00     0.021 C 
HETATM   11  C   UNK N   1      47.502  34.786  51.597  0.00  0.00     0.025 C 
HETATM   12  C   UNK N   1      48.017  31.955  47.343  0.00  0.00     0.029 A 
HETATM   13  C   UNK N   1      49.185  32.511  49.454  0.00  0.00    -0.025 A 
HETATM   14  C   UNK N   1      50.471  32.875  51.497  0.00  0.00     0.006 C 
HETATM   15  C   UNK N   1      49.171  32.134  48.021  0.00  0.00     0.026 A 
HETATM   16  C   UNK N   1      50.358  32.573  50.075  0.00  0.00     0.012 C 
HETATM   17  C   UNK N   1      51.029  32.923  54.314  0.00  0.00     0.022 C 
HETATM   18  C   UNK N   1      49.568  34.912  54.231  0.00  0.00     0.022 C 
ENDROOT
BRANCH  12  19
HETATM   19  C   UNK N   1      48.000  31.524  45.852  0.00  0.00     0.082 C 
HETATM   20  C   UNK N   1      49.425  31.584  45.250  0.00  0.00     0.051 C 
HETATM   21  C   UNK N   1      47.493  30.081  45.628  0.00  0.00     0.051 C 
BRANCH  19  22
HETATM   22  O   UNK N   1      47.125  32.366  45.136  0.00  0.00    -0.386 OA
HETATM   23  H   UNK N   1      47.651  32.951  44.536  0.00  0.00     0.211 HD
ENDBRANCH  19  22
ENDBRANCH  12  19
BRANCH   5  24
HETATM   24  O   UNK N   1      45.556  32.896  50.100  0.00  0.00    -0.356 OA
HETATM   25  H   UNK N   1      44.825  33.332  49.640  0.00  0.00     0.218 HD
ENDBRANCH   5  24
BRANCH   2  26
HETATM   26  O   UNK N   1      48.646  32.805  55.935  0.00  0.00    -0.315 OA
BRANCH  26  27
HETATM   27  C   UNK N   1      48.096  32.016  56.892  0.00  0.00     0.255 C 
HETATM   28  O   UNK N   1      47.490  32.501  57.837  0.00  0.00    -0.266 OA
HETATM   29  C   UNK N   1      48.217  30.532  56.768  0.00  0.00     0.126 C 
ENDBRANCH  26  27
ENDBRANCH   2  26
TORSDOF 5
ENDMDL
MODEL 3
REMARK VINA RESULT:      -6.4      9.405     15.847
REMARK  5 active torsions:
REMARK  status: ('A' for Active; 'I' for Inactive)
REMARK    1  A    between atoms: O_1  and  C_6 
REMARK    2  A    between atoms: O_1  and  C_8 
REMARK    3  A    between atoms: O_4  and  C_10 
REMARK    4  A    between atoms: O_5  and  C_11 
REMARK    5  A    between atoms: C_11  and  C_18 
ROOT
HETATM    1  O   UNK N   1      32.627  52.812  44.885  0.00  0.00    -0.285 OA
HETATM    2  C   UNK N   1      29.346  57.048  39.441  0.00  0.00     0.144 C 
HETATM    3  C   UNK N   1      29.673  54.795  41.493  0.00  0.00     0.011 C 
HETATM    4  C   UNK N   1      32.088  52.679  43.799  0.00  0.00     0.214 A 
HETATM    5  C   UNK N   1      31.199  53.768  43.296  0.00  0.00     0.125 A 
HETATM    6  C   UNK N   1      30.630  53.692  42.055  0.00  0.00     0.002 A 
HETATM    7  C   UNK N   1      29.316  54.578  39.981  0.00  0.00    -0.057 C 
HETATM    8  C   UNK N   1      28.599  55.709  39.163  0.00  0.00     0.004 C 
HETATM    9  C   UNK N   1      29.523  57.322  40.941  0.00  0.00     0.035 C 
HETATM   10  C   UNK N   1      30.347  56.199  41.593  0.00  0.00     0.021 C 
HETATM   11  C   UNK N   1      28.401  54.713  42.375  0.00  0.00     0.025 C 
HETATM   12  C   UNK N   1      32.305  51.434  42.997  0.00  0.00     0.029 A 
HETATM   13  C   UNK N   1      30.914  52.479  41.237  0.00  0.00    -0.025 A 
HETATM   14  C   UNK N   1      29.703  53.442  39.348  0.00  0.00     0.006 C 
HETATM   15  C   UNK N   1      31.724  51.364  41.781  0.00  0.00     0.026 A 
HETATM   16  C   UNK N   1      30.456  52.374  39.993  0.00  0.00     0.012 C 
HETATM   17  C   UNK N   1      28.666  55.489  37.620  0.00  0.00     0.022 C 
HETATM   18  C   UNK N   1      27.089  55.807  39.494  0.00  0.00     0.022 C 
ENDROOT
BRANCH  12  19
HETATM   19  C   UNK N   1      33.184  50.282  43.554  0.00  0.00     0.082 C 
HETATM   20  C   UNK N   1      32.911  48.967  42.785  0.00  0.00     0.051 C 
HETATM   21  C   UNK N   1      34.703  50.548  43.439  0.00  0.00     0.051 C 
BRANCH  19  22
HETATM   22  O   UNK N   1      32.915  50.117  44.928  0.00  0.00    -0.386 OA
HETATM   23  H   UNK N   1      32.028  49.692  45.039  0.00  0.00     0.211 HD
ENDBRANCH  19  22
ENDBRANCH  12  19
BRANCH   5  24
HETATM   24  O   UNK N   1      30.974  54.835  44.097  0.00  0.00    -0.356 OA
HETATM   25  H   UNK N   1      30.790  54.747  45.043  0.00  0.00     0.218 HD
ENDBRANCH   5  24
BRANCH   2  26
HETATM   26  O   UNK N   1      28.671  58.101  38.842  0.00  0.00    -0.315 OA
BRANCH  26  27
HETATM   27  C   UNK N   1      28.821  59.407  39.177  0.00  0.00     0.255 C 
HETATM   28  O   UNK N   1      29.894  59.976  39.029  0.00  0.00    -0.266 OA
HETATM   29  C   UNK N   1      27.647  60.159  39.714  0.00  0.00     0.126 C 
ENDBRANCH  26  27
ENDBRANCH   2  26
TORSDOF 5
ENDMDL
MODEL 4
REMARK VINA RESULT:      -6.1     14.717     17.940
REMARK  5 active torsions:
REMARK  status: ('A' for Active; 'I' for Inactive)
REMARK    1  A    between atoms: O_1  and  C_6 
REMARK    2  A    between atoms: O_1  and  C_8 
REMARK    3  A    between atoms: O_4  and  C_10 
REMARK    4  A    between atoms: O_5  and  C_11 
REMARK    5  A    between atoms: C_11  and  C_18 
ROOT
HETATM    1  O   UNK N   1      50.493  35.883  55.285  0.00  0.00    -0.285 OA
HETATM    2  C   UNK N   1      46.652  32.772  49.461  0.00  0.00     0.144 C 
HETATM    3  C   UNK N   1      48.307  32.910  52.038  0.00  0.00     0.011 C 
HETATM    4  C   UNK N   1      50.638  35.035  54.421  0.00  0.00     0.214 A 
HETATM    5  C   UNK N   1      49.427  34.460  53.763  0.00  0.00     0.125 A 
HETATM    6  C   UNK N   1      49.545  33.558  52.741  0.00  0.00     0.002 A 
HETATM    7  C   UNK N   1      48.697  32.071  50.772  0.00  0.00    -0.057 C 
HETATM    8  C   UNK N   1      47.591  31.570  49.777  0.00  0.00     0.004 C 
HETATM    9  C   UNK N   1      46.140  33.467  50.731  0.00  0.00     0.035 C 
HETATM   10  C   UNK N   1      47.320  34.016  51.550  0.00  0.00     0.021 C 
HETATM   11  C   UNK N   1      47.657  32.006  53.117  0.00  0.00     0.025 C 
HETATM   12  C   UNK N   1      52.009  34.571  54.042  0.00  0.00     0.029 A 
HETATM   13  C   UNK N   1      50.919  33.160  52.325  0.00  0.00    -0.025 A 
HETATM   14  C   UNK N   1      50.004  31.845  50.482  0.00  0.00     0.006 C 
HETATM   15  C   UNK N   1      52.111  33.668  53.044  0.00  0.00     0.026 A 
HETATM   16  C   UNK N   1      51.108  32.348  51.290  0.00  0.00     0.012 C 
HETATM   17  C   UNK N   1      48.167  31.099  48.404  0.00  0.00     0.022 C 
HETATM   18  C   UNK N   1      46.812  30.352  50.330  0.00  0.00     0.022 C 
ENDROOT
BRANCH  12  19
HETATM   19  C   UNK N   1      53.260  35.132  54.771  0.00  0.00     0.082 C 
HETATM   20  C   UNK N   1      54.511  34.282  54.441  0.00  0.00     0.051 C 
HETATM   21  C   UNK N   1      53.606  36.588  54.381  0.00  0.00     0.051 C 
BRANCH  19  22
HETATM   22  O   UNK N   1      53.020  35.142  56.160  0.00  0.00    -0.386 OA
HETATM   23  H   UNK N   1      52.963  36.078  56.476  0.00  0.00     0.211 HD
ENDBRANCH  19  22
ENDBRANCH  12  19
BRANCH   5  24
HETATM   24  O   UNK N   1      48.210  34.856  54.201  0.00  0.00    -0.356 OA
HETATM   25  H   UNK N   1      47.836  34.559  55.042  0.00  0.00     0.218 HD
ENDBRANCH   5  24
BRANCH   2  26
HETATM   26  O   UNK N   1      45.582  32.347  48.687  0.00  0.00    -0.315 OA
BRANCH  26  27
HETATM   27  C   UNK N   1      44.937  33.114  47.771  0.00  0.00     0.255 C 
HETATM   28  O   UNK N   1      43.844  33.604  48.018  0.00  0.00    -0.266 OA
HETATM   29  C   UNK N   1      45.592  33.376  46.455  0.00  0.00     0.126 C 
ENDBRANCH  26  27
ENDBRANCH   2  26
TORSDOF 5
ENDMDL
MODEL 5
REMARK VINA RESULT:      -6.0     14.002     16.190
REMARK  5 active torsions:
REMARK  status: ('A' for Active; 'I' for Inactive)
REMARK    1  A    between atoms: O_1  and  C_6 
REMARK    2  A    between atoms: O_1  and  C_8 
REMARK    3  A    between atoms: O_4  and  C_10 
REMARK    4  A    between atoms: O_5  and  C_11 
REMARK    5  A    between atoms: C_11  and  C_18 
ROOT
HETATM    1  O   UNK N   1      28.769  50.933  57.208  0.00  0.00    -0.285 OA
HETATM    2  C   UNK N   1      31.961  44.190  58.848  0.00  0.00     0.144 C 
HETATM    3  C   UNK N   1      29.795  46.351  58.662  0.00  0.00     0.011 C 
HETATM    4  C   UNK N   1      28.894  50.165  58.147  0.00  0.00     0.214 A 
HETATM    5  C   UNK N   1      29.238  48.739  57.873  0.00  0.00     0.125 A 
HETATM    6  C   UNK N   1      29.456  47.860  58.898  0.00  0.00     0.002 A 
HETATM    7  C   UNK N   1      30.198  45.604  59.980  0.00  0.00    -0.057 C 
HETATM    8  C   UNK N   1      30.832  44.169  59.921  0.00  0.00     0.004 C 
HETATM    9  C   UNK N   1      31.486  44.764  57.506  0.00  0.00     0.035 C 
HETATM   10  C   UNK N   1      31.006  46.213  57.687  0.00  0.00     0.021 C 
HETATM   11  C   UNK N   1      28.507  45.738  58.054  0.00  0.00     0.025 C 
HETATM   12  C   UNK N   1      28.688  50.648  59.549  0.00  0.00     0.029 A 
HETATM   13  C   UNK N   1      29.319  48.373  60.290  0.00  0.00    -0.025 A 
HETATM   14  C   UNK N   1      30.079  46.229  61.179  0.00  0.00     0.006 C 
HETATM   15  C   UNK N   1      28.889  49.767  60.551  0.00  0.00     0.026 A 
HETATM   16  C   UNK N   1      29.591  47.594  61.333  0.00  0.00     0.012 C 
HETATM   17  C   UNK N   1      31.514  43.743  61.258  0.00  0.00     0.022 C 
HETATM   18  C   UNK N   1      29.778  43.072  59.635  0.00  0.00     0.022 C 
ENDROOT
BRANCH  12  19
HETATM   19  C   UNK N   1      28.273  52.120  59.822  0.00  0.00     0.082 C 
HETATM   20  C   UNK N   1      26.800  52.356  59.409  0.00  0.00     0.051 C 
HETATM   21  C   UNK N   1      28.381  52.530  61.309  0.00  0.00     0.051 C 
BRANCH  19  22
HETATM   22  O   UNK N   1      29.131  52.982  59.111  0.00  0.00    -0.386 OA
HETATM   23  H   UNK N   1      28.601  53.511  58.463  0.00  0.00     0.211 HD
ENDBRANCH  19  22
ENDBRANCH  12  19
BRANCH   5  24
HETATM   24  O   UNK N   1      29.333  48.338  56.584  0.00  0.00    -0.356 OA
HETATM   25  H   UNK N   1      29.711  47.485  56.330  0.00  0.00     0.218 HD
ENDBRANCH   5  24
BRANCH   2  26
HETATM   26  O   UNK N   1      32.466  42.910  58.666  0.00  0.00    -0.315 OA
BRANCH  26  27
HETATM   27  C   UNK N   1      33.709  42.510  59.033  0.00  0.00     0.255 C 
HETATM   28  O   UNK N   1      34.696  43.168  58.736  0.00  0.00    -0.266 OA
HETATM   29  C   UNK N   1      33.862  41.257  59.832  0.00  0.00     0.126 C 
ENDBRANCH  26  27
ENDBRANCH   2  26
TORSDOF 5
ENDMDL
MODEL 6
REMARK VINA RESULT:      -5.8     15.004     17.211
REMARK  5 active torsions:
REMARK  status: ('A' for Active; 'I' for Inactive)
REMARK    1  A    between atoms: O_1  and  C_6 
REMARK    2  A    between atoms: O_1  and  C_8 
REMARK    3  A    between atoms: O_4  and  C_10 
REMARK    4  A    between atoms: O_5  and  C_11 
REMARK    5  A    between atoms: C_11  and  C_18 
ROOT
HETATM    1  O   UNK N   1      47.989  31.392  47.677  0.00  0.00    -0.285 OA
HETATM    2  C   UNK N   1      52.244  34.226  53.352  0.00  0.00     0.144 C 
HETATM    3  C   UNK N   1      50.002  32.647  51.981  0.00  0.00     0.011 C 
HETATM    4  C   UNK N   1      47.858  32.002  48.724  0.00  0.00     0.214 A 
HETATM    5  C   UNK N   1      48.960  31.956  49.730  0.00  0.00     0.125 A 
HETATM    6  C   UNK N   1      48.884  32.681  50.888  0.00  0.00     0.002 A 
HETATM    7  C   UNK N   1      49.780  33.712  53.111  0.00  0.00    -0.057 C 
HETATM    8  C   UNK N   1      50.918  34.024  54.146  0.00  0.00     0.004 C 
HETATM    9  C   UNK N   1      52.527  33.074  52.378  0.00  0.00     0.035 C 
HETATM   10  C   UNK N   1      51.393  32.959  51.346  0.00  0.00     0.021 C 
HETATM   11  C   UNK N   1      49.954  31.211  52.563  0.00  0.00     0.025 C 
HETATM   12  C   UNK N   1      46.601  32.769  48.998  0.00  0.00     0.029 A 
HETATM   13  C   UNK N   1      47.659  33.498  51.113  0.00  0.00    -0.025 A 
HETATM   14  C   UNK N   1      48.631  34.433  53.149  0.00  0.00     0.006 C 
HETATM   15  C   UNK N   1      46.532  33.466  50.152  0.00  0.00     0.026 A 
HETATM   16  C   UNK N   1      47.553  34.286  52.179  0.00  0.00     0.012 C 
HETATM   17  C   UNK N   1      50.683  35.348  54.938  0.00  0.00     0.022 C 
HETATM   18  C   UNK N   1      51.050  32.923  55.226  0.00  0.00     0.022 C 
ENDROOT
BRANCH  12  19
HETATM   19  C   UNK N   1      45.436  32.763  47.972  0.00  0.00     0.082 C 
HETATM   20  C   UNK N   1      44.132  33.284  48.624  0.00  0.00     0.051 C 
HETATM   21  C   UNK N   1      45.693  33.655  46.736  0.00  0.00     0.051 C 
BRANCH  19  22
HETATM   22  O   UNK N   1      45.256  31.454  47.483  0.00  0.00    -0.386 OA
HETATM   23  H   UNK N   1      45.291  31.466  46.494  0.00  0.00     0.211 HD
ENDBRANCH  19  22
ENDBRANCH  12  19
BRANCH   5  24
HETATM   24  O   UNK N   1      50.038  31.182  49.466  0.00  0.00    -0.356 OA
HETATM   25  H   UNK N   1      50.836  31.528  49.042  0.00  0.00     0.218 HD
ENDBRANCH   5  24
BRANCH   2  26
HETATM   26  O   UNK N   1      53.306  34.377  54.232  0.00  0.00    -0.315 OA
BRANCH  26  27
HETATM   27  C   UNK N   1      54.223  35.376  54.174  0.00  0.00     0.255 C 
HETATM   28  O   UNK N   1      55.357  35.215  54.603  0.00  0.00    -0.266 OA
HETATM   29  C   UNK N   1      53.838  36.679  53.554  0.00  0.00     0.126 C 
ENDBRANCH  26  27
ENDBRANCH   2  26
TORSDOF 5
ENDMDL
MODEL 7
REMARK VINA RESULT:      -5.5     14.328     16.597
REMARK  5 active torsions:
REMARK  status: ('A' for Active; 'I' for Inactive)
REMARK    1  A    between atoms: O_1  and  C_6 
REMARK    2  A    between atoms: O_1  and  C_8 
REMARK    3  A    between atoms: O_4  and  C_10 
REMARK    4  A    between atoms: O_5  and  C_11 
REMARK    5  A    between atoms: C_11  and  C_18 
ROOT
HETATM    1  O   UNK N   1      28.233  49.993  59.546  0.00  0.00    -0.285 OA
HETATM    2  C   UNK N   1      29.375  42.540  60.765  0.00  0.00     0.144 C 
HETATM    3  C   UNK N   1      30.050  45.508  60.406  0.00  0.00     0.011 C 
HETATM    4  C   UNK N   1      28.924  49.077  59.134  0.00  0.00     0.214 A 
HETATM    5  C   UNK N   1      29.105  47.867  59.989  0.00  0.00     0.125 A 
HETATM    6  C   UNK N   1      29.814  46.788  59.538  0.00  0.00     0.002 A 
HETATM    7  C   UNK N   1      30.713  44.339  59.598  0.00  0.00    -0.057 C 
HETATM    8  C   UNK N   1      30.784  42.893  60.203  0.00  0.00     0.004 C 
HETATM    9  C   UNK N   1      28.826  43.627  61.700  0.00  0.00     0.035 C 
HETATM   10  C   UNK N   1      28.693  44.960  60.945  0.00  0.00     0.021 C 
HETATM   11  C   UNK N   1      30.974  45.970  61.562  0.00  0.00     0.025 C 
HETATM   12  C   UNK N   1      29.592  49.178  57.798  0.00  0.00     0.029 A 
HETATM   13  C   UNK N   1      30.412  46.874  58.176  0.00  0.00    -0.025 A 
HETATM   14  C   UNK N   1      31.154  44.553  58.332  0.00  0.00     0.006 C 
HETATM   15  C   UNK N   1      30.303  48.113  57.372  0.00  0.00     0.026 A 
HETATM   16  C   UNK N   1      31.048  45.834  57.646  0.00  0.00     0.012 C 
HETATM   17  C   UNK N   1      31.113  41.797  59.141  0.00  0.00     0.022 C 
HETATM   18  C   UNK N   1      31.889  42.760  61.280  0.00  0.00     0.022 C 
ENDROOT
BRANCH  12  19
HETATM   19  C   UNK N   1      29.446  50.464  56.940  0.00  0.00     0.082 C 
HETATM   20  C   UNK N   1      30.552  50.527  55.859  0.00  0.00     0.051 C 
HETATM   21  C   UNK N   1      28.097  50.562  56.191  0.00  0.00     0.051 C 
BRANCH  19  22
HETATM   22  O   UNK N   1      29.513  51.592  57.782  0.00  0.00    -0.386 OA
HETATM   23  H   UNK N   1      30.405  51.629  58.210  0.00  0.00     0.211 HD
ENDBRANCH  19  22
ENDBRANCH  12  19
BRANCH   5  24
HETATM   24  O   UNK N   1      28.545  47.863  61.221  0.00  0.00    -0.356 OA
HETATM   25  H   UNK N   1      28.199  48.664  61.639  0.00  0.00     0.218 HD
ENDBRANCH   5  24
BRANCH   2  26
HETATM   26  O   UNK N   1      29.420  41.321  61.427  0.00  0.00    -0.315 OA
BRANCH  26  27
HETATM   27  C   UNK N   1      28.449  40.374  61.370  0.00  0.00     0.255 C 
HETATM   28  O   UNK N   1      28.219  39.650  62.328  0.00  0.00    -0.266 OA
HETATM   29  C   UNK N   1      27.641  40.237  60.121  0.00  0.00     0.126 C 
ENDBRANCH  26  27
ENDBRANCH   2  26
TORSDOF 5
ENDMDL
MODEL 8
REMARK VINA RESULT:      -5.3     13.586     15.418
REMARK  5 active torsions:
REMARK  status: ('A' for Active; 'I' for Inactive)
REMARK    1  A    between atoms: O_1  and  C_6 
REMARK    2  A    between atoms: O_1  and  C_8 
REMARK    3  A    between atoms: O_4  and  C_10 
REMARK    4  A    between atoms: O_5  and  C_11 
REMARK    5  A    between atoms: C_11  and  C_18 
ROOT
HETATM    1  O   UNK N   1      25.776  43.014  49.060  0.00  0.00    -0.285 OA
HETATM    2  C   UNK N   1      29.853  42.430  55.493  0.00  0.00     0.144 C 
HETATM    3  C   UNK N   1      27.587  41.911  53.494  0.00  0.00     0.011 C 
HETATM    4  C   UNK N   1      25.625  43.079  50.268  0.00  0.00     0.214 A 
HETATM    5  C   UNK N   1      26.647  42.457  51.159  0.00  0.00     0.125 A 
HETATM    6  C   UNK N   1      26.554  42.566  52.520  0.00  0.00     0.002 A 
HETATM    7  C   UNK N   1      27.377  42.349  54.986  0.00  0.00    -0.057 C 
HETATM    8  C   UNK N   1      28.464  42.024  56.071  0.00  0.00     0.004 C 
HETATM    9  C   UNK N   1      30.105  41.837  54.099  0.00  0.00     0.035 C 
HETATM   10  C   UNK N   1      29.039  42.333  53.109  0.00  0.00     0.021 C 
HETATM   11  C   UNK N   1      27.380  40.383  53.335  0.00  0.00     0.025 C 
HETATM   12  C   UNK N   1      24.421  43.760  50.841  0.00  0.00     0.029 A 
HETATM   13  C   UNK N   1      25.388  43.310  53.075  0.00  0.00    -0.025 A 
HETATM   14  C   UNK N   1      26.292  43.086  55.332  0.00  0.00     0.006 C 
HETATM   15  C   UNK N   1      24.331  43.846  52.185  0.00  0.00     0.026 A 
HETATM   16  C   UNK N   1      25.275  43.520  54.382  0.00  0.00     0.012 C 
HETATM   17  C   UNK N   1      28.286  42.846  57.385  0.00  0.00     0.022 C 
HETATM   18  C   UNK N   1      28.429  40.540  56.513  0.00  0.00     0.022 C 
ENDROOT
BRANCH  12  19
HETATM   19  C   UNK N   1      23.332  44.353  49.907  0.00  0.00     0.082 C 
HETATM   20  C   UNK N   1      22.438  43.229  49.328  0.00  0.00     0.051 C 
HETATM   21  C   UNK N   1      22.381  45.346  50.613  0.00  0.00     0.051 C 
BRANCH  19  22
HETATM   22  O   UNK N   1      23.955  45.074  48.869  0.00  0.00    -0.386 OA
HETATM   23  H   UNK N   1      24.337  45.911  49.235  0.00  0.00     0.211 HD
ENDBRANCH  19  22
ENDBRANCH  12  19
BRANCH   5  24
HETATM   24  O   UNK N   1      27.673  41.785  50.587  0.00  0.00    -0.356 OA
HETATM   25  H   UNK N   1      27.985  41.974  49.691  0.00  0.00     0.218 HD
ENDBRANCH   5  24
BRANCH   2  26
HETATM   26  O   UNK N   1      30.861  42.042  56.364  0.00  0.00    -0.315 OA
BRANCH  26  27
HETATM   27  C   UNK N   1      31.823  42.867  56.849  0.00  0.00     0.255 C 
HETATM   28  O   UNK N   1      32.516  43.537  56.096  0.00  0.00    -0.266 OA
HETATM   29  C   UNK N   1      32.016  42.968  58.327  0.00  0.00     0.126 C 
ENDBRANCH  26  27
ENDBRANCH   2  26
TORSDOF 5
ENDMDL
MODEL 9
REMARK VINA RESULT:      -5.3     15.394     18.020
REMARK  5 active torsions:
REMARK  status: ('A' for Active; 'I' for Inactive)
REMARK    1  A    between atoms: O_1  and  C_6 
REMARK    2  A    between atoms: O_1  and  C_8 
REMARK    3  A    between atoms: O_4  and  C_10 
REMARK    4  A    between atoms: O_5  and  C_11 
REMARK    5  A    between atoms: C_11  and  C_18 
ROOT
HETATM    1  O   UNK N   1      31.265  51.577  64.511  0.00  0.00    -0.285 OA
HETATM    2  C   UNK N   1      33.787  44.727  62.261  0.00  0.00     0.144 C 
HETATM    3  C   UNK N   1      33.591  47.285  63.939  0.00  0.00     0.011 C 
HETATM    4  C   UNK N   1      32.311  51.013  64.239  0.00  0.00     0.214 A 
HETATM    5  C   UNK N   1      32.356  49.521  64.267  0.00  0.00     0.125 A 
HETATM    6  C   UNK N   1      33.488  48.846  63.902  0.00  0.00     0.002 A 
HETATM    7  C   UNK N   1      34.911  46.748  63.284  0.00  0.00    -0.057 C 
HETATM    8  C   UNK N   1      35.081  45.218  62.977  0.00  0.00     0.004 C 
HETATM    9  C   UNK N   1      32.512  45.115  63.022  0.00  0.00     0.035 C 
HETATM   10  C   UNK N   1      32.410  46.644  63.145  0.00  0.00     0.021 C 
HETATM   11  C   UNK N   1      33.532  46.912  65.442  0.00  0.00     0.025 C 
HETATM   12  C   UNK N   1      33.531  51.810  63.898  0.00  0.00     0.029 A 
HETATM   13  C   UNK N   1      34.673  49.652  63.495  0.00  0.00    -0.025 A 
HETATM   14  C   UNK N   1      35.882  47.615  62.901  0.00  0.00     0.006 C 
HETATM   15  C   UNK N   1      34.646  51.132  63.556  0.00  0.00     0.026 A 
HETATM   16  C   UNK N   1      35.779  49.061  63.055  0.00  0.00     0.012 C 
HETATM   17  C   UNK N   1      36.258  44.915  61.997  0.00  0.00     0.022 C 
HETATM   18  C   UNK N   1      35.390  44.393  64.250  0.00  0.00     0.022 C 
ENDROOT
BRANCH  12  19
HETATM   19  C   UNK N   1      33.491  53.362  63.928  0.00  0.00     0.082 C 
HETATM   20  C   UNK N   1      33.482  53.880  65.387  0.00  0.00     0.051 C 
HETATM   21  C   UNK N   1      34.703  54.028  63.236  0.00  0.00     0.051 C 
BRANCH  19  22
HETATM   22  O   UNK N   1      32.348  53.809  63.236  0.00  0.00    -0.386 OA
HETATM   23  H   UNK N   1      32.476  54.753  62.967  0.00  0.00     0.211 HD
ENDBRANCH  19  22
ENDBRANCH  12  19
BRANCH   5  24
HETATM   24  O   UNK N   1      31.247  48.853  64.660  0.00  0.00    -0.356 OA
HETATM   25  H   UNK N   1      30.992  47.999  64.285  0.00  0.00     0.218 HD
ENDBRANCH   5  24
BRANCH   2  26
HETATM   26  O   UNK N   1      33.835  43.352  62.084  0.00  0.00    -0.315 OA
BRANCH  26  27
HETATM   27  C   UNK N   1      33.298  42.689  61.029  0.00  0.00     0.255 C 
HETATM   28  O   UNK N   1      32.241  42.084  61.137  0.00  0.00    -0.266 OA
HETATM   29  C   UNK N   1      34.006  42.723  59.714  0.00  0.00     0.126 C 
ENDBRANCH  26  27
ENDBRANCH   2  26
TORSDOF 5
ENDMDL
