MODEL 1
REMARK VINA RESULT:      -6.3      0.000      0.000
REMARK  9 active torsions:
REMARK  status: ('A' for Active; 'I' for Inactive)
REMARK    1  A    between atoms: O_1  and  C_6 
REMARK    2  A    between atoms: O_1  and  C_16 
REMARK    3  A    between atoms: O_2  and  C_7 
REMARK    4  A    between atoms: O_3  and  C_8 
REMARK    5  A    between atoms: O_5  and  C_17 
REMARK    6  A    between atoms: C_7  and  C_9 
REMARK    7  A    between atoms: C_7  and  C_21 
REMARK    8  A    between atoms: C_17  and  C_30 
REMARK    9  A    between atoms: C_21  and  C_31 
ROOT
HETATM    1  C   UNK N   1      34.801  46.618  64.013  0.00  0.00     0.140 C 
HETATM    2  C   UNK N   1      31.654  43.729  57.860  0.00  0.00     0.126 C 
HETATM    3  C   UNK N   1      30.521  43.835  58.919  0.00  0.00     0.053 C 
HETATM    4  C   UNK N   1      32.225  42.335  59.836  0.00  0.00    -0.034 C 
HETATM    5  C   UNK N   1      32.907  44.253  63.370  0.00  0.00    -0.035 C 
HETATM    6  C   UNK N   1      30.689  42.527  59.749  0.00  0.00     0.003 C 
HETATM    7  C   UNK N   1      32.884  43.352  60.869  0.00  0.00    -0.001 C 
HETATM    8  C   UNK N   1      32.231  43.278  62.284  0.00  0.00    -0.001 C 
HETATM    9  C   UNK N   1      34.503  44.106  63.359  0.00  0.00     0.004 C 
HETATM   10  C   UNK N   1      35.306  45.160  64.276  0.00  0.00    -0.017 C 
HETATM   11  C   UNK N   1      33.261  46.716  64.099  0.00  0.00     0.034 C 
HETATM   12  C   UNK N   1      32.627  42.643  58.375  0.00  0.00     0.042 C 
HETATM   13  C   UNK N   1      32.563  45.755  63.109  0.00  0.00     0.012 C 
HETATM   14  C   UNK N   1      30.056  42.477  61.153  0.00  0.00     0.006 C 
HETATM   15  C   UNK N   1      30.686  43.485  62.124  0.00  0.00     0.006 C 
HETATM   16  C   UNK N   1      34.393  43.112  61.000  0.00  0.00     0.006 C 
HETATM   17  C   UNK N   1      35.031  44.157  61.892  0.00  0.00     0.007 C 
HETATM   18  C   UNK N   1      32.575  40.857  60.179  0.00  0.00     0.016 C 
HETATM   19  C   UNK N   1      32.301  43.809  64.739  0.00  0.00     0.016 C 
HETATM   20  C   UNK N   1      36.842  45.107  64.002  0.00  0.00     0.018 C 
HETATM   21  C   UNK N   1      35.217  44.846  65.799  0.00  0.00     0.018 C 
ENDROOT
BRANCH   3  22
HETATM   22  C   UNK N   1      29.094  44.205  58.359  0.00  0.00     0.064 C 
HETATM   23  C   UNK N   1      28.180  42.965  58.438  0.00  0.00     0.046 C 
BRANCH  22  24
HETATM   24  O   UNK N   1      29.219  44.526  56.989  0.00  0.00    -0.389 OA
HETATM   25  H   UNK N   1      28.850  45.432  56.824  0.00  0.00     0.210 HD
ENDBRANCH  22  24
BRANCH  22  26
HETATM   26  C   UNK N   1      28.411  45.368  59.159  0.00  0.00     0.065 C 
BRANCH  26  27
HETATM   27  C   UNK N   1      29.399  46.279  59.866  0.00  0.00    -0.025 C 
HETATM   28  C   UNK N   1      29.914  47.416  59.347  0.00  0.00     0.006 C 
BRANCH  28  29
HETATM   29  C   UNK N   1      29.684  47.945  57.932  0.00  0.00     0.068 C 
HETATM   30  C   UNK N   1      28.177  47.924  57.613  0.00  0.00     0.050 C 
HETATM   31  C   UNK N   1      30.176  49.401  57.840  0.00  0.00     0.050 C 
BRANCH  29  32
HETATM   32  O   UNK N   1      30.356  47.167  56.971  0.00  0.00    -0.387 OA
HETATM   33  H   UNK N   1      30.097  47.498  56.072  0.00  0.00     0.211 HD
ENDBRANCH  29  32
ENDBRANCH  28  29
ENDBRANCH  26  27
ENDBRANCH  22  26
ENDBRANCH   3  22
BRANCH   2  34
HETATM   34  O   UNK N   1      32.271  44.972  57.628  0.00  0.00    -0.395 OA
HETATM   35  H   UNK N   1      33.248  44.861  57.736  0.00  0.00     0.210 HD
ENDBRANCH   2  34
BRANCH   1  36
HETATM   36  O   UNK N   1      35.220  47.070  62.769  0.00  0.00    -0.316 OA
BRANCH  36  37
HETATM   37  C   UNK N   1      35.977  48.185  62.578  0.00  0.00     0.255 C 
HETATM   38  O   UNK N   1      35.517  49.298  62.777  0.00  0.00    -0.266 OA
HETATM   39  C   UNK N   1      37.398  48.039  62.138  0.00  0.00     0.126 C 
ENDBRANCH  36  37
ENDBRANCH   1  36
TORSDOF 9
ENDMDL
MODEL 2
REMARK VINA RESULT:      -5.7      4.174      6.712
REMARK  9 active torsions:
REMARK  status: ('A' for Active; 'I' for Inactive)
REMARK    1  A    between atoms: O_1  and  C_6 
REMARK    2  A    between atoms: O_1  and  C_16 
REMARK    3  A    between atoms: O_2  and  C_7 
REMARK    4  A    between atoms: O_3  and  C_8 
REMARK    5  A    between atoms: O_5  and  C_17 
REMARK    6  A    between atoms: C_7  and  C_9 
REMARK    7  A    between atoms: C_7  and  C_21 
REMARK    8  A    between atoms: C_17  and  C_30 
REMARK    9  A    between atoms: C_21  and  C_31 
ROOT
HETATM    1  C   UNK N   1      28.128  49.031  58.708  0.00  0.00     0.140 C 
HETATM    2  C   UNK N   1      31.915  42.892  56.692  0.00  0.00     0.126 C 
HETATM    3  C   UNK N   1      30.426  42.618  56.343  0.00  0.00     0.053 C 
HETATM    4  C   UNK N   1      30.543  42.982  58.761  0.00  0.00    -0.034 C 
HETATM    5  C   UNK N   1      27.789  45.974  59.075  0.00  0.00    -0.035 C 
HETATM    6  C   UNK N   1      29.833  42.112  57.692  0.00  0.00     0.003 C 
HETATM    7  C   UNK N   1      29.958  44.463  58.791  0.00  0.00    -0.001 C 
HETATM    8  C   UNK N   1      28.410  44.493  58.984  0.00  0.00    -0.001 C 
HETATM    9  C   UNK N   1      28.612  46.880  60.110  0.00  0.00     0.004 C 
HETATM   10  C   UNK N   1      28.198  48.437  60.155  0.00  0.00    -0.017 C 
HETATM   11  C   UNK N   1      27.269  48.154  57.770  0.00  0.00     0.034 C 
HETATM   12  C   UNK N   1      31.996  42.938  58.235  0.00  0.00     0.042 C 
HETATM   13  C   UNK N   1      27.796  46.702  57.691  0.00  0.00     0.012 C 
HETATM   14  C   UNK N   1      28.304  42.167  57.876  0.00  0.00     0.006 C 
HETATM   15  C   UNK N   1      27.759  43.602  57.873  0.00  0.00     0.006 C 
HETATM   16  C   UNK N   1      30.617  45.299  59.895  0.00  0.00     0.006 C 
HETATM   17  C   UNK N   1      30.142  46.736  59.842  0.00  0.00     0.007 C 
HETATM   18  C   UNK N   1      30.468  42.304  60.161  0.00  0.00     0.016 C 
HETATM   19  C   UNK N   1      26.316  45.763  59.546  0.00  0.00     0.016 C 
HETATM   20  C   UNK N   1      29.216  49.277  60.990  0.00  0.00     0.018 C 
HETATM   21  C   UNK N   1      26.850  48.696  60.891  0.00  0.00     0.018 C 
ENDROOT
BRANCH   3  22
HETATM   22  C   UNK N   1      30.174  41.773  55.035  0.00  0.00     0.064 C 
HETATM   23  C   UNK N   1      29.846  40.318  55.425  0.00  0.00     0.046 C 
BRANCH  22  24
HETATM   24  O   UNK N   1      31.373  41.730  54.291  0.00  0.00    -0.389 OA
HETATM   25  H   UNK N   1      31.921  42.531  54.496  0.00  0.00     0.210 HD
ENDBRANCH  22  24
BRANCH  22  26
HETATM   26  C   UNK N   1      28.986  42.328  54.174  0.00  0.00     0.065 C 
BRANCH  26  27
HETATM   27  C   UNK N   1      29.200  42.180  52.678  0.00  0.00    -0.025 C 
HETATM   28  C   UNK N   1      28.308  42.540  51.728  0.00  0.00     0.006 C 
BRANCH  28  29
HETATM   29  C   UNK N   1      26.894  43.065  51.973  0.00  0.00     0.068 C 
HETATM   30  C   UNK N   1      26.144  43.172  50.631  0.00  0.00     0.050 C 
HETATM   31  C   UNK N   1      26.128  42.080  52.875  0.00  0.00     0.050 C 
BRANCH  29  32
HETATM   32  O   UNK N   1      26.909  44.335  52.580  0.00  0.00    -0.387 OA
HETATM   33  H   UNK N   1      26.529  44.987  51.936  0.00  0.00     0.211 HD
ENDBRANCH  29  32
ENDBRANCH  28  29
ENDBRANCH  26  27
ENDBRANCH  22  26
ENDBRANCH   3  22
BRANCH   2  34
HETATM   34  O   UNK N   1      32.392  44.059  56.068  0.00  0.00    -0.395 OA
HETATM   35  H   UNK N   1      32.908  44.580  56.732  0.00  0.00     0.210 HD
ENDBRANCH   2  34
BRANCH   1  36
HETATM   36  O   UNK N   1      29.398  49.174  58.169  0.00  0.00    -0.316 OA
BRANCH  36  37
HETATM   37  C   UNK N   1      29.739  50.131  57.263  0.00  0.00     0.255 C 
HETATM   38  O   UNK N   1      29.239  51.244  57.307  0.00  0.00    -0.266 OA
HETATM   39  C   UNK N   1      30.757  49.817  56.214  0.00  0.00     0.126 C 
ENDBRANCH  36  37
ENDBRANCH   1  36
TORSDOF 9
ENDMDL
MODEL 3
REMARK VINA RESULT:      -5.6      1.577      2.271
REMARK  9 active torsions:
REMARK  status: ('A' for Active; 'I' for Inactive)
REMARK    1  A    between atoms: O_1  and  C_6 
REMARK    2  A    between atoms: O_1  and  C_16 
REMARK    3  A    between atoms: O_2  and  C_7 
REMARK    4  A    between atoms: O_3  and  C_8 
REMARK    5  A    between atoms: O_5  and  C_17 
REMARK    6  A    between atoms: C_7  and  C_9 
REMARK    7  A    between atoms: C_7  and  C_21 
REMARK    8  A    between atoms: C_17  and  C_30 
REMARK    9  A    between atoms: C_21  and  C_31 
ROOT
HETATM    1  C   UNK N   1      35.794  47.173  64.602  0.00  0.00     0.140 C 
HETATM    2  C   UNK N   1      32.736  43.092  59.116  0.00  0.00     0.126 C 
HETATM    3  C   UNK N   1      31.860  44.368  59.247  0.00  0.00     0.053 C 
HETATM    4  C   UNK N   1      31.752  43.197  61.395  0.00  0.00    -0.034 C 
HETATM    5  C   UNK N   1      32.941  46.246  63.828  0.00  0.00    -0.035 C 
HETATM    6  C   UNK N   1      30.878  44.007  60.402  0.00  0.00     0.003 C 
HETATM    7  C   UNK N   1      32.736  44.144  62.214  0.00  0.00    -0.001 C 
HETATM    8  C   UNK N   1      31.986  45.300  62.945  0.00  0.00    -0.001 C 
HETATM    9  C   UNK N   1      33.905  45.375  64.765  0.00  0.00     0.004 C 
HETATM   10  C   UNK N   1      35.033  46.202  65.566  0.00  0.00    -0.017 C 
HETATM   11  C   UNK N   1      34.818  48.035  63.770  0.00  0.00     0.034 C 
HETATM   12  C   UNK N   1      32.510  42.277  60.411  0.00  0.00     0.042 C 
HETATM   13  C   UNK N   1      33.841  47.168  62.942  0.00  0.00     0.012 C 
HETATM   14  C   UNK N   1      30.160  45.162  61.128  0.00  0.00     0.006 C 
HETATM   15  C   UNK N   1      31.130  46.078  61.887  0.00  0.00     0.006 C 
HETATM   16  C   UNK N   1      33.549  43.346  63.241  0.00  0.00     0.006 C 
HETATM   17  C   UNK N   1      34.564  44.232  63.932  0.00  0.00     0.007 C 
HETATM   18  C   UNK N   1      30.859  42.338  62.338  0.00  0.00     0.016 C 
HETATM   19  C   UNK N   1      31.965  47.125  64.672  0.00  0.00     0.016 C 
HETATM   20  C   UNK N   1      36.073  45.251  66.238  0.00  0.00     0.018 C 
HETATM   21  C   UNK N   1      34.468  47.005  66.774  0.00  0.00     0.018 C 
ENDROOT
BRANCH   3  22
HETATM   22  C   UNK N   1      31.273  44.938  57.898  0.00  0.00     0.064 C 
HETATM   23  C   UNK N   1      30.048  44.099  57.483  0.00  0.00     0.046 C 
BRANCH  22  24
HETATM   24  O   UNK N   1      32.240  44.769  56.883  0.00  0.00    -0.389 OA
HETATM   25  H   UNK N   1      31.790  44.705  56.001  0.00  0.00     0.210 HD
ENDBRANCH  22  24
BRANCH  22  26
HETATM   26  C   UNK N   1      30.824  46.436  58.017  0.00  0.00     0.065 C 
BRANCH  26  27
HETATM   27  C   UNK N   1      29.318  46.624  57.964  0.00  0.00    -0.025 C 
HETATM   28  C   UNK N   1      28.691  47.747  57.548  0.00  0.00     0.006 C 
BRANCH  28  29
HETATM   29  C   UNK N   1      29.365  49.060  57.151  0.00  0.00     0.068 C 
HETATM   30  C   UNK N   1      28.363  49.942  56.383  0.00  0.00     0.050 C 
HETATM   31  C   UNK N   1      29.802  49.818  58.418  0.00  0.00     0.050 C 
BRANCH  29  32
HETATM   32  O   UNK N   1      30.488  48.840  56.332  0.00  0.00    -0.387 OA
HETATM   33  H   UNK N   1      31.154  48.324  56.857  0.00  0.00     0.211 HD
ENDBRANCH  29  32
ENDBRANCH  28  29
ENDBRANCH  26  27
ENDBRANCH  22  26
ENDBRANCH   3  22
BRANCH   2  34
HETATM   34  O   UNK N   1      34.086  43.406  58.877  0.00  0.00    -0.395 OA
HETATM   35  H   UNK N   1      34.589  42.561  58.772  0.00  0.00     0.210 HD
ENDBRANCH   2  34
BRANCH   1  36
HETATM   36  O   UNK N   1      36.628  46.468  63.745  0.00  0.00    -0.316 OA
BRANCH  36  37
HETATM   37  C   UNK N   1      37.858  46.898  63.353  0.00  0.00     0.255 C 
HETATM   38  O   UNK N   1      38.855  46.626  64.003  0.00  0.00    -0.266 OA
HETATM   39  C   UNK N   1      37.988  47.699  62.097  0.00  0.00     0.126 C 
ENDBRANCH  36  37
ENDBRANCH   1  36
TORSDOF 9
ENDMDL
MODEL 4
REMARK VINA RESULT:      -5.0      4.869      8.648
REMARK  9 active torsions:
REMARK  status: ('A' for Active; 'I' for Inactive)
REMARK    1  A    between atoms: O_1  and  C_6 
REMARK    2  A    between atoms: O_1  and  C_16 
REMARK    3  A    between atoms: O_2  and  C_7 
REMARK    4  A    between atoms: O_3  and  C_8 
REMARK    5  A    between atoms: O_5  and  C_17 
REMARK    6  A    between atoms: C_7  and  C_9 
REMARK    7  A    between atoms: C_7  and  C_21 
REMARK    8  A    between atoms: C_17  and  C_30 
REMARK    9  A    between atoms: C_21  and  C_31 
ROOT
HETATM    1  C   UNK N   1      29.125  41.167  53.821  0.00  0.00     0.140 C 
HETATM    2  C   UNK N   1      26.567  46.669  58.213  0.00  0.00     0.126 C 
HETATM    3  C   UNK N   1      27.889  46.174  58.862  0.00  0.00     0.053 C 
HETATM    4  C   UNK N   1      26.347  44.272  58.828  0.00  0.00    -0.034 C 
HETATM    5  C   UNK N   1      28.709  41.591  56.862  0.00  0.00    -0.035 C 
HETATM    6  C   UNK N   1      27.430  44.948  59.708  0.00  0.00     0.003 C 
HETATM    7  C   UNK N   1      26.996  43.482  57.607  0.00  0.00    -0.001 C 
HETATM    8  C   UNK N   1      28.070  42.447  58.064  0.00  0.00    -0.001 C 
HETATM    9  C   UNK N   1      27.565  40.994  55.910  0.00  0.00     0.004 C 
HETATM   10  C   UNK N   1      28.083  40.268  54.568  0.00  0.00    -0.017 C 
HETATM   11  C   UNK N   1      30.241  41.660  54.770  0.00  0.00     0.034 C 
HETATM   12  C   UNK N   1      25.551  45.513  58.365  0.00  0.00     0.042 C 
HETATM   13  C   UNK N   1      29.671  42.446  55.974  0.00  0.00     0.012 C 
HETATM   14  C   UNK N   1      28.500  43.924  60.134  0.00  0.00     0.006 C 
HETATM   15  C   UNK N   1      29.132  43.196  58.940  0.00  0.00     0.006 C 
HETATM   16  C   UNK N   1      25.925  42.761  56.780  0.00  0.00     0.006 C 
HETATM   17  C   UNK N   1      26.534  42.110  55.555  0.00  0.00     0.007 C 
HETATM   18  C   UNK N   1      25.434  43.351  59.690  0.00  0.00     0.016 C 
HETATM   19  C   UNK N   1      29.517  40.455  57.564  0.00  0.00     0.016 C 
HETATM   20  C   UNK N   1      26.905  39.955  53.593  0.00  0.00     0.018 C 
HETATM   21  C   UNK N   1      28.700  38.862  54.827  0.00  0.00     0.018 C 
ENDROOT
BRANCH   3  22
HETATM   22  C   UNK N   1      28.773  47.286  59.549  0.00  0.00     0.064 C 
HETATM   23  C   UNK N   1      30.245  47.092  59.134  0.00  0.00     0.046 C 
BRANCH  22  24
HETATM   24  O   UNK N   1      28.719  47.100  60.947  0.00  0.00    -0.389 OA
HETATM   25  H   UNK N   1      28.544  46.145  61.151  0.00  0.00     0.210 HD
ENDBRANCH  22  24
BRANCH  22  26
HETATM   26  C   UNK N   1      28.338  48.738  59.148  0.00  0.00     0.065 C 
BRANCH  26  27
HETATM   27  C   UNK N   1      29.507  49.666  58.868  0.00  0.00    -0.025 C 
HETATM   28  C   UNK N   1      29.759  50.261  57.680  0.00  0.00     0.006 C 
BRANCH  28  29
HETATM   29  C   UNK N   1      28.985  50.039  56.381  0.00  0.00     0.068 C 
HETATM   30  C   UNK N   1      27.600  50.703  56.486  0.00  0.00     0.050 C 
HETATM   31  C   UNK N   1      29.745  50.691  55.211  0.00  0.00     0.050 C 
BRANCH  29  32
HETATM   32  O   UNK N   1      28.805  48.669  56.111  0.00  0.00    -0.387 OA
HETATM   33  H   UNK N   1      29.564  48.174  56.517  0.00  0.00     0.211 HD
ENDBRANCH  29  32
ENDBRANCH  28  29
ENDBRANCH  26  27
ENDBRANCH  22  26
ENDBRANCH   3  22
BRANCH   2  34
HETATM   34  O   UNK N   1      26.759  47.077  56.880  0.00  0.00    -0.395 OA
HETATM   35  H   UNK N   1      26.351  46.401  56.285  0.00  0.00     0.210 HD
ENDBRANCH   2  34
BRANCH   1  36
HETATM   36  O   UNK N   1      28.505  42.260  53.234  0.00  0.00    -0.316 OA
BRANCH  36  37
HETATM   37  C   UNK N   1      28.667  42.620  51.931  0.00  0.00     0.255 C 
HETATM   38  O   UNK N   1      28.756  43.795  51.611  0.00  0.00    -0.266 OA
HETATM   39  C   UNK N   1      28.756  41.558  50.884  0.00  0.00     0.126 C 
ENDBRANCH  36  37
ENDBRANCH   1  36
TORSDOF 9
ENDMDL
MODEL 5
REMARK VINA RESULT:      -4.9      4.692      9.367
REMARK  9 active torsions:
REMARK  status: ('A' for Active; 'I' for Inactive)
REMARK    1  A    between atoms: O_1  and  C_6 
REMARK    2  A    between atoms: O_1  and  C_16 
REMARK    3  A    between atoms: O_2  and  C_7 
REMARK    4  A    between atoms: O_3  and  C_8 
REMARK    5  A    between atoms: O_5  and  C_17 
REMARK    6  A    between atoms: C_7  and  C_9 
REMARK    7  A    between atoms: C_7  and  C_21 
REMARK    8  A    between atoms: C_17  and  C_30 
REMARK    9  A    between atoms: C_21  and  C_31 
ROOT
HETATM    1  C   UNK N   1      26.893  40.929  52.530  0.00  0.00     0.140 C 
HETATM    2  C   UNK N   1      27.948  45.433  58.420  0.00  0.00     0.126 C 
HETATM    3  C   UNK N   1      29.352  44.895  58.029  0.00  0.00     0.053 C 
HETATM    4  C   UNK N   1      27.978  42.958  58.624  0.00  0.00    -0.034 C 
HETATM    5  C   UNK N   1      28.449  40.785  55.204  0.00  0.00    -0.035 C 
HETATM    6  C   UNK N   1      29.418  43.517  58.754  0.00  0.00     0.003 C 
HETATM    7  C   UNK N   1      27.688  42.430  57.149  0.00  0.00    -0.001 C 
HETATM    8  C   UNK N   1      28.740  41.383  56.669  0.00  0.00    -0.001 C 
HETATM    9  C   UNK N   1      26.924  40.313  55.069  0.00  0.00     0.004 C 
HETATM   10  C   UNK N   1      26.462  39.863  53.592  0.00  0.00    -0.017 C 
HETATM   11  C   UNK N   1      28.387  41.299  52.663  0.00  0.00     0.034 C 
HETATM   12  C   UNK N   1      27.156  44.221  58.964  0.00  0.00     0.042 C 
HETATM   13  C   UNK N   1      28.728  41.829  54.075  0.00  0.00     0.012 C 
HETATM   14  C   UNK N   1      30.449  42.486  58.255  0.00  0.00     0.006 C 
HETATM   15  C   UNK N   1      30.166  42.013  56.822  0.00  0.00     0.006 C 
HETATM   16  C   UNK N   1      26.286  41.816  57.044  0.00  0.00     0.006 C 
HETATM   17  C   UNK N   1      25.974  41.424  55.615  0.00  0.00     0.007 C 
HETATM   18  C   UNK N   1      27.718  41.856  59.692  0.00  0.00     0.016 C 
HETATM   19  C   UNK N   1      29.434  39.583  55.059  0.00  0.00     0.016 C 
HETATM   20  C   UNK N   1      24.914  39.672  53.508  0.00  0.00     0.018 C 
HETATM   21  C   UNK N   1      27.005  38.464  53.176  0.00  0.00     0.018 C 
ENDROOT
BRANCH   3  22
HETATM   22  C   UNK N   1      30.548  45.908  58.206  0.00  0.00     0.064 C 
HETATM   23  C   UNK N   1      31.834  45.282  57.631  0.00  0.00     0.046 C 
BRANCH  22  24
HETATM   24  O   UNK N   1      30.773  46.098  59.587  0.00  0.00    -0.389 OA
HETATM   25  H   UNK N   1      30.104  45.584  60.108  0.00  0.00     0.210 HD
ENDBRANCH  22  24
BRANCH  22  26
HETATM   26  C   UNK N   1      30.299  47.273  57.474  0.00  0.00     0.065 C 
BRANCH  26  27
HETATM   27  C   UNK N   1      29.972  48.416  58.418  0.00  0.00    -0.025 C 
HETATM   28  C   UNK N   1      29.156  49.454  58.127  0.00  0.00     0.006 C 
BRANCH  28  29
HETATM   29  C   UNK N   1      28.494  49.727  56.776  0.00  0.00     0.068 C 
HETATM   30  C   UNK N   1      27.299  50.680  56.972  0.00  0.00     0.050 C 
HETATM   31  C   UNK N   1      29.504  50.407  55.835  0.00  0.00     0.050 C 
BRANCH  29  32
HETATM   32  O   UNK N   1      28.028  48.541  56.178  0.00  0.00    -0.387 OA
HETATM   33  H   UNK N   1      28.541  47.782  56.561  0.00  0.00     0.211 HD
ENDBRANCH  29  32
ENDBRANCH  28  29
ENDBRANCH  26  27
ENDBRANCH  22  26
ENDBRANCH   3  22
BRANCH   2  34
HETATM   34  O   UNK N   1      27.316  46.080  57.343  0.00  0.00    -0.395 OA
HETATM   35  H   UNK N   1      27.272  45.450  56.582  0.00  0.00     0.210 HD
ENDBRANCH   2  34
BRANCH   1  36
HETATM   36  O   UNK N   1      26.123  42.078  52.642  0.00  0.00    -0.316 OA
BRANCH  36  37
HETATM   37  C   UNK N   1      26.259  43.168  51.838  0.00  0.00     0.255 C 
HETATM   38  O   UNK N   1      26.561  44.257  52.301  0.00  0.00    -0.266 OA
HETATM   39  C   UNK N   1      26.055  43.021  50.364  0.00  0.00     0.126 C 
ENDBRANCH  36  37
ENDBRANCH   1  36
TORSDOF 9
ENDMDL
MODEL 6
REMARK VINA RESULT:      -4.9      4.223      6.639
REMARK  9 active torsions:
REMARK  status: ('A' for Active; 'I' for Inactive)
REMARK    1  A    between atoms: O_1  and  C_6 
REMARK    2  A    between atoms: O_1  and  C_16 
REMARK    3  A    between atoms: O_2  and  C_7 
REMARK    4  A    between atoms: O_3  and  C_8 
REMARK    5  A    between atoms: O_5  and  C_17 
REMARK    6  A    between atoms: C_7  and  C_9 
REMARK    7  A    between atoms: C_7  and  C_21 
REMARK    8  A    between atoms: C_17  and  C_30 
REMARK    9  A    between atoms: C_21  and  C_31 
ROOT
HETATM    1  C   UNK N   1      27.698  48.403  59.399  0.00  0.00     0.140 C 
HETATM    2  C   UNK N   1      29.929  41.910  56.403  0.00  0.00     0.126 C 
HETATM    3  C   UNK N   1      29.499  41.590  57.862  0.00  0.00     0.053 C 
HETATM    4  C   UNK N   1      31.345  43.193  57.990  0.00  0.00    -0.034 C 
HETATM    5  C   UNK N   1      29.530  46.056  60.257  0.00  0.00    -0.035 C 
HETATM    6  C   UNK N   1      30.774  41.933  58.690  0.00  0.00     0.003 C 
HETATM    7  C   UNK N   1      30.490  44.491  58.335  0.00  0.00    -0.001 C 
HETATM    8  C   UNK N   1      30.342  44.723  59.870  0.00  0.00    -0.001 C 
HETATM    9  C   UNK N   1      30.076  47.320  59.438  0.00  0.00     0.004 C 
HETATM   10  C   UNK N   1      29.226  48.679  59.603  0.00  0.00    -0.017 C 
HETATM   11  C   UNK N   1      27.210  47.217  60.261  0.00  0.00     0.034 C 
HETATM   12  C   UNK N   1      31.206  42.776  56.509  0.00  0.00     0.042 C 
HETATM   13  C   UNK N   1      28.000  45.921  59.963  0.00  0.00     0.012 C 
HETATM   14  C   UNK N   1      30.608  42.179  60.202  0.00  0.00     0.006 C 
HETATM   15  C   UNK N   1      29.756  43.418  60.510  0.00  0.00     0.006 C 
HETATM   16  C   UNK N   1      31.099  45.744  57.695  0.00  0.00     0.006 C 
HETATM   17  C   UNK N   1      30.217  46.954  57.928  0.00  0.00     0.007 C 
HETATM   18  C   UNK N   1      32.850  43.383  58.345  0.00  0.00     0.016 C 
HETATM   19  C   UNK N   1      29.753  46.230  61.793  0.00  0.00     0.016 C 
HETATM   20  C   UNK N   1      29.677  49.767  58.579  0.00  0.00     0.018 C 
HETATM   21  C   UNK N   1      29.449  49.383  60.975  0.00  0.00     0.018 C 
ENDROOT
BRANCH   3  22
HETATM   22  C   UNK N   1      28.801  40.192  58.079  0.00  0.00     0.064 C 
HETATM   23  C   UNK N   1      29.778  39.244  58.802  0.00  0.00     0.046 C 
BRANCH  22  24
HETATM   24  O   UNK N   1      28.544  39.619  56.814  0.00  0.00    -0.389 OA
HETATM   25  H   UNK N   1      29.377  39.614  56.275  0.00  0.00     0.210 HD
ENDBRANCH  22  24
BRANCH  22  26
HETATM   26  C   UNK N   1      27.492  40.295  58.937  0.00  0.00     0.065 C 
BRANCH  26  27
HETATM   27  C   UNK N   1      26.984  41.716  59.100  0.00  0.00    -0.025 C 
HETATM   28  C   UNK N   1      26.021  42.288  58.342  0.00  0.00     0.006 C 
BRANCH  28  29
HETATM   29  C   UNK N   1      25.339  41.657  57.128  0.00  0.00     0.068 C 
HETATM   30  C   UNK N   1      24.578  40.391  57.564  0.00  0.00     0.050 C 
HETATM   31  C   UNK N   1      24.323  42.650  56.536  0.00  0.00     0.050 C 
BRANCH  29  32
HETATM   32  O   UNK N   1      26.272  41.301  56.136  0.00  0.00    -0.387 OA
HETATM   33  H   UNK N   1      26.041  40.391  55.812  0.00  0.00     0.211 HD
ENDBRANCH  29  32
ENDBRANCH  28  29
ENDBRANCH  26  27
ENDBRANCH  22  26
ENDBRANCH   3  22
BRANCH   2  34
HETATM   34  O   UNK N   1      28.893  42.522  55.674  0.00  0.00    -0.395 OA
HETATM   35  H   UNK N   1      28.372  41.815  55.219  0.00  0.00     0.210 HD
ENDBRANCH   2  34
BRANCH   1  36
HETATM   36  O   UNK N   1      27.415  48.147  58.065  0.00  0.00    -0.316 OA
BRANCH  36  37
HETATM   37  C   UNK N   1      26.158  48.114  57.544  0.00  0.00     0.255 C 
HETATM   38  O   UNK N   1      25.729  47.107  57.004  0.00  0.00    -0.266 OA
HETATM   39  C   UNK N   1      25.287  49.324  57.656  0.00  0.00     0.126 C 
ENDBRANCH  36  37
ENDBRANCH   1  36
TORSDOF 9
ENDMDL
MODEL 7
REMARK VINA RESULT:      -4.8     14.608     19.818
REMARK  9 active torsions:
REMARK  status: ('A' for Active; 'I' for Inactive)
REMARK    1  A    between atoms: O_1  and  C_6 
REMARK    2  A    between atoms: O_1  and  C_16 
REMARK    3  A    between atoms: O_2  and  C_7 
REMARK    4  A    between atoms: O_3  and  C_8 
REMARK    5  A    between atoms: O_5  and  C_17 
REMARK    6  A    between atoms: C_7  and  C_9 
REMARK    7  A    between atoms: C_7  and  C_21 
REMARK    8  A    between atoms: C_17  and  C_30 
REMARK    9  A    between atoms: C_21  and  C_31 
ROOT
HETATM    1  C   UNK N   1      46.704  51.090  62.214  0.00  0.00     0.140 C 
HETATM    2  C   UNK N   1      49.586  54.713  56.326  0.00  0.00     0.126 C 
HETATM    3  C   UNK N   1      50.724  54.622  57.380  0.00  0.00     0.053 C 
HETATM    4  C   UNK N   1      48.899  55.893  58.401  0.00  0.00    -0.034 C 
HETATM    5  C   UNK N   1      48.387  53.652  61.770  0.00  0.00    -0.035 C 
HETATM    6  C   UNK N   1      50.446  55.840  58.309  0.00  0.00     0.003 C 
HETATM    7  C   UNK N   1      48.331  54.745  59.348  0.00  0.00    -0.001 C 
HETATM    8  C   UNK N   1      48.976  54.764  60.768  0.00  0.00    -0.001 C 
HETATM    9  C   UNK N   1      46.785  53.662  61.762  0.00  0.00     0.004 C 
HETATM   10  C   UNK N   1      46.076  52.474  62.589  0.00  0.00    -0.017 C 
HETATM   11  C   UNK N   1      48.246  51.117  62.302  0.00  0.00     0.034 C 
HETATM   12  C   UNK N   1      48.524  55.668  56.919  0.00  0.00     0.042 C 
HETATM   13  C   UNK N   1      48.858  52.209  61.394  0.00  0.00     0.012 C 
HETATM   14  C   UNK N   1      51.074  55.834  59.717  0.00  0.00     0.006 C 
HETATM   15  C   UNK N   1      50.533  54.702  60.601  0.00  0.00     0.006 C 
HETATM   16  C   UNK N   1      46.807  54.844  59.489  0.00  0.00     0.006 C 
HETATM   17  C   UNK N   1      46.261  53.682  60.292  0.00  0.00     0.007 C 
HETATM   18  C   UNK N   1      48.423  57.304  58.858  0.00  0.00     0.016 C 
HETATM   19  C   UNK N   1      48.954  54.037  63.173  0.00  0.00     0.016 C 
HETATM   20  C   UNK N   1      44.541  52.417  62.310  0.00  0.00     0.018 C 
HETATM   21  C   UNK N   1      46.139  52.674  64.132  0.00  0.00     0.018 C 
ENDROOT
BRANCH   3  22
HETATM   22  C   UNK N   1      52.178  54.421  56.801  0.00  0.00     0.064 C 
HETATM   23  C   UNK N   1      52.905  55.780  56.770  0.00  0.00     0.046 C 
BRANCH  22  24
HETATM   24  O   UNK N   1      52.071  53.990  55.460  0.00  0.00    -0.389 OA
HETATM   25  H   UNK N   1      51.241  54.356  55.058  0.00  0.00     0.210 HD
ENDBRANCH  22  24
BRANCH  22  26
HETATM   26  C   UNK N   1      53.038  53.424  57.654  0.00  0.00     0.065 C 
BRANCH  26  27
HETATM   27  C   UNK N   1      52.208  52.503  58.530  0.00  0.00    -0.025 C 
HETATM   28  C   UNK N   1      51.747  51.287  58.160  0.00  0.00     0.006 C 
BRANCH  28  29
HETATM   29  C   UNK N   1      51.885  50.656  56.774  0.00  0.00     0.068 C 
HETATM   30  C   UNK N   1      53.327  50.841  56.265  0.00  0.00     0.050 C 
HETATM   31  C   UNK N   1      51.595  49.147  56.865  0.00  0.00     0.050 C 
BRANCH  29  32
HETATM   32  O   UNK N   1      51.004  51.243  55.847  0.00  0.00    -0.387 OA
HETATM   33  H   UNK N   1      50.386  51.839  56.346  0.00  0.00     0.211 HD
ENDBRANCH  29  32
ENDBRANCH  28  29
ENDBRANCH  26  27
ENDBRANCH  22  26
ENDBRANCH   3  22
BRANCH   2  34
HETATM   34  O   UNK N   1      49.078  53.444  55.993  0.00  0.00    -0.395 OA
HETATM   35  H   UNK N   1      48.138  53.550  55.703  0.00  0.00     0.210 HD
ENDBRANCH   2  34
BRANCH   1  36
HETATM   36  O   UNK N   1      46.324  50.703  60.937  0.00  0.00    -0.316 OA
BRANCH  36  37
HETATM   37  C   UNK N   1      45.879  49.456  60.617  0.00  0.00     0.255 C 
HETATM   38  O   UNK N   1      44.783  49.067  60.987  0.00  0.00    -0.266 OA
HETATM   39  C   UNK N   1      46.742  48.563  59.785  0.00  0.00     0.126 C 
ENDBRANCH  36  37
ENDBRANCH   1  36
TORSDOF 9
ENDMDL
MODEL 8
REMARK VINA RESULT:      -4.8      3.905      6.600
REMARK  9 active torsions:
REMARK  status: ('A' for Active; 'I' for Inactive)
REMARK    1  A    between atoms: O_1  and  C_6 
REMARK    2  A    between atoms: O_1  and  C_16 
REMARK    3  A    between atoms: O_2  and  C_7 
REMARK    4  A    between atoms: O_3  and  C_8 
REMARK    5  A    between atoms: O_5  and  C_17 
REMARK    6  A    between atoms: C_7  and  C_9 
REMARK    7  A    between atoms: C_7  and  C_21 
REMARK    8  A    between atoms: C_17  and  C_30 
REMARK    9  A    between atoms: C_21  and  C_31 
ROOT
HETATM    1  C   UNK N   1      31.485  42.656  58.426  0.00  0.00     0.140 C 
HETATM    2  C   UNK N   1      25.547  47.216  58.207  0.00  0.00     0.126 C 
HETATM    3  C   UNK N   1      26.581  47.894  59.148  0.00  0.00     0.053 C 
HETATM    4  C   UNK N   1      26.008  45.733  60.146  0.00  0.00    -0.034 C 
HETATM    5  C   UNK N   1      29.768  44.193  60.496  0.00  0.00    -0.035 C 
HETATM    6  C   UNK N   1      26.315  47.206  60.520  0.00  0.00     0.003 C 
HETATM    7  C   UNK N   1      27.332  44.945  59.744  0.00  0.00    -0.001 C 
HETATM    8  C   UNK N   1      28.435  45.024  60.844  0.00  0.00    -0.001 C 
HETATM    9  C   UNK N   1      29.409  42.708  60.012  0.00  0.00     0.004 C 
HETATM   10  C   UNK N   1      30.648  41.835  59.463  0.00  0.00    -0.017 C 
HETATM   11  C   UNK N   1      31.860  44.054  58.969  0.00  0.00     0.034 C 
HETATM   12  C   UNK N   1      25.063  45.944  58.941  0.00  0.00     0.042 C 
HETATM   13  C   UNK N   1      30.611  44.873  59.369  0.00  0.00     0.012 C 
HETATM   14  C   UNK N   1      27.423  47.275  61.589  0.00  0.00     0.006 C 
HETATM   15  C   UNK N   1      28.699  46.534  61.168  0.00  0.00     0.006 C 
HETATM   16  C   UNK N   1      27.031  43.472  59.440  0.00  0.00     0.006 C 
HETATM   17  C   UNK N   1      28.271  42.758  58.945  0.00  0.00     0.007 C 
HETATM   18  C   UNK N   1      25.242  45.022  61.300  0.00  0.00     0.016 C 
HETATM   19  C   UNK N   1      30.589  44.178  61.824  0.00  0.00     0.016 C 
HETATM   20  C   UNK N   1      30.164  40.517  58.781  0.00  0.00     0.018 C 
HETATM   21  C   UNK N   1      31.585  41.316  60.593  0.00  0.00     0.018 C 
ENDROOT
BRANCH   3  22
HETATM   22  C   UNK N   1      26.636  49.469  59.082  0.00  0.00     0.064 C 
HETATM   23  C   UNK N   1      25.590  50.055  60.051  0.00  0.00     0.046 C 
BRANCH  22  24
HETATM   24  O   UNK N   1      26.256  49.877  57.784  0.00  0.00    -0.389 OA
HETATM   25  H   UNK N   1      25.739  49.153  57.345  0.00  0.00     0.210 HD
ENDBRANCH  22  24
BRANCH  22  26
HETATM   26  C   UNK N   1      28.042  50.044  59.473  0.00  0.00     0.065 C 
BRANCH  26  27
HETATM   27  C   UNK N   1      28.571  51.074  58.491  0.00  0.00    -0.025 C 
HETATM   28  C   UNK N   1      29.241  50.787  57.352  0.00  0.00     0.006 C 
BRANCH  28  29
HETATM   29  C   UNK N   1      29.678  49.397  56.890  0.00  0.00     0.068 C 
HETATM   30  C   UNK N   1      30.861  49.527  55.913  0.00  0.00     0.050 C 
HETATM   31  C   UNK N   1      30.143  48.573  58.105  0.00  0.00     0.050 C 
BRANCH  29  32
HETATM   32  O   UNK N   1      28.632  48.714  56.240  0.00  0.00    -0.387 OA
HETATM   33  H   UNK N   1      28.867  47.749  56.213  0.00  0.00     0.211 HD
ENDBRANCH  29  32
ENDBRANCH  28  29
ENDBRANCH  26  27
ENDBRANCH  22  26
ENDBRANCH   3  22
BRANCH   2  34
HETATM   34  O   UNK N   1      26.087  46.959  56.933  0.00  0.00    -0.395 OA
HETATM   35  H   UNK N   1      25.353  46.676  56.334  0.00  0.00     0.210 HD
ENDBRANCH   2  34
BRANCH   1  36
HETATM   36  O   UNK N   1      30.793  42.799  57.232  0.00  0.00    -0.316 OA
BRANCH  36  37
HETATM   37  C   UNK N   1      31.341  42.597  56.002  0.00  0.00     0.255 C 
HETATM   38  O   UNK N   1      32.455  43.019  55.735  0.00  0.00    -0.266 OA
HETATM   39  C   UNK N   1      30.574  41.828  54.975  0.00  0.00     0.126 C 
ENDBRANCH  36  37
ENDBRANCH   1  36
TORSDOF 9
ENDMDL
MODEL 9
REMARK VINA RESULT:      -4.8      5.342     10.320
REMARK  9 active torsions:
REMARK  status: ('A' for Active; 'I' for Inactive)
REMARK    1  A    between atoms: O_1  and  C_6 
REMARK    2  A    between atoms: O_1  and  C_16 
REMARK    3  A    between atoms: O_2  and  C_7 
REMARK    4  A    between atoms: O_3  and  C_8 
REMARK    5  A    between atoms: O_5  and  C_17 
REMARK    6  A    between atoms: C_7  and  C_9 
REMARK    7  A    between atoms: C_7  and  C_21 
REMARK    8  A    between atoms: C_17  and  C_30 
REMARK    9  A    between atoms: C_21  and  C_31 
ROOT
HETATM    1  C   UNK N   1      27.673  35.582  55.921  0.00  0.00     0.140 C 
HETATM    2  C   UNK N   1      30.947  42.218  54.762  0.00  0.00     0.126 C 
HETATM    3  C   UNK N   1      30.345  42.275  56.194  0.00  0.00     0.053 C 
HETATM    4  C   UNK N   1      28.484  41.917  54.643  0.00  0.00    -0.034 C 
HETATM    5  C   UNK N   1      26.906  38.555  56.328  0.00  0.00    -0.035 C 
HETATM    6  C   UNK N   1      28.862  42.681  55.938  0.00  0.00     0.003 C 
HETATM    7  C   UNK N   1      28.254  40.367  54.926  0.00  0.00    -0.001 C 
HETATM    8  C   UNK N   1      27.205  40.111  56.052  0.00  0.00    -0.001 C 
HETATM    9  C   UNK N   1      26.623  37.773  54.959  0.00  0.00     0.004 C 
HETATM   10  C   UNK N   1      26.487  36.172  55.086  0.00  0.00    -0.017 C 
HETATM   11  C   UNK N   1      27.859  36.331  57.260  0.00  0.00     0.034 C 
HETATM   12  C   UNK N   1      29.746  42.175  53.789  0.00  0.00     0.042 C 
HETATM   13  C   UNK N   1      28.097  37.844  57.049  0.00  0.00     0.012 C 
HETATM   14  C   UNK N   1      27.834  42.404  57.052  0.00  0.00     0.006 C 
HETATM   15  C   UNK N   1      27.650  40.905  57.327  0.00  0.00     0.006 C 
HETATM   16  C   UNK N   1      27.815  39.629  53.655  0.00  0.00     0.006 C 
HETATM   17  C   UNK N   1      27.713  38.138  53.904  0.00  0.00     0.007 C 
HETATM   18  C   UNK N   1      27.245  42.569  53.962  0.00  0.00     0.016 C 
HETATM   19  C   UNK N   1      25.653  38.548  57.260  0.00  0.00     0.016 C 
HETATM   20  C   UNK N   1      26.474  35.483  53.685  0.00  0.00     0.018 C 
HETATM   21  C   UNK N   1      25.135  35.715  55.708  0.00  0.00     0.018 C 
ENDROOT
BRANCH   3  22
HETATM   22  C   UNK N   1      31.184  43.082  57.258  0.00  0.00     0.064 C 
HETATM   23  C   UNK N   1      30.746  44.560  57.236  0.00  0.00     0.046 C 
BRANCH  22  24
HETATM   24  O   UNK N   1      32.541  43.058  56.870  0.00  0.00    -0.389 OA
HETATM   25  H   UNK N   1      32.706  43.762  56.191  0.00  0.00     0.210 HD
ENDBRANCH  22  24
BRANCH  22  26
HETATM   26  C   UNK N   1      30.996  42.538  58.717  0.00  0.00     0.065 C 
BRANCH  26  27
HETATM   27  C   UNK N   1      30.597  43.607  59.717  0.00  0.00    -0.025 C 
HETATM   28  C   UNK N   1      31.157  43.779  60.935  0.00  0.00     0.006 C 
BRANCH  28  29
HETATM   29  C   UNK N   1      32.217  42.880  61.573  0.00  0.00     0.068 C 
HETATM   30  C   UNK N   1      33.479  42.865  60.690  0.00  0.00     0.050 C 
HETATM   31  C   UNK N   1      32.602  43.439  62.955  0.00  0.00     0.050 C 
BRANCH  29  32
HETATM   32  O   UNK N   1      31.756  41.558  61.720  0.00  0.00    -0.387 OA
HETATM   33  H   UNK N   1      30.776  41.590  61.872  0.00  0.00     0.211 HD
ENDBRANCH  29  32
ENDBRANCH  28  29
ENDBRANCH  26  27
ENDBRANCH  22  26
ENDBRANCH   3  22
BRANCH   2  34
HETATM   34  O   UNK N   1      31.834  41.136  54.611  0.00  0.00    -0.395 OA
HETATM   35  H   UNK N   1      31.485  40.371  55.132  0.00  0.00     0.210 HD
ENDBRANCH   2  34
BRANCH   1  36
HETATM   36  O   UNK N   1      28.858  35.628  55.201  0.00  0.00    -0.316 OA
BRANCH  36  37
HETATM   37  C   UNK N   1      29.965  34.898  55.505  0.00  0.00     0.255 C 
HETATM   38  O   UNK N   1      31.076  35.405  55.491  0.00  0.00    -0.266 OA
HETATM   39  C   UNK N   1      29.812  33.459  55.881  0.00  0.00     0.126 C 
ENDBRANCH  36  37
ENDBRANCH   1  36
TORSDOF 9
ENDMDL
