MODEL 1
REMARK VINA RESULT:      -5.9      0.000      0.000
REMARK  8 active torsions:
REMARK  status: ('A' for Active; 'I' for Inactive)
REMARK    1  A    between atoms: O_1  and  C_5 
REMARK    2  A    between atoms: O_2  and  C_6 
REMARK    3  A    between atoms: O_3  and  C_7 
REMARK    4  A    between atoms: O_4  and  C_15 
REMARK    5  A    between atoms: C_6  and  C_8 
REMARK    6  A    between atoms: C_6  and  C_19 
REMARK    7  A    between atoms: C_15  and  C_28 
REMARK    8  A    between atoms: C_19  and  C_29 
ROOT
HETATM    1  C   UNK N   1      31.415  42.570  61.131  0.00  0.00     0.126 C 
HETATM    2  C   UNK N   1      26.107  46.890  57.941  0.00  0.00     0.126 C 
HETATM    3  C   UNK N   1      27.386  47.773  57.771  0.00  0.00     0.053 C 
HETATM    4  C   UNK N   1      27.953  45.457  58.552  0.00  0.00    -0.034 C 
HETATM    5  C   UNK N   1      31.330  43.284  58.306  0.00  0.00    -0.035 C 
HETATM    6  C   UNK N   1      28.545  46.731  57.912  0.00  0.00     0.003 C 
HETATM    7  C   UNK N   1      28.896  44.250  58.193  0.00  0.00    -0.001 C 
HETATM    8  C   UNK N   1      30.367  44.508  58.666  0.00  0.00    -0.001 C 
HETATM    9  C   UNK N   1      30.726  41.864  58.732  0.00  0.00     0.004 C 
HETATM   10  C   UNK N   1      31.071  41.359  60.229  0.00  0.00    -0.017 C 
HETATM   11  C   UNK N   1      32.582  43.429  60.563  0.00  0.00     0.033 C 
HETATM   12  C   UNK N   1      26.589  45.428  57.829  0.00  0.00     0.042 C 
HETATM   13  C   UNK N   1      32.689  43.445  59.018  0.00  0.00     0.012 C 
HETATM   14  C   UNK N   1      29.949  47.068  58.426  0.00  0.00     0.006 C 
HETATM   15  C   UNK N   1      30.883  45.878  58.116  0.00  0.00     0.006 C 
HETATM   16  C   UNK N   1      28.377  42.907  58.748  0.00  0.00     0.006 C 
HETATM   17  C   UNK N   1      29.249  41.758  58.257  0.00  0.00     0.007 C 
HETATM   18  C   UNK N   1      27.748  45.555  60.103  0.00  0.00     0.016 C 
HETATM   19  C   UNK N   1      31.612  43.244  56.773  0.00  0.00     0.016 C 
HETATM   20  C   UNK N   1      29.912  40.549  60.872  0.00  0.00     0.018 C 
HETATM   21  C   UNK N   1      32.280  40.373  60.211  0.00  0.00     0.018 C 
ENDROOT
BRANCH   3  22
HETATM   22  C   UNK N   1      27.404  49.136  58.564  0.00  0.00     0.064 C 
HETATM   23  C   UNK N   1      28.566  49.099  59.580  0.00  0.00     0.046 C 
BRANCH  22  24
HETATM   24  O   UNK N   1      26.220  49.226  59.328  0.00  0.00    -0.389 OA
HETATM   25  H   UNK N   1      25.670  48.413  59.191  0.00  0.00     0.210 HD
ENDBRANCH  22  24
BRANCH  22  26
HETATM   26  C   UNK N   1      27.572  50.394  57.652  0.00  0.00     0.065 C 
BRANCH  26  27
HETATM   27  C   UNK N   1      28.947  50.526  57.056  0.00  0.00    -0.025 C 
HETATM   28  C   UNK N   1      29.169  50.334  55.743  0.00  0.00     0.006 C 
BRANCH  28  29
HETATM   29  C   UNK N   1      30.539  50.450  55.082  0.00  0.00     0.068 C 
HETATM   30  C   UNK N   1      31.332  51.525  55.837  0.00  0.00     0.050 C 
HETATM   31  C   UNK N   1      30.496  50.832  53.585  0.00  0.00     0.050 C 
BRANCH  29  32
HETATM   32  O   UNK N   1      31.218  49.226  55.224  0.00  0.00    -0.387 OA
HETATM   33  H   UNK N   1      31.753  49.082  54.398  0.00  0.00     0.211 HD
ENDBRANCH  29  32
ENDBRANCH  28  29
ENDBRANCH  26  27
ENDBRANCH  22  26
ENDBRANCH   3  22
BRANCH   2  34
HETATM   34  O   UNK N   1      25.072  47.211  57.049  0.00  0.00    -0.395 OA
HETATM   35  H   UNK N   1      24.606  48.010  57.409  0.00  0.00     0.210 HD
ENDBRANCH   2  34
BRANCH   1  36
HETATM   36  O   UNK N   1      31.721  42.170  62.444  0.00  0.00    -0.395 OA
HETATM   37  H   UNK N   1      32.244  42.906  62.857  0.00  0.00     0.210 HD
ENDBRANCH   1  36
TORSDOF 8
ENDMDL
MODEL 2
REMARK VINA RESULT:      -5.9      4.282      7.669
REMARK  8 active torsions:
REMARK  status: ('A' for Active; 'I' for Inactive)
REMARK    1  A    between atoms: O_1  and  C_5 
REMARK    2  A    between atoms: O_2  and  C_6 
REMARK    3  A    between atoms: O_3  and  C_7 
REMARK    4  A    between atoms: O_4  and  C_15 
REMARK    5  A    between atoms: C_6  and  C_8 
REMARK    6  A    between atoms: C_6  and  C_19 
REMARK    7  A    between atoms: C_15  and  C_28 
REMARK    8  A    between atoms: C_19  and  C_29 
ROOT
HETATM    1  C   UNK N   1      35.526  48.224  62.996  0.00  0.00     0.126 C 
HETATM    2  C   UNK N   1      30.596  42.511  62.762  0.00  0.00     0.126 C 
HETATM    3  C   UNK N   1      31.601  42.115  61.633  0.00  0.00     0.053 C 
HETATM    4  C   UNK N   1      32.450  44.040  62.999  0.00  0.00    -0.034 C 
HETATM    5  C   UNK N   1      36.161  45.454  63.645  0.00  0.00    -0.035 C 
HETATM    6  C   UNK N   1      32.878  42.941  62.003  0.00  0.00     0.003 C 
HETATM    7  C   UNK N   1      33.727  44.493  63.799  0.00  0.00    -0.001 C 
HETATM    8  C   UNK N   1      34.861  44.989  62.839  0.00  0.00    -0.001 C 
HETATM    9  C   UNK N   1      35.827  46.444  64.858  0.00  0.00     0.004 C 
HETATM   10  C   UNK N   1      35.796  48.022  64.507  0.00  0.00    -0.017 C 
HETATM   11  C   UNK N   1      36.561  47.486  62.097  0.00  0.00     0.033 C 
HETATM   12  C   UNK N   1      31.436  43.232  63.838  0.00  0.00     0.042 C 
HETATM   13  C   UNK N   1      37.142  46.185  62.704  0.00  0.00     0.012 C 
HETATM   14  C   UNK N   1      33.918  43.421  60.985  0.00  0.00     0.006 C 
HETATM   15  C   UNK N   1      35.167  43.907  61.752  0.00  0.00     0.006 C 
HETATM   16  C   UNK N   1      33.410  45.566  64.862  0.00  0.00     0.006 C 
HETATM   17  C   UNK N   1      34.650  45.868  65.696  0.00  0.00     0.007 C 
HETATM   18  C   UNK N   1      31.749  45.273  62.332  0.00  0.00     0.016 C 
HETATM   19  C   UNK N   1      36.912  44.219  64.228  0.00  0.00     0.016 C 
HETATM   20  C   UNK N   1      34.733  48.800  65.330  0.00  0.00     0.018 C 
HETATM   21  C   UNK N   1      37.155  48.693  64.880  0.00  0.00     0.018 C 
ENDROOT
BRANCH   3  22
HETATM   22  C   UNK N   1      31.029  42.097  60.163  0.00  0.00     0.064 C 
HETATM   23  C   UNK N   1      29.489  42.192  60.234  0.00  0.00     0.046 C 
BRANCH  22  24
HETATM   24  O   UNK N   1      31.317  40.842  59.585  0.00  0.00    -0.389 OA
HETATM   25  H   UNK N   1      32.290  40.666  59.633  0.00  0.00     0.210 HD
ENDBRANCH  22  24
BRANCH  22  26
HETATM   26  C   UNK N   1      31.564  43.259  59.264  0.00  0.00     0.065 C 
BRANCH  26  27
HETATM   27  C   UNK N   1      30.525  44.297  58.940  0.00  0.00    -0.025 C 
HETATM   28  C   UNK N   1      30.862  45.569  58.662  0.00  0.00     0.006 C 
BRANCH  28  29
HETATM   29  C   UNK N   1      29.855  46.666  58.329  0.00  0.00     0.068 C 
HETATM   30  C   UNK N   1      30.512  47.612  57.316  0.00  0.00     0.050 C 
HETATM   31  C   UNK N   1      29.389  47.497  59.547  0.00  0.00     0.050 C 
BRANCH  29  32
HETATM   32  O   UNK N   1      28.731  46.082  57.716  0.00  0.00    -0.387 OA
HETATM   33  H   UNK N   1      28.070  45.880  58.430  0.00  0.00     0.211 HD
ENDBRANCH  29  32
ENDBRANCH  28  29
ENDBRANCH  26  27
ENDBRANCH  22  26
ENDBRANCH   3  22
BRANCH   2  34
HETATM   34  O   UNK N   1      29.849  41.432  63.263  0.00  0.00    -0.395 OA
HETATM   35  H   UNK N   1      29.989  41.406  64.246  0.00  0.00     0.210 HD
ENDBRANCH   2  34
BRANCH   1  36
HETATM   36  O   UNK N   1      35.493  49.588  62.652  0.00  0.00    -0.395 OA
HETATM   37  H   UNK N   1      35.017  49.656  61.783  0.00  0.00     0.210 HD
ENDBRANCH   1  36
TORSDOF 8
ENDMDL
MODEL 3
REMARK VINA RESULT:      -5.9      4.649      8.508
REMARK  8 active torsions:
REMARK  status: ('A' for Active; 'I' for Inactive)
REMARK    1  A    between atoms: O_1  and  C_5 
REMARK    2  A    between atoms: O_2  and  C_6 
REMARK    3  A    between atoms: O_3  and  C_7 
REMARK    4  A    between atoms: O_4  and  C_15 
REMARK    5  A    between atoms: C_6  and  C_8 
REMARK    6  A    between atoms: C_6  and  C_19 
REMARK    7  A    between atoms: C_15  and  C_28 
REMARK    8  A    between atoms: C_19  and  C_29 
ROOT
HETATM    1  C   UNK N   1      32.125  41.066  59.676  0.00  0.00     0.126 C 
HETATM    2  C   UNK N   1      28.524  41.288  53.042  0.00  0.00     0.126 C 
HETATM    3  C   UNK N   1      27.376  40.875  54.018  0.00  0.00     0.053 C 
HETATM    4  C   UNK N   1      29.441  41.575  55.259  0.00  0.00    -0.034 C 
HETATM    5  C   UNK N   1      30.001  42.945  59.000  0.00  0.00    -0.035 C 
HETATM    6  C   UNK N   1      27.924  41.335  55.410  0.00  0.00     0.003 C 
HETATM    7  C   UNK N   1      29.896  42.544  56.411  0.00  0.00    -0.001 C 
HETATM    8  C   UNK N   1      29.538  41.967  57.823  0.00  0.00    -0.001 C 
HETATM    9  C   UNK N   1      31.514  43.445  58.842  0.00  0.00     0.004 C 
HETATM   10  C   UNK N   1      32.650  42.514  59.519  0.00  0.00    -0.017 C 
HETATM   11  C   UNK N   1      30.801  40.992  60.492  0.00  0.00     0.033 C 
HETATM   12  C   UNK N   1      29.451  42.219  53.854  0.00  0.00     0.042 C 
HETATM   13  C   UNK N   1      29.885  42.234  60.364  0.00  0.00     0.012 C 
HETATM   14  C   UNK N   1      27.547  40.680  56.744  0.00  0.00     0.006 C 
HETATM   15  C   UNK N   1      28.020  41.599  57.891  0.00  0.00     0.006 C 
HETATM   16  C   UNK N   1      31.398  42.891  56.334  0.00  0.00     0.006 C 
HETATM   17  C   UNK N   1      31.755  43.935  57.386  0.00  0.00     0.007 C 
HETATM   18  C   UNK N   1      30.301  40.265  55.265  0.00  0.00     0.016 C 
HETATM   19  C   UNK N   1      29.084  44.205  59.055  0.00  0.00     0.016 C 
HETATM   20  C   UNK N   1      33.975  42.498  58.708  0.00  0.00     0.018 C 
HETATM   21  C   UNK N   1      33.049  43.069  60.921  0.00  0.00     0.018 C 
ENDROOT
BRANCH   3  22
HETATM   22  C   UNK N   1      26.766  39.435  53.808  0.00  0.00     0.064 C 
HETATM   23  C   UNK N   1      25.679  39.517  52.715  0.00  0.00     0.046 C 
BRANCH  22  24
HETATM   24  O   UNK N   1      26.101  39.053  54.994  0.00  0.00    -0.389 OA
HETATM   25  H   UNK N   1      25.171  38.783  54.784  0.00  0.00     0.210 HD
ENDBRANCH  22  24
BRANCH  22  26
HETATM   26  C   UNK N   1      27.820  38.359  53.391  0.00  0.00     0.065 C 
BRANCH  26  27
HETATM   27  C   UNK N   1      28.269  37.483  54.529  0.00  0.00    -0.025 C 
HETATM   28  C   UNK N   1      29.355  36.697  54.428  0.00  0.00     0.006 C 
BRANCH  28  29
HETATM   29  C   UNK N   1      29.858  35.786  55.544  0.00  0.00     0.068 C 
HETATM   30  C   UNK N   1      29.131  34.441  55.414  0.00  0.00     0.050 C 
HETATM   31  C   UNK N   1      29.624  36.334  56.970  0.00  0.00     0.050 C 
BRANCH  29  32
HETATM   32  O   UNK N   1      31.234  35.558  55.361  0.00  0.00    -0.387 OA
HETATM   33  H   UNK N   1      31.646  35.463  56.261  0.00  0.00     0.211 HD
ENDBRANCH  29  32
ENDBRANCH  28  29
ENDBRANCH  26  27
ENDBRANCH  22  26
ENDBRANCH   3  22
BRANCH   2  34
HETATM   34  O   UNK N   1      28.073  41.856  51.840  0.00  0.00    -0.395 OA
HETATM   35  H   UNK N   1      27.447  41.208  51.423  0.00  0.00     0.210 HD
ENDBRANCH   2  34
BRANCH   1  36
HETATM   36  O   UNK N   1      33.087  40.225  60.262  0.00  0.00    -0.395 OA
HETATM   37  H   UNK N   1      32.701  39.892  61.115  0.00  0.00     0.210 HD
ENDBRANCH   1  36
TORSDOF 8
ENDMDL
MODEL 4
REMARK VINA RESULT:      -5.7      5.335      7.574
REMARK  8 active torsions:
REMARK  status: ('A' for Active; 'I' for Inactive)
REMARK    1  A    between atoms: O_1  and  C_5 
REMARK    2  A    between atoms: O_2  and  C_6 
REMARK    3  A    between atoms: O_3  and  C_7 
REMARK    4  A    between atoms: O_4  and  C_15 
REMARK    5  A    between atoms: C_6  and  C_8 
REMARK    6  A    between atoms: C_6  and  C_19 
REMARK    7  A    between atoms: C_15  and  C_28 
REMARK    8  A    between atoms: C_19  and  C_29 
ROOT
HETATM    1  C   UNK N   1      26.926  35.316  56.267  0.00  0.00     0.126 C 
HETATM    2  C   UNK N   1      26.760  42.557  54.136  0.00  0.00     0.126 C 
HETATM    3  C   UNK N   1      27.649  42.620  55.421  0.00  0.00     0.053 C 
HETATM    4  C   UNK N   1      27.233  40.255  54.694  0.00  0.00    -0.034 C 
HETATM    5  C   UNK N   1      29.245  36.837  55.370  0.00  0.00    -0.035 C 
HETATM    6  C   UNK N   1      28.142  41.142  55.571  0.00  0.00     0.003 C 
HETATM    7  C   UNK N   1      28.014  38.927  54.375  0.00  0.00    -0.001 C 
HETATM    8  C   UNK N   1      28.454  38.190  55.686  0.00  0.00    -0.001 C 
HETATM    9  C   UNK N   1      28.503  35.912  54.296  0.00  0.00     0.004 C 
HETATM   10  C   UNK N   1      27.437  34.847  54.883  0.00  0.00    -0.017 C 
HETATM   11  C   UNK N   1      28.081  35.550  57.285  0.00  0.00     0.033 C 
HETATM   12  C   UNK N   1      27.069  41.195  53.478  0.00  0.00     0.042 C 
HETATM   13  C   UNK N   1      29.421  36.007  56.659  0.00  0.00     0.012 C 
HETATM   14  C   UNK N   1      28.513  40.490  56.907  0.00  0.00     0.006 C 
HETATM   15  C   UNK N   1      29.248  39.164  56.618  0.00  0.00     0.006 C 
HETATM   16  C   UNK N   1      27.215  37.975  53.462  0.00  0.00     0.006 C 
HETATM   17  C   UNK N   1      28.067  36.771  53.075  0.00  0.00     0.007 C 
HETATM   18  C   UNK N   1      25.838  39.937  55.331  0.00  0.00     0.016 C 
HETATM   19  C   UNK N   1      30.671  37.154  54.825  0.00  0.00     0.016 C 
HETATM   20  C   UNK N   1      26.226  34.624  53.935  0.00  0.00     0.018 C 
HETATM   21  C   UNK N   1      28.092  33.438  55.028  0.00  0.00     0.018 C 
ENDROOT
BRANCH   3  22
HETATM   22  C   UNK N   1      27.051  43.418  56.644  0.00  0.00     0.064 C 
HETATM   23  C   UNK N   1      25.977  42.542  57.324  0.00  0.00     0.046 C 
BRANCH  22  24
HETATM   24  O   UNK N   1      26.374  44.554  56.150  0.00  0.00    -0.389 OA
HETATM   25  H   UNK N   1      26.984  45.335  56.153  0.00  0.00     0.210 HD
ENDBRANCH  22  24
BRANCH  22  26
HETATM   26  C   UNK N   1      28.117  43.827  57.711  0.00  0.00     0.065 C 
BRANCH  26  27
HETATM   27  C   UNK N   1      29.521  43.872  57.172  0.00  0.00    -0.025 C 
HETATM   28  C   UNK N   1      30.587  43.637  57.959  0.00  0.00     0.006 C 
BRANCH  28  29
HETATM   29  C   UNK N   1      32.032  43.671  57.472  0.00  0.00     0.068 C 
HETATM   30  C   UNK N   1      32.104  42.874  56.163  0.00  0.00     0.050 C 
HETATM   31  C   UNK N   1      33.056  43.076  58.466  0.00  0.00     0.050 C 
BRANCH  29  32
HETATM   32  O   UNK N   1      32.387  45.004  57.192  0.00  0.00    -0.387 OA
HETATM   33  H   UNK N   1      31.557  45.550  57.234  0.00  0.00     0.211 HD
ENDBRANCH  29  32
ENDBRANCH  28  29
ENDBRANCH  26  27
ENDBRANCH  22  26
ENDBRANCH   3  22
BRANCH   2  34
HETATM   34  O   UNK N   1      26.933  43.650  53.271  0.00  0.00    -0.395 OA
HETATM   35  H   UNK N   1      26.402  44.405  53.638  0.00  0.00     0.210 HD
ENDBRANCH   2  34
BRANCH   1  36
HETATM   36  O   UNK N   1      25.995  34.413  56.811  0.00  0.00    -0.395 OA
HETATM   37  H   UNK N   1      26.288  34.219  57.741  0.00  0.00     0.210 HD
ENDBRANCH   1  36
TORSDOF 8
ENDMDL
MODEL 5
REMARK VINA RESULT:      -5.7      1.907      3.492
REMARK  8 active torsions:
REMARK  status: ('A' for Active; 'I' for Inactive)
REMARK    1  A    between atoms: O_1  and  C_5 
REMARK    2  A    between atoms: O_2  and  C_6 
REMARK    3  A    between atoms: O_3  and  C_7 
REMARK    4  A    between atoms: O_4  and  C_15 
REMARK    5  A    between atoms: C_6  and  C_8 
REMARK    6  A    between atoms: C_6  and  C_19 
REMARK    7  A    between atoms: C_15  and  C_28 
REMARK    8  A    between atoms: C_19  and  C_29 
ROOT
HETATM    1  C   UNK N   1      31.611  42.668  60.966  0.00  0.00     0.126 C 
HETATM    2  C   UNK N   1      26.929  47.749  57.921  0.00  0.00     0.126 C 
HETATM    3  C   UNK N   1      28.324  48.281  57.462  0.00  0.00     0.053 C 
HETATM    4  C   UNK N   1      28.493  45.995  58.482  0.00  0.00    -0.034 C 
HETATM    5  C   UNK N   1      31.232  43.073  58.105  0.00  0.00    -0.035 C 
HETATM    6  C   UNK N   1      29.237  47.016  57.596  0.00  0.00     0.003 C 
HETATM    7  C   UNK N   1      29.080  44.569  58.176  0.00  0.00    -0.001 C 
HETATM    8  C   UNK N   1      30.629  44.521  58.411  0.00  0.00    -0.001 C 
HETATM    9  C   UNK N   1      30.411  41.890  58.803  0.00  0.00     0.004 C 
HETATM   10  C   UNK N   1      30.873  41.482  60.298  0.00  0.00    -0.017 C 
HETATM   11  C   UNK N   1      32.831  43.162  60.134  0.00  0.00     0.033 C 
HETATM   12  C   UNK N   1      27.056  46.211  57.955  0.00  0.00     0.042 C 
HETATM   13  C   UNK N   1      32.691  42.986  58.602  0.00  0.00     0.012 C 
HETATM   14  C   UNK N   1      30.744  47.067  57.868  0.00  0.00     0.006 C 
HETATM   15  C   UNK N   1      31.336  45.664  57.610  0.00  0.00     0.006 C 
HETATM   16  C   UNK N   1      28.378  43.454  58.978  0.00  0.00     0.006 C 
HETATM   17  C   UNK N   1      28.890  42.085  58.545  0.00  0.00     0.007 C 
HETATM   18  C   UNK N   1      28.564  46.305  60.016  0.00  0.00     0.016 C 
HETATM   19  C   UNK N   1      31.250  42.803  56.569  0.00  0.00     0.016 C 
HETATM   20  C   UNK N   1      29.683  41.043  61.195  0.00  0.00     0.018 C 
HETATM   21  C   UNK N   1      31.820  40.243  60.260  0.00  0.00     0.018 C 
ENDROOT
BRANCH   3  22
HETATM   22  C   UNK N   1      28.765  49.680  58.045  0.00  0.00     0.064 C 
HETATM   23  C   UNK N   1      28.267  50.788  57.092  0.00  0.00     0.046 C 
BRANCH  22  24
HETATM   24  O   UNK N   1      30.174  49.750  58.025  0.00  0.00    -0.389 OA
HETATM   25  H   UNK N   1      30.477  50.172  57.181  0.00  0.00     0.210 HD
ENDBRANCH  22  24
BRANCH  22  26
HETATM   26  C   UNK N   1      28.215  49.965  59.481  0.00  0.00     0.065 C 
BRANCH  26  27
HETATM   27  C   UNK N   1      29.242  49.783  60.565  0.00  0.00    -0.025 C 
HETATM   28  C   UNK N   1      28.887  49.647  61.856  0.00  0.00     0.006 C 
BRANCH  28  29
HETATM   29  C   UNK N   1      29.881  49.463  62.999  0.00  0.00     0.068 C 
HETATM   30  C   UNK N   1      30.471  48.051  62.883  0.00  0.00     0.050 C 
HETATM   31  C   UNK N   1      29.270  49.625  64.409  0.00  0.00     0.050 C 
BRANCH  29  32
HETATM   32  O   UNK N   1      30.930  50.388  62.844  0.00  0.00    -0.387 OA
HETATM   33  H   UNK N   1      31.737  49.882  62.560  0.00  0.00     0.211 HD
ENDBRANCH  29  32
ENDBRANCH  28  29
ENDBRANCH  26  27
ENDBRANCH  22  26
ENDBRANCH   3  22
BRANCH   2  34
HETATM   34  O   UNK N   1      25.858  48.206  57.136  0.00  0.00    -0.395 OA
HETATM   35  H   UNK N   1      26.183  48.267  56.199  0.00  0.00     0.210 HD
ENDBRANCH   2  34
BRANCH   1  36
HETATM   36  O   UNK N   1      32.029  42.350  62.271  0.00  0.00    -0.395 OA
HETATM   37  H   UNK N   1      31.972  43.186  62.805  0.00  0.00     0.210 HD
ENDBRANCH   1  36
TORSDOF 8
ENDMDL
MODEL 6
REMARK VINA RESULT:      -5.6      2.610      7.930
REMARK  8 active torsions:
REMARK  status: ('A' for Active; 'I' for Inactive)
REMARK    1  A    between atoms: O_1  and  C_5 
REMARK    2  A    between atoms: O_2  and  C_6 
REMARK    3  A    between atoms: O_3  and  C_7 
REMARK    4  A    between atoms: O_4  and  C_15 
REMARK    5  A    between atoms: C_6  and  C_8 
REMARK    6  A    between atoms: C_6  and  C_19 
REMARK    7  A    between atoms: C_15  and  C_28 
REMARK    8  A    between atoms: C_19  and  C_29 
ROOT
HETATM    1  C   UNK N   1      29.316  49.816  58.550  0.00  0.00     0.126 C 
HETATM    2  C   UNK N   1      30.660  42.387  58.660  0.00  0.00     0.126 C 
HETATM    3  C   UNK N   1      31.183  42.830  60.064  0.00  0.00     0.053 C 
HETATM    4  C   UNK N   1      29.921  44.672  58.921  0.00  0.00    -0.034 C 
HETATM    5  C   UNK N   1      28.020  47.920  60.345  0.00  0.00    -0.035 C 
HETATM    6  C   UNK N   1      30.453  44.196  60.290  0.00  0.00     0.003 C 
HETATM    7  C   UNK N   1      28.745  45.684  59.184  0.00  0.00    -0.001 C 
HETATM    8  C   UNK N   1      29.209  46.885  60.077  0.00  0.00    -0.001 C 
HETATM    9  C   UNK N   1      27.237  48.336  59.012  0.00  0.00     0.004 C 
HETATM   10  C   UNK N   1      27.820  49.612  58.208  0.00  0.00    -0.017 C 
HETATM   11  C   UNK N   1      29.567  49.974  60.079  0.00  0.00     0.033 C 
HETATM   12  C   UNK N   1      29.464  43.312  58.347  0.00  0.00     0.042 C 
HETATM   13  C   UNK N   1      28.570  49.212  60.986  0.00  0.00     0.012 C 
HETATM   14  C   UNK N   1      31.006  45.336  61.152  0.00  0.00     0.006 C 
HETATM   15  C   UNK N   1      29.877  46.361  61.390  0.00  0.00     0.006 C 
HETATM   16  C   UNK N   1      28.103  46.197  57.879  0.00  0.00     0.006 C 
HETATM   17  C   UNK N   1      26.887  47.063  58.190  0.00  0.00     0.007 C 
HETATM   18  C   UNK N   1      31.010  45.317  57.999  0.00  0.00     0.016 C 
HETATM   19  C   UNK N   1      26.984  47.314  61.340  0.00  0.00     0.016 C 
HETATM   20  C   UNK N   1      27.656  49.478  56.669  0.00  0.00     0.018 C 
HETATM   21  C   UNK N   1      27.028  50.903  58.581  0.00  0.00     0.018 C 
ENDROOT
BRANCH   3  22
HETATM   22  C   UNK N   1      32.734  42.674  60.312  0.00  0.00     0.064 C 
HETATM   23  C   UNK N   1      33.488  43.361  59.153  0.00  0.00     0.046 C 
BRANCH  22  24
HETATM   24  O   UNK N   1      33.064  41.303  60.236  0.00  0.00    -0.389 OA
HETATM   25  H   UNK N   1      32.291  40.756  60.526  0.00  0.00     0.210 HD
ENDBRANCH  22  24
BRANCH  22  26
HETATM   26  C   UNK N   1      33.221  43.288  61.664  0.00  0.00     0.065 C 
BRANCH  26  27
HETATM   27  C   UNK N   1      34.632  43.808  61.616  0.00  0.00    -0.025 C 
HETATM   28  C   UNK N   1      35.116  44.624  62.569  0.00  0.00     0.006 C 
BRANCH  28  29
HETATM   29  C   UNK N   1      36.535  45.185  62.573  0.00  0.00     0.068 C 
HETATM   30  C   UNK N   1      37.079  45.070  64.003  0.00  0.00     0.050 C 
HETATM   31  C   UNK N   1      36.640  46.660  62.125  0.00  0.00     0.050 C 
BRANCH  29  32
HETATM   32  O   UNK N   1      37.340  44.392  61.736  0.00  0.00    -0.387 OA
HETATM   33  H   UNK N   1      37.112  44.620  60.795  0.00  0.00     0.211 HD
ENDBRANCH  29  32
ENDBRANCH  28  29
ENDBRANCH  26  27
ENDBRANCH  22  26
ENDBRANCH   3  22
BRANCH   2  34
HETATM   34  O   UNK N   1      30.349  41.020  58.573  0.00  0.00    -0.395 OA
HETATM   35  H   UNK N   1      29.517  40.939  58.037  0.00  0.00     0.210 HD
ENDBRANCH   2  34
BRANCH   1  36
HETATM   36  O   UNK N   1      29.859  50.920  57.868  0.00  0.00    -0.395 OA
HETATM   37  H   UNK N   1      29.123  51.576  57.745  0.00  0.00     0.210 HD
ENDBRANCH   1  36
TORSDOF 8
ENDMDL
MODEL 7
REMARK VINA RESULT:      -5.6      3.930      6.458
REMARK  8 active torsions:
REMARK  status: ('A' for Active; 'I' for Inactive)
REMARK    1  A    between atoms: O_1  and  C_5 
REMARK    2  A    between atoms: O_2  and  C_6 
REMARK    3  A    between atoms: O_3  and  C_7 
REMARK    4  A    between atoms: O_4  and  C_15 
REMARK    5  A    between atoms: C_6  and  C_8 
REMARK    6  A    between atoms: C_6  and  C_19 
REMARK    7  A    between atoms: C_15  and  C_28 
REMARK    8  A    between atoms: C_19  and  C_29 
ROOT
HETATM    1  C   UNK N   1      30.252  36.448  55.765  0.00  0.00     0.126 C 
HETATM    2  C   UNK N   1      29.554  41.821  61.024  0.00  0.00     0.126 C 
HETATM    3  C   UNK N   1      29.859  42.662  59.743  0.00  0.00     0.053 C 
HETATM    4  C   UNK N   1      29.398  40.259  59.188  0.00  0.00    -0.034 C 
HETATM    5  C   UNK N   1      28.150  38.468  55.809  0.00  0.00    -0.035 C 
HETATM    6  C   UNK N   1      29.480  41.678  58.586  0.00  0.00     0.003 C 
HETATM    7  C   UNK N   1      28.500  39.382  58.241  0.00  0.00    -0.001 C 
HETATM    8  C   UNK N   1      29.057  39.361  56.776  0.00  0.00    -0.001 C 
HETATM    9  C   UNK N   1      27.810  37.028  56.419  0.00  0.00     0.004 C 
HETATM   10  C   UNK N   1      28.865  35.845  56.096  0.00  0.00    -0.017 C 
HETATM   11  C   UNK N   1      30.198  37.468  54.589  0.00  0.00     0.033 C 
HETATM   12  C   UNK N   1      28.738  40.602  60.542  0.00  0.00     0.042 C 
HETATM   13  C   UNK N   1      28.865  38.246  54.460  0.00  0.00     0.012 C 
HETATM   14  C   UNK N   1      30.111  41.707  57.190  0.00  0.00     0.006 C 
HETATM   15  C   UNK N   1      29.264  40.819  56.252  0.00  0.00     0.006 C 
HETATM   16  C   UNK N   1      28.311  37.944  58.768  0.00  0.00     0.006 C 
HETATM   17  C   UNK N   1      27.326  37.182  57.889  0.00  0.00     0.007 C 
HETATM   18  C   UNK N   1      30.791  39.579  59.415  0.00  0.00     0.016 C 
HETATM   19  C   UNK N   1      26.802  39.190  55.504  0.00  0.00     0.016 C 
HETATM   20  C   UNK N   1      29.008  34.832  57.265  0.00  0.00     0.018 C 
HETATM   21  C   UNK N   1      28.375  34.989  54.887  0.00  0.00     0.018 C 
ENDROOT
BRANCH   3  22
HETATM   22  C   UNK N   1      31.224  43.454  59.736  0.00  0.00     0.064 C 
HETATM   23  C   UNK N   1      32.383  42.435  59.689  0.00  0.00     0.046 C 
BRANCH  22  24
HETATM   24  O   UNK N   1      31.352  44.136  60.966  0.00  0.00    -0.389 OA
HETATM   25  H   UNK N   1      30.858  44.993  60.927  0.00  0.00     0.210 HD
ENDBRANCH  22  24
BRANCH  22  26
HETATM   26  C   UNK N   1      31.373  44.443  58.535  0.00  0.00     0.065 C 
BRANCH  26  27
HETATM   27  C   UNK N   1      30.484  45.653  58.638  0.00  0.00    -0.025 C 
HETATM   28  C   UNK N   1      30.498  46.619  57.702  0.00  0.00     0.006 C 
BRANCH  28  29
HETATM   29  C   UNK N   1      29.624  47.869  57.752  0.00  0.00     0.068 C 
HETATM   30  C   UNK N   1      30.329  48.965  56.943  0.00  0.00     0.050 C 
HETATM   31  C   UNK N   1      29.356  48.405  59.176  0.00  0.00     0.050 C 
BRANCH  29  32
HETATM   32  O   UNK N   1      28.394  47.589  57.127  0.00  0.00    -0.387 OA
HETATM   33  H   UNK N   1      28.375  46.617  56.922  0.00  0.00     0.211 HD
ENDBRANCH  29  32
ENDBRANCH  28  29
ENDBRANCH  26  27
ENDBRANCH  22  26
ENDBRANCH   3  22
BRANCH   2  34
HETATM   34  O   UNK N   1      28.924  42.548  62.047  0.00  0.00    -0.395 OA
HETATM   35  H   UNK N   1      29.159  42.113  62.908  0.00  0.00     0.210 HD
ENDBRANCH   2  34
BRANCH   1  36
HETATM   36  O   UNK N   1      31.198  35.448  55.478  0.00  0.00    -0.395 OA
HETATM   37  H   UNK N   1      30.774  34.577  55.696  0.00  0.00     0.210 HD
ENDBRANCH   1  36
TORSDOF 8
ENDMDL
MODEL 8
REMARK VINA RESULT:      -5.5      3.135      6.143
REMARK  8 active torsions:
REMARK  status: ('A' for Active; 'I' for Inactive)
REMARK    1  A    between atoms: O_1  and  C_5 
REMARK    2  A    between atoms: O_2  and  C_6 
REMARK    3  A    between atoms: O_3  and  C_7 
REMARK    4  A    between atoms: O_4  and  C_15 
REMARK    5  A    between atoms: C_6  and  C_8 
REMARK    6  A    between atoms: C_6  and  C_19 
REMARK    7  A    between atoms: C_15  and  C_28 
REMARK    8  A    between atoms: C_19  and  C_29 
ROOT
HETATM    1  C   UNK N   1      27.515  43.058  53.597  0.00  0.00     0.126 C 
HETATM    2  C   UNK N   1      31.964  43.530  59.680  0.00  0.00     0.126 C 
HETATM    3  C   UNK N   1      30.544  43.442  60.326  0.00  0.00     0.053 C 
HETATM    4  C   UNK N   1      30.475  42.966  57.864  0.00  0.00    -0.034 C 
HETATM    5  C   UNK N   1      27.844  40.950  55.583  0.00  0.00    -0.035 C 
HETATM    6  C   UNK N   1      29.682  42.816  59.179  0.00  0.00     0.003 C 
HETATM    7  C   UNK N   1      29.938  41.890  56.849  0.00  0.00    -0.001 C 
HETATM    8  C   UNK N   1      28.395  42.038  56.616  0.00  0.00    -0.001 C 
HETATM    9  C   UNK N   1      28.718  40.854  54.246  0.00  0.00     0.004 C 
HETATM   10  C   UNK N   1      28.290  41.840  53.038  0.00  0.00    -0.017 C 
HETATM   11  C   UNK N   1      26.267  42.645  54.432  0.00  0.00     0.033 C 
HETATM   12  C   UNK N   1      31.895  42.674  58.396  0.00  0.00     0.042 C 
HETATM   13  C   UNK N   1      26.396  41.290  55.171  0.00  0.00     0.012 C 
HETATM   14  C   UNK N   1      28.177  43.050  59.007  0.00  0.00     0.006 C 
HETATM   15  C   UNK N   1      27.636  42.028  57.984  0.00  0.00     0.006 C 
HETATM   16  C   UNK N   1      30.692  41.918  55.503  0.00  0.00     0.006 C 
HETATM   17  C   UNK N   1      30.227  40.772  54.611  0.00  0.00     0.007 C 
HETATM   18  C   UNK N   1      30.410  44.400  57.236  0.00  0.00     0.016 C 
HETATM   19  C   UNK N   1      27.817  39.536  56.241  0.00  0.00     0.016 C 
HETATM   20  C   UNK N   1      29.506  42.338  52.209  0.00  0.00     0.018 C 
HETATM   21  C   UNK N   1      27.389  41.088  52.009  0.00  0.00     0.018 C 
ENDROOT
BRANCH   3  22
HETATM   22  C   UNK N   1      30.058  44.715  61.120  0.00  0.00     0.064 C 
HETATM   23  C   UNK N   1      30.493  44.571  62.594  0.00  0.00     0.046 C 
BRANCH  22  24
HETATM   24  O   UNK N   1      28.646  44.727  61.127  0.00  0.00    -0.389 OA
HETATM   25  H   UNK N   1      28.308  44.920  60.217  0.00  0.00     0.210 HD
ENDBRANCH  22  24
BRANCH  22  26
HETATM   26  C   UNK N   1      30.622  46.061  60.558  0.00  0.00     0.065 C 
BRANCH  26  27
HETATM   27  C   UNK N   1      29.595  46.887  59.832  0.00  0.00    -0.025 C 
HETATM   28  C   UNK N   1      29.893  47.543  58.696  0.00  0.00     0.006 C 
BRANCH  28  29
HETATM   29  C   UNK N   1      28.897  48.397  57.917  0.00  0.00     0.068 C 
HETATM   30  C   UNK N   1      29.698  49.336  57.006  0.00  0.00     0.050 C 
HETATM   31  C   UNK N   1      27.960  49.252  58.801  0.00  0.00     0.050 C 
BRANCH  29  32
HETATM   32  O   UNK N   1      28.118  47.558  57.100  0.00  0.00    -0.387 OA
HETATM   33  H   UNK N   1      28.177  47.904  56.170  0.00  0.00     0.211 HD
ENDBRANCH  29  32
ENDBRANCH  28  29
ENDBRANCH  26  27
ENDBRANCH  22  26
ENDBRANCH   3  22
BRANCH   2  34
HETATM   34  O   UNK N   1      33.007  43.161  60.545  0.00  0.00    -0.395 OA
HETATM   35  H   UNK N   1      32.796  43.535  61.440  0.00  0.00     0.210 HD
ENDBRANCH   2  34
BRANCH   1  36
HETATM   36  O   UNK N   1      27.125  43.941  52.574  0.00  0.00    -0.395 OA
HETATM   37  H   UNK N   1      27.567  44.812  52.758  0.00  0.00     0.210 HD
ENDBRANCH   1  36
TORSDOF 8
ENDMDL
MODEL 9
REMARK VINA RESULT:      -5.5      4.520      6.838
REMARK  8 active torsions:
REMARK  status: ('A' for Active; 'I' for Inactive)
REMARK    1  A    between atoms: O_1  and  C_5 
REMARK    2  A    between atoms: O_2  and  C_6 
REMARK    3  A    between atoms: O_3  and  C_7 
REMARK    4  A    between atoms: O_4  and  C_15 
REMARK    5  A    between atoms: C_6  and  C_8 
REMARK    6  A    between atoms: C_6  and  C_19 
REMARK    7  A    between atoms: C_15  and  C_28 
REMARK    8  A    between atoms: C_19  and  C_29 
ROOT
HETATM    1  C   UNK N   1      30.710  41.558  60.104  0.00  0.00     0.126 C 
HETATM    2  C   UNK N   1      29.021  41.620  52.745  0.00  0.00     0.126 C 
HETATM    3  C   UNK N   1      27.631  41.915  53.397  0.00  0.00     0.053 C 
HETATM    4  C   UNK N   1      29.489  42.032  55.078  0.00  0.00    -0.034 C 
HETATM    5  C   UNK N   1      29.794  43.900  58.629  0.00  0.00    -0.035 C 
HETATM    6  C   UNK N   1      28.022  42.435  54.820  0.00  0.00     0.003 C 
HETATM    7  C   UNK N   1      30.066  42.988  56.186  0.00  0.00    -0.001 C 
HETATM    8  C   UNK N   1      29.210  42.933  57.497  0.00  0.00    -0.001 C 
HETATM    9  C   UNK N   1      31.370  43.730  58.848  0.00  0.00     0.004 C 
HETATM   10  C   UNK N   1      31.827  42.616  59.928  0.00  0.00    -0.017 C 
HETATM   11  C   UNK N   1      29.346  42.187  60.513  0.00  0.00     0.033 C 
HETATM   12  C   UNK N   1      30.066  42.283  53.667  0.00  0.00     0.042 C 
HETATM   13  C   UNK N   1      29.102  43.620  59.980  0.00  0.00     0.012 C 
HETATM   14  C   UNK N   1      27.132  42.299  56.061  0.00  0.00     0.006 C 
HETATM   15  C   UNK N   1      27.704  43.202  57.175  0.00  0.00     0.006 C 
HETATM   16  C   UNK N   1      31.551  42.705  56.498  0.00  0.00     0.006 C 
HETATM   17  C   UNK N   1      32.096  43.743  57.473  0.00  0.00     0.007 C 
HETATM   18  C   UNK N   1      29.680  40.532  55.488  0.00  0.00     0.016 C 
HETATM   19  C   UNK N   1      29.518  45.391  58.267  0.00  0.00     0.016 C 
HETATM   20  C   UNK N   1      33.153  41.908  59.536  0.00  0.00     0.018 C 
HETATM   21  C   UNK N   1      32.126  43.281  61.308  0.00  0.00     0.018 C 
ENDROOT
BRANCH   3  22
HETATM   22  C   UNK N   1      26.520  40.813  53.199  0.00  0.00     0.064 C 
HETATM   23  C   UNK N   1      26.671  39.756  54.314  0.00  0.00     0.046 C 
BRANCH  22  24
HETATM   24  O   UNK N   1      26.769  40.138  51.984  0.00  0.00    -0.389 OA
HETATM   25  H   UNK N   1      26.140  40.457  51.288  0.00  0.00     0.210 HD
ENDBRANCH  22  24
BRANCH  22  26
HETATM   26  C   UNK N   1      25.062  41.375  53.232  0.00  0.00     0.065 C 
BRANCH  26  27
HETATM   27  C   UNK N   1      24.955  42.800  52.762  0.00  0.00    -0.025 C 
HETATM   28  C   UNK N   1      24.111  43.156  51.776  0.00  0.00     0.006 C 
BRANCH  28  29
HETATM   29  C   UNK N   1      23.961  44.582  51.255  0.00  0.00     0.068 C 
HETATM   30  C   UNK N   1      22.566  45.081  51.654  0.00  0.00     0.050 C 
HETATM   31  C   UNK N   1      24.112  44.722  49.723  0.00  0.00     0.050 C 
BRANCH  29  32
HETATM   32  O   UNK N   1      24.914  45.401  51.887  0.00  0.00    -0.387 OA
HETATM   33  H   UNK N   1      25.440  44.828  52.506  0.00  0.00     0.211 HD
ENDBRANCH  29  32
ENDBRANCH  28  29
ENDBRANCH  26  27
ENDBRANCH  22  26
ENDBRANCH   3  22
BRANCH   2  34
HETATM   34  O   UNK N   1      29.118  42.026  51.404  0.00  0.00    -0.395 OA
HETATM   35  H   UNK N   1      30.009  42.448  51.286  0.00  0.00     0.210 HD
ENDBRANCH   2  34
BRANCH   1  36
HETATM   36  O   UNK N   1      31.072  40.571  61.037  0.00  0.00    -0.395 OA
HETATM   37  H   UNK N   1      30.660  40.826  61.905  0.00  0.00     0.210 HD
ENDBRANCH   1  36
TORSDOF 8
ENDMDL
