MODEL 1
REMARK VINA RESULT:      -6.2      0.000      0.000
REMARK  7 active torsions:
REMARK  status: ('A' for Active; 'I' for Inactive)
REMARK    1  A    between atoms: O_3  and  C_10 
REMARK    2  A    between atoms: O_4  and  C_11 
REMARK    3  A    between atoms: O_5  and  C_12 
REMARK    4  A    between atoms: O_6  and  C_13 
REMARK    5  A    between atoms: C_15  and  C_16 
REMARK    6  A    between atoms: C_17  and  C_24 
REMARK    7  A    between atoms: C_24  and  C_26 
ROOT
HETATM    1  O   UNK N   1      46.897  34.800  49.461  0.00  0.00    -0.321 OA
HETATM    2  O   UNK N   1      48.410  31.242  50.384  0.00  0.00    -0.286 OA
HETATM    3  C   UNK N   1      46.759  33.810  48.584  0.00  0.00     0.094 A 
HETATM    4  C   UNK N   1      47.505  34.643  50.632  0.00  0.00     0.159 A 
HETATM    5  C   UNK N   1      47.950  32.331  50.091  0.00  0.00     0.200 A 
HETATM    6  C   UNK N   1      47.050  31.472  47.937  0.00  0.00     0.085 A 
HETATM    7  C   UNK N   1      45.922  33.027  46.445  0.00  0.00     0.071 A 
HETATM    8  C   UNK N   1      47.260  32.520  48.873  0.00  0.00     0.082 A 
HETATM    9  C   UNK N   1      48.077  33.416  50.986  0.00  0.00     0.048 A 
HETATM   10  C   UNK N   1      46.106  34.058  47.373  0.00  0.00     0.074 A 
HETATM   11  C   UNK N   1      46.380  31.739  46.733  0.00  0.00     0.074 A 
ENDROOT
BRANCH   9  12
HETATM   12  C   UNK N   1      48.809  33.284  52.275  0.00  0.00    -0.017 A 
HETATM   13  C   UNK N   1      48.098  33.239  53.481  0.00  0.00     0.052 A 
HETATM   14  C   UNK N   1      48.765  33.084  54.713  0.00  0.00     0.102 A 
HETATM   15  C   UNK N   1      50.187  33.035  54.734  0.00  0.00     0.108 A 
HETATM   16  C   UNK N   1      50.900  33.105  53.514  0.00  0.00    -0.018 A 
HETATM   17  C   UNK N   1      50.207  33.192  52.297  0.00  0.00     0.023 A 
BRANCH  14  18
HETATM   18  O   UNK N   1      48.064  32.968  55.874  0.00  0.00    -0.353 OA
HETATM   19  C   UNK N   1      47.621  31.790  56.439  0.00  0.00     0.210 C 
ENDBRANCH  14  18
BRANCH  15  20
HETATM   20  O   UNK N   1      50.908  32.894  55.885  0.00  0.00    -0.353 OA
HETATM   21  C   UNK N   1      51.282  31.724  56.513  0.00  0.00     0.210 C 
ENDBRANCH  15  20
BRANCH  16  22
HETATM   22  C   UNK N   1      52.413  33.103  53.501  0.00  0.00     0.068 C 
BRANCH  22  23
HETATM   23  C   UNK N   1      52.943  34.347  52.833  0.00  0.00    -0.020 C 
HETATM   24  C   UNK N   1      53.145  35.557  53.411  0.00  0.00    -0.091 C 
HETATM   25  C   UNK N   1      53.735  36.669  52.581  0.00  0.00     0.042 C 
HETATM   26  C   UNK N   1      52.826  35.879  54.853  0.00  0.00     0.042 C 
ENDBRANCH  22  23
ENDBRANCH  16  22
ENDBRANCH   9  12
BRANCH   6  27
HETATM   27  O   UNK N   1      47.479  30.217  48.196  0.00  0.00    -0.360 OA
HETATM   28  H   UNK N   1      47.043  29.652  48.850  0.00  0.00     0.217 HD
ENDBRANCH   6  27
BRANCH   7  29
HETATM   29  O   UNK N   1      45.299  33.264  45.272  0.00  0.00    -0.361 OA
HETATM   30  H   UNK N   1      44.413  32.922  45.087  0.00  0.00     0.217 HD
ENDBRANCH   7  29
TORSDOF 7
ENDMDL
MODEL 2
REMARK VINA RESULT:      -6.1      4.595      7.016
REMARK  7 active torsions:
REMARK  status: ('A' for Active; 'I' for Inactive)
REMARK    1  A    between atoms: O_3  and  C_10 
REMARK    2  A    between atoms: O_4  and  C_11 
REMARK    3  A    between atoms: O_5  and  C_12 
REMARK    4  A    between atoms: O_6  and  C_13 
REMARK    5  A    between atoms: C_15  and  C_16 
REMARK    6  A    between atoms: C_17  and  C_24 
REMARK    7  A    between atoms: C_24  and  C_26 
ROOT
HETATM    1  O   UNK N   1      49.117  30.542  43.874  0.00  0.00    -0.321 OA
HETATM    2  O   UNK N   1      51.951  32.846  45.441  0.00  0.00    -0.286 OA
HETATM    3  C   UNK N   1      50.103  30.954  43.083  0.00  0.00     0.094 A 
HETATM    4  C   UNK N   1      49.050  30.857  45.162  0.00  0.00     0.159 A 
HETATM    5  C   UNK N   1      51.082  32.146  44.952  0.00  0.00     0.200 A 
HETATM    6  C   UNK N   1      52.213  32.137  42.736  0.00  0.00     0.085 A 
HETATM    7  C   UNK N   1      51.140  30.974  40.888  0.00  0.00     0.071 A 
HETATM    8  C   UNK N   1      51.147  31.757  43.595  0.00  0.00     0.082 A 
HETATM    9  C   UNK N   1      50.011  31.689  45.749  0.00  0.00     0.048 A 
HETATM   10  C   UNK N   1      50.099  30.578  41.736  0.00  0.00     0.074 A 
HETATM   11  C   UNK N   1      52.196  31.738  41.391  0.00  0.00     0.074 A 
ENDROOT
BRANCH   9  12
HETATM   12  C   UNK N   1      49.878  32.079  47.179  0.00  0.00    -0.017 A 
HETATM   13  C   UNK N   1      50.601  31.391  48.162  0.00  0.00     0.052 A 
HETATM   14  C   UNK N   1      50.516  31.761  49.520  0.00  0.00     0.102 A 
HETATM   15  C   UNK N   1      49.634  32.810  49.902  0.00  0.00     0.108 A 
HETATM   16  C   UNK N   1      48.889  33.485  48.906  0.00  0.00    -0.018 A 
HETATM   17  C   UNK N   1      49.043  33.140  47.555  0.00  0.00     0.023 A 
BRANCH  14  18
HETATM   18  O   UNK N   1      51.276  31.135  50.460  0.00  0.00    -0.353 OA
HETATM   19  C   UNK N   1      52.536  31.520  50.870  0.00  0.00     0.210 C 
ENDBRANCH  14  18
BRANCH  15  20
HETATM   20  O   UNK N   1      49.488  33.223  51.195  0.00  0.00    -0.353 OA
HETATM   21  C   UNK N   1      48.848  32.567  52.227  0.00  0.00     0.210 C 
ENDBRANCH  15  20
BRANCH  16  22
HETATM   22  C   UNK N   1      47.907  34.574  49.280  0.00  0.00     0.068 C 
BRANCH  22  23
HETATM   23  C   UNK N   1      46.563  34.324  48.643  0.00  0.00    -0.020 C 
HETATM   24  C   UNK N   1      45.608  33.462  49.074  0.00  0.00    -0.091 C 
HETATM   25  C   UNK N   1      44.302  33.394  48.323  0.00  0.00     0.042 C 
HETATM   26  C   UNK N   1      45.752  32.557  50.274  0.00  0.00     0.042 C 
ENDBRANCH  22  23
ENDBRANCH  16  22
ENDBRANCH   9  12
BRANCH   6  27
HETATM   27  O   UNK N   1      53.248  32.870  43.200  0.00  0.00    -0.360 OA
HETATM   28  H   UNK N   1      53.246  33.254  44.089  0.00  0.00     0.217 HD
ENDBRANCH   6  27
BRANCH   7  29
HETATM   29  O   UNK N   1      51.135  30.620  39.586  0.00  0.00    -0.361 OA
HETATM   30  H   UNK N   1      51.595  31.144  38.914  0.00  0.00     0.217 HD
ENDBRANCH   7  29
TORSDOF 7
ENDMDL
MODEL 3
REMARK VINA RESULT:      -5.6      3.050      8.485
REMARK  7 active torsions:
REMARK  status: ('A' for Active; 'I' for Inactive)
REMARK    1  A    between atoms: O_3  and  C_10 
REMARK    2  A    between atoms: O_4  and  C_11 
REMARK    3  A    between atoms: O_5  and  C_12 
REMARK    4  A    between atoms: O_6  and  C_13 
REMARK    5  A    between atoms: C_15  and  C_16 
REMARK    6  A    between atoms: C_17  and  C_24 
REMARK    7  A    between atoms: C_24  and  C_26 
ROOT
HETATM    1  O   UNK N   1      53.351  35.048  49.653  0.00  0.00    -0.321 OA
HETATM    2  O   UNK N   1      50.911  32.181  50.930  0.00  0.00    -0.286 OA
HETATM    3  C   UNK N   1      53.431  34.674  50.927  0.00  0.00     0.094 A 
HETATM    4  C   UNK N   1      52.503  34.495  48.793  0.00  0.00     0.159 A 
HETATM    5  C   UNK N   1      51.657  33.066  50.548  0.00  0.00     0.200 A 
HETATM    6  C   UNK N   1      52.747  33.232  52.778  0.00  0.00     0.085 A 
HETATM    7  C   UNK N   1      54.475  34.914  53.105  0.00  0.00     0.071 A 
HETATM    8  C   UNK N   1      52.601  33.644  51.426  0.00  0.00     0.082 A 
HETATM    9  C   UNK N   1      51.607  33.502  49.206  0.00  0.00     0.048 A 
HETATM   10  C   UNK N   1      54.351  35.307  51.768  0.00  0.00     0.074 A 
HETATM   11  C   UNK N   1      53.686  33.873  53.601  0.00  0.00     0.074 A 
ENDROOT
BRANCH   9  12
HETATM   12  C   UNK N   1      50.623  32.944  48.239  0.00  0.00    -0.017 A 
HETATM   13  C   UNK N   1      51.005  31.919  47.366  0.00  0.00     0.052 A 
HETATM   14  C   UNK N   1      50.084  31.352  46.461  0.00  0.00     0.102 A 
HETATM   15  C   UNK N   1      48.763  31.875  46.394  0.00  0.00     0.108 A 
HETATM   16  C   UNK N   1      48.390  32.927  47.264  0.00  0.00    -0.018 A 
HETATM   17  C   UNK N   1      49.308  33.427  48.200  0.00  0.00     0.023 A 
BRANCH  14  18
HETATM   18  O   UNK N   1      50.444  30.308  45.666  0.00  0.00    -0.353 OA
HETATM   19  C   UNK N   1      51.062  30.402  44.435  0.00  0.00     0.210 C 
ENDBRANCH  14  18
BRANCH  15  20
HETATM   20  O   UNK N   1      47.815  31.388  45.541  0.00  0.00    -0.353 OA
HETATM   21  C   UNK N   1      47.131  30.192  45.628  0.00  0.00     0.210 C 
ENDBRANCH  15  20
BRANCH  16  22
HETATM   22  C   UNK N   1      47.008  33.539  47.189  0.00  0.00     0.068 C 
BRANCH  22  23
HETATM   23  C   UNK N   1      46.625  34.158  48.509  0.00  0.00    -0.020 C 
HETATM   24  C   UNK N   1      45.428  34.053  49.139  0.00  0.00    -0.091 C 
HETATM   25  C   UNK N   1      45.257  34.708  50.486  0.00  0.00     0.042 C 
HETATM   26  C   UNK N   1      44.235  33.308  48.587  0.00  0.00     0.042 C 
ENDBRANCH  22  23
ENDBRANCH  16  22
ENDBRANCH   9  12
BRANCH   6  27
HETATM   27  O   UNK N   1      52.000  32.225  53.279  0.00  0.00    -0.360 OA
HETATM   28  H   UNK N   1      51.234  32.390  53.849  0.00  0.00     0.217 HD
ENDBRANCH   6  27
BRANCH   7  29
HETATM   29  O   UNK N   1      55.356  35.528  53.921  0.00  0.00    -0.361 OA
HETATM   30  H   UNK N   1      56.312  35.461  53.783  0.00  0.00     0.217 HD
ENDBRANCH   7  29
TORSDOF 7
ENDMDL
MODEL 4
REMARK VINA RESULT:      -5.6     20.973     22.714
REMARK  7 active torsions:
REMARK  status: ('A' for Active; 'I' for Inactive)
REMARK    1  A    between atoms: O_3  and  C_10 
REMARK    2  A    between atoms: O_4  and  C_11 
REMARK    3  A    between atoms: O_5  and  C_12 
REMARK    4  A    between atoms: O_6  and  C_13 
REMARK    5  A    between atoms: C_15  and  C_16 
REMARK    6  A    between atoms: C_17  and  C_24 
REMARK    7  A    between atoms: C_24  and  C_26 
ROOT
HETATM    1  O   UNK N   1      28.992  41.569  52.399  0.00  0.00    -0.321 OA
HETATM    2  O   UNK N   1      27.032  43.330  55.375  0.00  0.00    -0.286 OA
HETATM    3  C   UNK N   1      27.832  42.159  52.128  0.00  0.00     0.094 A 
HETATM    4  C   UNK N   1      29.525  41.557  53.616  0.00  0.00     0.159 A 
HETATM    5  C   UNK N   1      27.624  42.786  54.459  0.00  0.00     0.200 A 
HETATM    6  C   UNK N   1      25.896  43.484  52.811  0.00  0.00     0.085 A 
HETATM    7  C   UNK N   1      26.136  42.763  50.500  0.00  0.00     0.071 A 
HETATM    8  C   UNK N   1      27.106  42.818  53.145  0.00  0.00     0.082 A 
HETATM    9  C   UNK N   1      28.856  42.140  54.699  0.00  0.00     0.048 A 
HETATM   10  C   UNK N   1      27.340  42.126  50.819  0.00  0.00     0.074 A 
HETATM   11  C   UNK N   1      25.427  43.449  51.489  0.00  0.00     0.074 A 
ENDROOT
BRANCH   9  12
HETATM   12  C   UNK N   1      29.444  42.057  56.063  0.00  0.00    -0.017 A 
HETATM   13  C   UNK N   1      29.128  40.976  56.896  0.00  0.00     0.052 A 
HETATM   14  C   UNK N   1      29.696  40.858  58.181  0.00  0.00     0.102 A 
HETATM   15  C   UNK N   1      30.555  41.885  58.661  0.00  0.00     0.108 A 
HETATM   16  C   UNK N   1      30.851  42.987  57.822  0.00  0.00    -0.018 A 
HETATM   17  C   UNK N   1      30.324  43.045  56.523  0.00  0.00     0.023 A 
BRANCH  14  18
HETATM   18  O   UNK N   1      29.441  39.768  58.956  0.00  0.00    -0.353 OA
HETATM   19  C   UNK N   1      29.864  38.479  58.706  0.00  0.00     0.210 C 
ENDBRANCH  14  18
BRANCH  15  20
HETATM   20  O   UNK N   1      31.137  41.850  59.895  0.00  0.00    -0.353 OA
HETATM   21  C   UNK N   1      32.271  41.162  60.276  0.00  0.00     0.210 C 
ENDBRANCH  15  20
BRANCH  16  22
HETATM   22  C   UNK N   1      31.722  44.121  58.316  0.00  0.00     0.068 C 
BRANCH  22  23
HETATM   23  C   UNK N   1      31.375  45.408  57.610  0.00  0.00    -0.020 C 
HETATM   24  C   UNK N   1      30.631  46.429  58.103  0.00  0.00    -0.091 C 
HETATM   25  C   UNK N   1      30.438  47.661  57.255  0.00  0.00     0.042 C 
HETATM   26  C   UNK N   1      29.976  46.431  59.464  0.00  0.00     0.042 C 
ENDBRANCH  22  23
ENDBRANCH  16  22
ENDBRANCH   9  12
BRANCH   6  27
HETATM   27  O   UNK N   1      25.195  44.158  53.749  0.00  0.00    -0.360 OA
HETATM   28  H   UNK N   1      24.417  43.775  54.180  0.00  0.00     0.217 HD
ENDBRANCH   6  27
BRANCH   7  29
HETATM   29  O   UNK N   1      25.654  42.727  49.240  0.00  0.00    -0.361 OA
HETATM   30  H   UNK N   1      25.807  43.449  48.614  0.00  0.00     0.217 HD
ENDBRANCH   7  29
TORSDOF 7
ENDMDL
MODEL 5
REMARK VINA RESULT:      -5.5      1.430      4.073
REMARK  7 active torsions:
REMARK  status: ('A' for Active; 'I' for Inactive)
REMARK    1  A    between atoms: O_3  and  C_10 
REMARK    2  A    between atoms: O_4  and  C_11 
REMARK    3  A    between atoms: O_5  and  C_12 
REMARK    4  A    between atoms: O_6  and  C_13 
REMARK    5  A    between atoms: C_15  and  C_16 
REMARK    6  A    between atoms: C_17  and  C_24 
REMARK    7  A    between atoms: C_24  and  C_26 
ROOT
HETATM    1  O   UNK N   1      49.009  32.317  48.815  0.00  0.00    -0.321 OA
HETATM    2  O   UNK N   1      46.804  33.845  51.749  0.00  0.00    -0.286 OA
HETATM    3  C   UNK N   1      47.787  32.754  48.524  0.00  0.00     0.094 A 
HETATM    4  C   UNK N   1      49.523  32.384  50.038  0.00  0.00     0.159 A 
HETATM    5  C   UNK N   1      47.471  33.371  50.846  0.00  0.00     0.200 A 
HETATM    6  C   UNK N   1      45.691  33.829  49.170  0.00  0.00     0.085 A 
HETATM    7  C   UNK N   1      46.050  33.124  46.870  0.00  0.00     0.071 A 
HETATM    8  C   UNK N   1      46.970  33.325  49.526  0.00  0.00     0.082 A 
HETATM    9  C   UNK N   1      48.772  32.888  51.107  0.00  0.00     0.048 A 
HETATM   10  C   UNK N   1      47.320  32.646  47.210  0.00  0.00     0.074 A 
HETATM   11  C   UNK N   1      45.247  33.723  47.843  0.00  0.00     0.074 A 
ENDROOT
BRANCH   9  12
HETATM   12  C   UNK N   1      49.347  32.893  52.479  0.00  0.00    -0.017 A 
HETATM   13  C   UNK N   1      50.360  33.801  52.810  0.00  0.00     0.052 A 
HETATM   14  C   UNK N   1      50.901  33.846  54.111  0.00  0.00     0.102 A 
HETATM   15  C   UNK N   1      50.451  32.912  55.085  0.00  0.00     0.108 A 
HETATM   16  C   UNK N   1      49.443  31.981  54.737  0.00  0.00    -0.018 A 
HETATM   17  C   UNK N   1      48.876  32.003  53.454  0.00  0.00     0.023 A 
BRANCH  14  18
HETATM   18  O   UNK N   1      51.834  34.779  54.444  0.00  0.00    -0.353 OA
HETATM   19  C   UNK N   1      52.750  35.351  53.585  0.00  0.00     0.210 C 
ENDBRANCH  14  18
BRANCH  15  20
HETATM   20  O   UNK N   1      50.929  32.885  56.364  0.00  0.00    -0.353 OA
HETATM   21  C   UNK N   1      52.116  32.344  56.813  0.00  0.00     0.210 C 
ENDBRANCH  15  20
BRANCH  16  22
HETATM   22  C   UNK N   1      48.973  30.942  55.732  0.00  0.00     0.068 C 
BRANCH  22  23
HETATM   23  C   UNK N   1      47.800  31.456  56.528  0.00  0.00    -0.020 C 
HETATM   24  C   UNK N   1      47.769  31.707  57.860  0.00  0.00    -0.091 C 
HETATM   25  C   UNK N   1      46.507  32.268  58.464  0.00  0.00     0.042 C 
HETATM   26  C   UNK N   1      48.927  31.471  58.801  0.00  0.00     0.042 C 
ENDBRANCH  22  23
ENDBRANCH  16  22
ENDBRANCH   9  12
BRANCH   6  27
HETATM   27  O   UNK N   1      44.898  34.418  50.092  0.00  0.00    -0.360 OA
HETATM   28  H   UNK N   1      45.236  35.090  50.703  0.00  0.00     0.217 HD
ENDBRANCH   6  27
BRANCH   7  29
HETATM   29  O   UNK N   1      45.593  33.015  45.605  0.00  0.00    -0.361 OA
HETATM   30  H   UNK N   1      45.944  32.354  44.991  0.00  0.00     0.217 HD
ENDBRANCH   7  29
TORSDOF 7
ENDMDL
MODEL 6
REMARK VINA RESULT:      -5.5      4.533      6.197
REMARK  7 active torsions:
REMARK  status: ('A' for Active; 'I' for Inactive)
REMARK    1  A    between atoms: O_3  and  C_10 
REMARK    2  A    between atoms: O_4  and  C_11 
REMARK    3  A    between atoms: O_5  and  C_12 
REMARK    4  A    between atoms: O_6  and  C_13 
REMARK    5  A    between atoms: C_15  and  C_16 
REMARK    6  A    between atoms: C_17  and  C_24 
REMARK    7  A    between atoms: C_24  and  C_26 
ROOT
HETATM    1  O   UNK N   1      49.057  30.393  43.809  0.00  0.00    -0.321 OA
HETATM    2  O   UNK N   1      51.698  32.932  45.354  0.00  0.00    -0.286 OA
HETATM    3  C   UNK N   1      50.056  30.812  43.036  0.00  0.00     0.094 A 
HETATM    4  C   UNK N   1      48.918  30.777  45.073  0.00  0.00     0.159 A 
HETATM    5  C   UNK N   1      50.888  32.159  44.871  0.00  0.00     0.200 A 
HETATM    6  C   UNK N   1      52.115  32.086  42.708  0.00  0.00     0.085 A 
HETATM    7  C   UNK N   1      51.186  30.764  40.889  0.00  0.00     0.071 A 
HETATM    8  C   UNK N   1      51.033  31.698  43.543  0.00  0.00     0.082 A 
HETATM    9  C   UNK N   1      49.808  31.691  45.649  0.00  0.00     0.048 A 
HETATM   10  C   UNK N   1      50.131  30.362  41.715  0.00  0.00     0.074 A 
HETATM   11  C   UNK N   1      52.178  31.611  41.389  0.00  0.00     0.074 A 
ENDROOT
BRANCH   9  12
HETATM   12  C   UNK N   1      49.591  32.153  47.047  0.00  0.00    -0.017 A 
HETATM   13  C   UNK N   1      48.501  32.978  47.350  0.00  0.00     0.052 A 
HETATM   14  C   UNK N   1      48.257  33.405  48.671  0.00  0.00     0.102 A 
HETATM   15  C   UNK N   1      49.168  33.040  49.701  0.00  0.00     0.108 A 
HETATM   16  C   UNK N   1      50.281  32.225  49.383  0.00  0.00    -0.018 A 
HETATM   17  C   UNK N   1      50.463  31.761  48.072  0.00  0.00     0.023 A 
BRANCH  14  18
HETATM   18  O   UNK N   1      47.156  34.147  48.969  0.00  0.00    -0.353 OA
HETATM   19  C   UNK N   1      47.131  35.511  49.182  0.00  0.00     0.210 C 
ENDBRANCH  14  18
BRANCH  15  20
HETATM   20  O   UNK N   1      49.007  33.418  51.003  0.00  0.00    -0.353 OA
HETATM   21  C   UNK N   1      48.183  32.852  51.953  0.00  0.00     0.210 C 
ENDBRANCH  15  20
BRANCH  16  22
HETATM   22  C   UNK N   1      51.296  31.856  50.443  0.00  0.00     0.068 C 
BRANCH  22  23
HETATM   23  C   UNK N   1      52.412  32.870  50.490  0.00  0.00    -0.020 C 
HETATM   24  C   UNK N   1      52.746  33.661  51.540  0.00  0.00    -0.091 C 
HETATM   25  C   UNK N   1      53.934  34.580  51.407  0.00  0.00     0.042 C 
HETATM   26  C   UNK N   1      52.011  33.686  52.860  0.00  0.00     0.042 C 
ENDBRANCH  22  23
ENDBRANCH  16  22
ENDBRANCH   9  12
BRANCH   6  27
HETATM   27  O   UNK N   1      53.089  32.899  43.170  0.00  0.00    -0.360 OA
HETATM   28  H   UNK N   1      52.970  33.858  43.231  0.00  0.00     0.217 HD
ENDBRANCH   6  27
BRANCH   7  29
HETATM   29  O   UNK N   1      51.257  30.337  39.611  0.00  0.00    -0.361 OA
HETATM   30  H   UNK N   1      52.084  30.011  39.228  0.00  0.00     0.217 HD
ENDBRANCH   7  29
TORSDOF 7
ENDMDL
MODEL 7
REMARK VINA RESULT:      -5.4     22.518     24.354
REMARK  7 active torsions:
REMARK  status: ('A' for Active; 'I' for Inactive)
REMARK    1  A    between atoms: O_3  and  C_10 
REMARK    2  A    between atoms: O_4  and  C_11 
REMARK    3  A    between atoms: O_5  and  C_12 
REMARK    4  A    between atoms: O_6  and  C_13 
REMARK    5  A    between atoms: C_15  and  C_16 
REMARK    6  A    between atoms: C_17  and  C_24 
REMARK    7  A    between atoms: C_24  and  C_26 
ROOT
HETATM    1  O   UNK N   1      27.105  47.282  58.545  0.00  0.00    -0.321 OA
HETATM    2  O   UNK N   1      30.827  47.624  57.191  0.00  0.00    -0.286 OA
HETATM    3  C   UNK N   1      27.411  48.343  57.804  0.00  0.00     0.094 A 
HETATM    4  C   UNK N   1      27.985  46.331  58.836  0.00  0.00     0.159 A 
HETATM    5  C   UNK N   1      29.686  47.530  57.609  0.00  0.00     0.200 A 
HETATM    6  C   UNK N   1      28.995  49.620  56.450  0.00  0.00     0.085 A 
HETATM    7  C   UNK N   1      26.713  50.412  56.744  0.00  0.00     0.071 A 
HETATM    8  C   UNK N   1      28.714  48.502  57.280  0.00  0.00     0.082 A 
HETATM    9  C   UNK N   1      29.314  46.425  58.404  0.00  0.00     0.048 A 
HETATM   10  C   UNK N   1      26.426  49.300  57.544  0.00  0.00     0.074 A 
HETATM   11  C   UNK N   1      27.987  50.562  56.191  0.00  0.00     0.074 A 
ENDROOT
BRANCH   9  12
HETATM   12  C   UNK N   1      30.296  45.379  58.798  0.00  0.00    -0.017 A 
HETATM   13  C   UNK N   1      30.946  44.624  57.815  0.00  0.00     0.052 A 
HETATM   14  C   UNK N   1      31.903  43.648  58.161  0.00  0.00     0.102 A 
HETATM   15  C   UNK N   1      32.166  43.386  59.534  0.00  0.00     0.108 A 
HETATM   16  C   UNK N   1      31.487  44.137  60.523  0.00  0.00    -0.018 A 
HETATM   17  C   UNK N   1      30.589  45.147  60.149  0.00  0.00     0.023 A 
BRANCH  14  18
HETATM   18  O   UNK N   1      32.583  42.969  57.197  0.00  0.00    -0.353 OA
HETATM   19  C   UNK N   1      32.140  42.724  55.913  0.00  0.00     0.210 C 
ENDBRANCH  14  18
BRANCH  15  20
HETATM   20  O   UNK N   1      33.071  42.453  59.952  0.00  0.00    -0.353 OA
HETATM   21  C   UNK N   1      32.856  41.111  60.188  0.00  0.00     0.210 C 
ENDBRANCH  15  20
BRANCH  16  22
HETATM   22  C   UNK N   1      31.706  43.853  61.994  0.00  0.00     0.068 C 
BRANCH  22  23
HETATM   23  C   UNK N   1      32.822  44.706  62.543  0.00  0.00    -0.020 C 
HETATM   24  C   UNK N   1      32.700  45.918  63.139  0.00  0.00    -0.091 C 
HETATM   25  C   UNK N   1      33.939  46.592  63.671  0.00  0.00     0.042 C 
HETATM   26  C   UNK N   1      31.393  46.653  63.321  0.00  0.00     0.042 C 
ENDBRANCH  22  23
ENDBRANCH  16  22
ENDBRANCH   9  12
BRANCH   6  27
HETATM   27  O   UNK N   1      30.217  49.784  55.899  0.00  0.00    -0.360 OA
HETATM   28  H   UNK N   1      30.334  50.170  55.019  0.00  0.00     0.217 HD
ENDBRANCH   6  27
BRANCH   7  29
HETATM   29  O   UNK N   1      25.767  51.341  56.497  0.00  0.00    -0.361 OA
HETATM   30  H   UNK N   1      25.765  51.864  55.682  0.00  0.00     0.217 HD
ENDBRANCH   7  29
TORSDOF 7
ENDMDL
MODEL 8
REMARK VINA RESULT:      -5.2     22.864     24.670
REMARK  7 active torsions:
REMARK  status: ('A' for Active; 'I' for Inactive)
REMARK    1  A    between atoms: O_3  and  C_10 
REMARK    2  A    between atoms: O_4  and  C_11 
REMARK    3  A    between atoms: O_5  and  C_12 
REMARK    4  A    between atoms: O_6  and  C_13 
REMARK    5  A    between atoms: C_15  and  C_16 
REMARK    6  A    between atoms: C_17  and  C_24 
REMARK    7  A    between atoms: C_24  and  C_26 
ROOT
HETATM    1  O   UNK N   1      29.512  49.218  56.983  0.00  0.00    -0.321 OA
HETATM    2  O   UNK N   1      27.543  46.182  58.629  0.00  0.00    -0.286 OA
HETATM    3  C   UNK N   1      28.185  49.284  57.041  0.00  0.00     0.094 A 
HETATM    4  C   UNK N   1      30.201  48.189  57.464  0.00  0.00     0.159 A 
HETATM    5  C   UNK N   1      28.139  47.113  58.116  0.00  0.00     0.200 A 
HETATM    6  C   UNK N   1      26.027  48.367  57.727  0.00  0.00     0.085 A 
HETATM    7  C   UNK N   1      26.141  50.512  56.584  0.00  0.00     0.071 A 
HETATM    8  C   UNK N   1      27.438  48.241  57.635  0.00  0.00     0.082 A 
HETATM    9  C   UNK N   1      29.548  47.086  58.026  0.00  0.00     0.048 A 
HETATM   10  C   UNK N   1      27.534  50.403  56.511  0.00  0.00     0.074 A 
HETATM   11  C   UNK N   1      25.395  49.505  57.201  0.00  0.00     0.074 A 
ENDROOT
BRANCH   9  12
HETATM   12  C   UNK N   1      30.340  45.919  58.498  0.00  0.00    -0.017 A 
HETATM   13  C   UNK N   1      31.021  45.116  57.575  0.00  0.00     0.052 A 
HETATM   14  C   UNK N   1      31.804  44.022  57.999  0.00  0.00     0.102 A 
HETATM   15  C   UNK N   1      31.852  43.695  59.382  0.00  0.00     0.108 A 
HETATM   16  C   UNK N   1      31.143  44.498  60.308  0.00  0.00    -0.018 A 
HETATM   17  C   UNK N   1      30.425  45.619  59.864  0.00  0.00     0.023 A 
BRANCH  14  18
HETATM   18  O   UNK N   1      32.519  43.290  57.102  0.00  0.00    -0.353 OA
HETATM   19  C   UNK N   1      32.027  42.719  55.946  0.00  0.00     0.210 C 
ENDBRANCH  14  18
BRANCH  15  20
HETATM   20  O   UNK N   1      32.579  42.649  59.873  0.00  0.00    -0.353 OA
HETATM   21  C   UNK N   1      32.192  41.330  59.989  0.00  0.00     0.210 C 
ENDBRANCH  15  20
BRANCH  16  22
HETATM   22  C   UNK N   1      31.132  44.153  61.781  0.00  0.00     0.068 C 
BRANCH  22  23
HETATM   23  C   UNK N   1      31.811  45.231  62.588  0.00  0.00    -0.020 C 
HETATM   24  C   UNK N   1      33.114  45.267  62.961  0.00  0.00    -0.091 C 
HETATM   25  C   UNK N   1      33.616  46.465  63.728  0.00  0.00     0.042 C 
HETATM   26  C   UNK N   1      34.122  44.184  62.655  0.00  0.00     0.042 C 
ENDBRANCH  22  23
ENDBRANCH  16  22
ENDBRANCH   9  12
BRANCH   6  27
HETATM   27  O   UNK N   1      25.284  47.410  58.324  0.00  0.00    -0.360 OA
HETATM   28  H   UNK N   1      24.553  47.627  58.921  0.00  0.00     0.217 HD
ENDBRANCH   6  27
BRANCH   7  29
HETATM   29  O   UNK N   1      25.510  51.586  56.066  0.00  0.00    -0.361 OA
HETATM   30  H   UNK N   1      24.626  51.849  56.362  0.00  0.00     0.217 HD
ENDBRANCH   7  29
TORSDOF 7
ENDMDL
MODEL 9
REMARK VINA RESULT:      -5.0      1.792      2.460
REMARK  7 active torsions:
REMARK  status: ('A' for Active; 'I' for Inactive)
REMARK    1  A    between atoms: O_3  and  C_10 
REMARK    2  A    between atoms: O_4  and  C_11 
REMARK    3  A    between atoms: O_5  and  C_12 
REMARK    4  A    between atoms: O_6  and  C_13 
REMARK    5  A    between atoms: C_15  and  C_16 
REMARK    6  A    between atoms: C_17  and  C_24 
REMARK    7  A    between atoms: C_24  and  C_26 
ROOT
HETATM    1  O   UNK N   1      48.808  32.609  47.922  0.00  0.00    -0.321 OA
HETATM    2  O   UNK N   1      47.105  33.425  51.420  0.00  0.00    -0.286 OA
HETATM    3  C   UNK N   1      47.515  32.920  47.937  0.00  0.00     0.094 A 
HETATM    4  C   UNK N   1      49.551  32.575  49.023  0.00  0.00     0.159 A 
HETATM    5  C   UNK N   1      47.618  33.169  50.345  0.00  0.00     0.200 A 
HETATM    6  C   UNK N   1      45.497  33.617  49.125  0.00  0.00     0.085 A 
HETATM    7  C   UNK N   1      45.449  33.284  46.715  0.00  0.00     0.071 A 
HETATM    8  C   UNK N   1      46.866  33.239  49.151  0.00  0.00     0.082 A 
HETATM    9  C   UNK N   1      48.986  32.828  50.279  0.00  0.00     0.048 A 
HETATM   10  C   UNK N   1      46.804  32.933  46.733  0.00  0.00     0.074 A 
HETATM   11  C   UNK N   1      44.805  33.636  47.904  0.00  0.00     0.074 A 
ENDROOT
BRANCH   9  12
HETATM   12  C   UNK N   1      49.826  32.719  51.503  0.00  0.00    -0.017 A 
HETATM   13  C   UNK N   1      49.308  32.116  52.655  0.00  0.00     0.052 A 
HETATM   14  C   UNK N   1      50.093  31.974  53.818  0.00  0.00     0.102 A 
HETATM   15  C   UNK N   1      51.412  32.506  53.837  0.00  0.00     0.108 A 
HETATM   16  C   UNK N   1      51.921  33.135  52.676  0.00  0.00    -0.018 A 
HETATM   17  C   UNK N   1      51.141  33.204  51.512  0.00  0.00     0.023 A 
BRANCH  14  18
HETATM   18  O   UNK N   1      49.607  31.323  54.910  0.00  0.00    -0.353 OA
HETATM   19  C   UNK N   1      48.572  31.754  55.716  0.00  0.00     0.210 C 
ENDBRANCH  14  18
BRANCH  15  20
HETATM   20  O   UNK N   1      52.233  32.417  54.924  0.00  0.00    -0.353 OA
HETATM   21  C   UNK N   1      52.283  33.256  56.018  0.00  0.00     0.210 C 
ENDBRANCH  15  20
BRANCH  16  22
HETATM   22  C   UNK N   1      53.301  33.755  52.675  0.00  0.00     0.068 C 
BRANCH  22  23
HETATM   23  C   UNK N   1      54.047  33.398  51.413  0.00  0.00    -0.020 C 
HETATM   24  C   UNK N   1      54.382  34.238  50.403  0.00  0.00    -0.091 C 
HETATM   25  C   UNK N   1      55.178  33.696  49.242  0.00  0.00     0.042 C 
HETATM   26  C   UNK N   1      54.019  35.704  50.354  0.00  0.00     0.042 C 
ENDBRANCH  22  23
ENDBRANCH  16  22
ENDBRANCH   9  12
BRANCH   6  27
HETATM   27  O   UNK N   1      44.854  33.968  50.260  0.00  0.00    -0.360 OA
HETATM   28  H   UNK N   1      44.513  33.307  50.881  0.00  0.00     0.217 HD
ENDBRANCH   6  27
BRANCH   7  29
HETATM   29  O   UNK N   1      44.757  33.290  45.557  0.00  0.00    -0.361 OA
HETATM   30  H   UNK N   1      43.910  33.751  45.472  0.00  0.00     0.217 HD
ENDBRANCH   7  29
TORSDOF 7
ENDMDL
