MODEL 1
REMARK VINA RESULT:      -6.9      0.000      0.000
REMARK  7 active torsions:
REMARK  status: ('A' for Active; 'I' for Inactive)
REMARK    1  A    between atoms: O_3  and  C_10 
REMARK    2  A    between atoms: O_4  and  C_11 
REMARK    3  A    between atoms: O_5  and  C_12 
REMARK    4  A    between atoms: O_6  and  C_13 
REMARK    5  A    between atoms: C_15  and  C_16 
REMARK    6  A    between atoms: C_17  and  C_23 
REMARK    7  A    between atoms: C_23  and  C_25 
ROOT
HETATM    1  O   UNK N   1      41.355  48.701  45.942  0.00  0.00    -0.321 OA
HETATM    2  O   UNK N   1      38.548  45.904  46.112  0.00  0.00    -0.286 OA
HETATM    3  C   UNK N   1      40.312  48.826  45.128  0.00  0.00     0.094 A 
HETATM    4  C   UNK N   1      41.488  47.698  46.796  0.00  0.00     0.159 A 
HETATM    5  C   UNK N   1      39.393  46.774  46.034  0.00  0.00     0.200 A 
HETATM    6  C   UNK N   1      39.203  50.138  43.407  0.00  0.00     0.080 A 
HETATM    7  C   UNK N   1      38.161  48.070  44.221  0.00  0.00     0.092 A 
HETATM    8  C   UNK N   1      39.266  47.868  45.123  0.00  0.00     0.083 A 
HETATM    9  C   UNK N   1      40.520  46.701  46.876  0.00  0.00     0.050 A 
HETATM   10  C   UNK N   1      38.141  49.210  43.374  0.00  0.00     0.013 A 
HETATM   11  C   UNK N   1      40.274  49.929  44.286  0.00  0.00     0.075 A 
ENDROOT
BRANCH   9  12
HETATM   12  C   UNK N   1      40.679  45.622  47.878  0.00  0.00     0.013 A 
HETATM   13  C   UNK N   1      41.459  44.479  47.611  0.00  0.00     0.079 A 
HETATM   14  C   UNK N   1      41.601  43.488  48.600  0.00  0.00     0.073 A 
HETATM   15  C   UNK N   1      40.976  43.632  49.843  0.00  0.00     0.068 A 
HETATM   16  C   UNK N   1      40.202  44.771  50.103  0.00  0.00     0.037 A 
HETATM   17  C   UNK N   1      40.057  45.759  49.126  0.00  0.00     0.018 A 
BRANCH  13  18
HETATM   18  O   UNK N   1      42.068  44.334  46.416  0.00  0.00    -0.360 OA
HETATM   19  H   UNK N   1      41.920  43.554  45.862  0.00  0.00     0.217 HD
ENDBRANCH  13  18
BRANCH  15  20
HETATM   20  O   UNK N   1      41.123  42.674  50.780  0.00  0.00    -0.361 OA
HETATM   21  H   UNK N   1      40.941  41.743  50.591  0.00  0.00     0.217 HD
ENDBRANCH  15  20
ENDBRANCH   9  12
BRANCH   7  22
HETATM   22  O   UNK N   1      37.108  47.220  44.137  0.00  0.00    -0.359 OA
HETATM   23  H   UNK N   1      36.181  47.454  44.049  0.00  0.00     0.218 HD
ENDBRANCH   7  22
BRANCH  10  24
HETATM   24  C   UNK N   1      36.966  49.436  42.435  0.00  0.00     0.072 C 
BRANCH  24  25
HETATM   25  C   UNK N   1      35.969  50.391  43.056  0.00  0.00    -0.020 C 
HETATM   26  C   UNK N   1      34.683  50.111  43.397  0.00  0.00    -0.091 C 
HETATM   27  C   UNK N   1      33.831  51.199  44.001  0.00  0.00     0.042 C 
HETATM   28  C   UNK N   1      34.022  48.763  43.213  0.00  0.00     0.042 C 
ENDBRANCH  24  25
ENDBRANCH  10  24
BRANCH   6  29
HETATM   29  O   UNK N   1      39.174  51.222  42.580  0.00  0.00    -0.355 OA
HETATM   30  C   UNK N   1      40.013  52.316  42.681  0.00  0.00     0.210 C 
ENDBRANCH   6  29
TORSDOF 7
ENDMDL
MODEL 2
REMARK VINA RESULT:      -6.1     16.472     20.143
REMARK  7 active torsions:
REMARK  status: ('A' for Active; 'I' for Inactive)
REMARK    1  A    between atoms: O_3  and  C_10 
REMARK    2  A    between atoms: O_4  and  C_11 
REMARK    3  A    between atoms: O_5  and  C_12 
REMARK    4  A    between atoms: O_6  and  C_13 
REMARK    5  A    between atoms: C_15  and  C_16 
REMARK    6  A    between atoms: C_17  and  C_23 
REMARK    7  A    between atoms: C_23  and  C_25 
ROOT
HETATM    1  O   UNK N   1      50.759  30.662  46.747  0.00  0.00    -0.321 OA
HETATM    2  O   UNK N   1      47.624  31.822  44.613  0.00  0.00    -0.286 OA
HETATM    3  C   UNK N   1      50.901  30.720  45.427  0.00  0.00     0.094 A 
HETATM    4  C   UNK N   1      49.632  30.976  47.366  0.00  0.00     0.159 A 
HETATM    5  C   UNK N   1      48.600  31.460  45.239  0.00  0.00     0.200 A 
HETATM    6  C   UNK N   1      52.368  30.427  43.509  0.00  0.00     0.080 A 
HETATM    7  C   UNK N   1      50.054  31.169  43.168  0.00  0.00     0.092 A 
HETATM    8  C   UNK N   1      49.828  31.121  44.590  0.00  0.00     0.083 A 
HETATM    9  C   UNK N   1      48.515  31.384  46.642  0.00  0.00     0.050 A 
HETATM   10  C   UNK N   1      51.328  30.825  42.644  0.00  0.00     0.013 A 
HETATM   11  C   UNK N   1      52.136  30.380  44.891  0.00  0.00     0.075 A 
ENDROOT
BRANCH   9  12
HETATM   12  C   UNK N   1      47.287  31.775  47.374  0.00  0.00     0.013 A 
HETATM   13  C   UNK N   1      47.060  33.108  47.772  0.00  0.00     0.079 A 
HETATM   14  C   UNK N   1      45.869  33.439  48.445  0.00  0.00     0.073 A 
HETATM   15  C   UNK N   1      44.912  32.455  48.717  0.00  0.00     0.068 A 
HETATM   16  C   UNK N   1      45.143  31.132  48.318  0.00  0.00     0.037 A 
HETATM   17  C   UNK N   1      46.323  30.796  47.649  0.00  0.00     0.018 A 
BRANCH  13  18
HETATM   18  O   UNK N   1      47.976  34.062  47.509  0.00  0.00    -0.360 OA
HETATM   19  H   UNK N   1      47.992  34.899  47.998  0.00  0.00     0.217 HD
ENDBRANCH  13  18
BRANCH  15  20
HETATM   20  O   UNK N   1      43.776  32.789  49.362  0.00  0.00    -0.361 OA
HETATM   21  H   UNK N   1      43.048  33.240  48.911  0.00  0.00     0.217 HD
ENDBRANCH  15  20
ENDBRANCH   9  12
BRANCH   7  22
HETATM   22  O   UNK N   1      49.101  31.543  42.279  0.00  0.00    -0.359 OA
HETATM   23  H   UNK N   1      49.235  32.005  41.448  0.00  0.00     0.218 HD
ENDBRANCH   7  22
BRANCH  10  24
HETATM   24  C   UNK N   1      51.575  30.895  41.145  0.00  0.00     0.072 C 
BRANCH  24  25
HETATM   25  C   UNK N   1      52.325  32.161  40.791  0.00  0.00    -0.020 C 
HETATM   26  C   UNK N   1      53.478  32.247  40.076  0.00  0.00    -0.091 C 
HETATM   27  C   UNK N   1      54.088  33.604  39.829  0.00  0.00     0.042 C 
HETATM   28  C   UNK N   1      54.216  31.062  39.494  0.00  0.00     0.042 C 
ENDBRANCH  24  25
ENDBRANCH  10  24
BRANCH   6  29
HETATM   29  O   UNK N   1      53.583  30.089  42.990  0.00  0.00    -0.355 OA
HETATM   30  C   UNK N   1      54.767  30.755  43.249  0.00  0.00     0.210 C 
ENDBRANCH   6  29
TORSDOF 7
ENDMDL
MODEL 3
REMARK VINA RESULT:      -5.8     15.683     19.724
REMARK  7 active torsions:
REMARK  status: ('A' for Active; 'I' for Inactive)
REMARK    1  A    between atoms: O_3  and  C_10 
REMARK    2  A    between atoms: O_4  and  C_11 
REMARK    3  A    between atoms: O_5  and  C_12 
REMARK    4  A    between atoms: O_6  and  C_13 
REMARK    5  A    between atoms: C_15  and  C_16 
REMARK    6  A    between atoms: C_17  and  C_23 
REMARK    7  A    between atoms: C_23  and  C_25 
ROOT
HETATM    1  O   UNK N   1      48.125  34.506  53.915  0.00  0.00    -0.321 OA
HETATM    2  O   UNK N   1      49.003  32.772  50.458  0.00  0.00    -0.286 OA
HETATM    3  C   UNK N   1      49.404  34.246  53.664  0.00  0.00     0.094 A 
HETATM    4  C   UNK N   1      47.151  34.217  53.067  0.00  0.00     0.159 A 
HETATM    5  C   UNK N   1      48.765  33.300  51.526  0.00  0.00     0.200 A 
HETATM    6  C   UNK N   1      51.710  34.380  54.428  0.00  0.00     0.080 A 
HETATM    7  C   UNK N   1      51.208  33.381  52.243  0.00  0.00     0.092 A 
HETATM    8  C   UNK N   1      49.804  33.625  52.453  0.00  0.00     0.083 A 
HETATM    9  C   UNK N   1      47.429  33.607  51.848  0.00  0.00     0.050 A 
HETATM   10  C   UNK N   1      52.147  33.767  53.235  0.00  0.00     0.013 A 
HETATM   11  C   UNK N   1      50.341  34.609  54.623  0.00  0.00     0.075 A 
ENDROOT
BRANCH   9  12
HETATM   12  C   UNK N   1      46.318  33.343  50.904  0.00  0.00     0.013 A 
HETATM   13  C   UNK N   1      45.887  32.032  50.621  0.00  0.00     0.079 A 
HETATM   14  C   UNK N   1      44.812  31.829  49.735  0.00  0.00     0.073 A 
HETATM   15  C   UNK N   1      44.171  32.919  49.138  0.00  0.00     0.068 A 
HETATM   16  C   UNK N   1      44.602  34.221  49.424  0.00  0.00     0.037 A 
HETATM   17  C   UNK N   1      45.668  34.430  50.302  0.00  0.00     0.018 A 
BRANCH  13  18
HETATM   18  O   UNK N   1      46.498  30.976  51.197  0.00  0.00    -0.360 OA
HETATM   19  H   UNK N   1      47.426  31.015  51.471  0.00  0.00     0.217 HD
ENDBRANCH  13  18
BRANCH  15  20
HETATM   20  O   UNK N   1      43.142  32.707  48.292  0.00  0.00    -0.361 OA
HETATM   21  H   UNK N   1      42.897  31.817  48.000  0.00  0.00     0.217 HD
ENDBRANCH  15  20
ENDBRANCH   9  12
BRANCH   7  22
HETATM   22  O   UNK N   1      51.698  32.798  51.122  0.00  0.00    -0.359 OA
HETATM   23  H   UNK N   1      52.092  31.925  51.048  0.00  0.00     0.218 HD
ENDBRANCH   7  22
BRANCH  10  24
HETATM   24  C   UNK N   1      53.632  33.528  53.007  0.00  0.00     0.072 C 
BRANCH  24  25
HETATM   25  C   UNK N   1      54.147  34.424  51.901  0.00  0.00    -0.020 C 
HETATM   26  C   UNK N   1      54.520  35.726  52.021  0.00  0.00    -0.091 C 
HETATM   27  C   UNK N   1      55.003  36.466  50.798  0.00  0.00     0.042 C 
HETATM   28  C   UNK N   1      54.489  36.512  53.312  0.00  0.00     0.042 C 
ENDBRANCH  24  25
ENDBRANCH  10  24
BRANCH   6  29
HETATM   29  O   UNK N   1      52.623  34.735  55.375  0.00  0.00    -0.355 OA
HETATM   30  C   UNK N   1      52.784  34.103  56.595  0.00  0.00     0.210 C 
ENDBRANCH   6  29
TORSDOF 7
ENDMDL
MODEL 4
REMARK VINA RESULT:      -5.8     15.976     20.008
REMARK  7 active torsions:
REMARK  status: ('A' for Active; 'I' for Inactive)
REMARK    1  A    between atoms: O_3  and  C_10 
REMARK    2  A    between atoms: O_4  and  C_11 
REMARK    3  A    between atoms: O_5  and  C_12 
REMARK    4  A    between atoms: O_6  and  C_13 
REMARK    5  A    between atoms: C_15  and  C_16 
REMARK    6  A    between atoms: C_17  and  C_23 
REMARK    7  A    between atoms: C_23  and  C_25 
ROOT
HETATM    1  O   UNK N   1      47.678  32.864  52.947  0.00  0.00    -0.321 OA
HETATM    2  O   UNK N   1      50.041  33.300  49.792  0.00  0.00    -0.286 OA
HETATM    3  C   UNK N   1      48.979  33.014  53.169  0.00  0.00     0.094 A 
HETATM    4  C   UNK N   1      47.149  32.859  51.734  0.00  0.00     0.159 A 
HETATM    5  C   UNK N   1      49.343  33.164  50.778  0.00  0.00     0.200 A 
HETATM    6  C   UNK N   1      50.772  33.182  54.805  0.00  0.00     0.080 A 
HETATM    7  C   UNK N   1      51.290  33.338  52.411  0.00  0.00     0.092 A 
HETATM    8  C   UNK N   1      49.894  33.172  52.097  0.00  0.00     0.083 A 
HETATM    9  C   UNK N   1      47.954  33.008  50.608  0.00  0.00     0.050 A 
HETATM   10  C   UNK N   1      51.712  33.346  53.767  0.00  0.00     0.013 A 
HETATM   11  C   UNK N   1      49.417  33.017  54.487  0.00  0.00     0.075 A 
ENDROOT
BRANCH   9  12
HETATM   12  C   UNK N   1      47.321  33.048  49.270  0.00  0.00     0.013 A 
HETATM   13  C   UNK N   1      47.259  34.238  48.519  0.00  0.00     0.079 A 
HETATM   14  C   UNK N   1      46.668  34.226  47.242  0.00  0.00     0.073 A 
HETATM   15  C   UNK N   1      46.145  33.040  46.715  0.00  0.00     0.068 A 
HETATM   16  C   UNK N   1      46.210  31.859  47.466  0.00  0.00     0.037 A 
HETATM   17  C   UNK N   1      46.795  31.864  48.734  0.00  0.00     0.018 A 
BRANCH  13  18
HETATM   18  O   UNK N   1      47.766  35.385  49.018  0.00  0.00    -0.360 OA
HETATM   19  H   UNK N   1      47.191  36.097  49.336  0.00  0.00     0.217 HD
ENDBRANCH  13  18
BRANCH  15  20
HETATM   20  O   UNK N   1      45.583  33.045  45.489  0.00  0.00    -0.361 OA
HETATM   21  H   UNK N   1      45.794  33.724  44.834  0.00  0.00     0.217 HD
ENDBRANCH  15  20
ENDBRANCH   9  12
BRANCH   7  22
HETATM   22  O   UNK N   1      52.248  33.501  51.465  0.00  0.00    -0.359 OA
HETATM   23  H   UNK N   1      52.622  32.823  50.897  0.00  0.00     0.218 HD
ENDBRANCH   7  22
BRANCH  10  24
HETATM   24  C   UNK N   1      53.184  33.541  54.101  0.00  0.00     0.072 C 
BRANCH  24  25
HETATM   25  C   UNK N   1      53.412  34.914  54.696  0.00  0.00    -0.020 C 
HETATM   26  C   UNK N   1      53.704  36.053  54.015  0.00  0.00    -0.091 C 
HETATM   27  C   UNK N   1      53.908  37.335  54.784  0.00  0.00     0.042 C 
HETATM   28  C   UNK N   1      53.845  36.142  52.512  0.00  0.00     0.042 C 
ENDBRANCH  24  25
ENDBRANCH  10  24
BRANCH   6  29
HETATM   29  O   UNK N   1      51.195  33.181  56.101  0.00  0.00    -0.355 OA
HETATM   30  C   UNK N   1      51.295  32.056  56.899  0.00  0.00     0.210 C 
ENDBRANCH   6  29
TORSDOF 7
ENDMDL
MODEL 5
REMARK VINA RESULT:      -5.8     15.454     19.085
REMARK  7 active torsions:
REMARK  status: ('A' for Active; 'I' for Inactive)
REMARK    1  A    between atoms: O_3  and  C_10 
REMARK    2  A    between atoms: O_4  and  C_11 
REMARK    3  A    between atoms: O_5  and  C_12 
REMARK    4  A    between atoms: O_6  and  C_13 
REMARK    5  A    between atoms: C_15  and  C_16 
REMARK    6  A    between atoms: C_17  and  C_23 
REMARK    7  A    between atoms: C_23  and  C_25 
ROOT
HETATM    1  O   UNK N   1      48.425  34.331  53.153  0.00  0.00    -0.321 OA
HETATM    2  O   UNK N   1      47.099  30.666  53.888  0.00  0.00    -0.286 OA
HETATM    3  C   UNK N   1      47.671  33.752  52.225  0.00  0.00     0.094 A 
HETATM    4  C   UNK N   1      48.741  33.743  54.296  0.00  0.00     0.159 A 
HETATM    5  C   UNK N   1      47.493  31.787  53.633  0.00  0.00     0.200 A 
HETATM    6  C   UNK N   1      46.595  33.936  50.051  0.00  0.00     0.080 A 
HETATM    7  C   UNK N   1      46.341  31.878  51.363  0.00  0.00     0.092 A 
HETATM    8  C   UNK N   1      47.159  32.441  52.407  0.00  0.00     0.083 A 
HETATM    9  C   UNK N   1      48.291  32.457  54.580  0.00  0.00     0.050 A 
HETATM   10  C   UNK N   1      46.065  32.638  50.196  0.00  0.00     0.013 A 
HETATM   11  C   UNK N   1      47.393  34.473  51.071  0.00  0.00     0.075 A 
ENDROOT
BRANCH   9  12
HETATM   12  C   UNK N   1      48.625  31.850  55.890  0.00  0.00     0.013 A 
HETATM   13  C   UNK N   1      47.765  31.976  57.000  0.00  0.00     0.079 A 
HETATM   14  C   UNK N   1      48.110  31.365  58.220  0.00  0.00     0.073 A 
HETATM   15  C   UNK N   1      49.297  30.634  58.335  0.00  0.00     0.068 A 
HETATM   16  C   UNK N   1      50.147  30.511  57.229  0.00  0.00     0.037 A 
HETATM   17  C   UNK N   1      49.811  31.115  56.014  0.00  0.00     0.018 A 
BRANCH  13  18
HETATM   18  O   UNK N   1      46.617  32.676  56.895  0.00  0.00    -0.360 OA
HETATM   19  H   UNK N   1      46.502  33.364  56.223  0.00  0.00     0.217 HD
ENDBRANCH  13  18
BRANCH  15  20
HETATM   20  O   UNK N   1      49.613  30.054  59.511  0.00  0.00    -0.361 OA
HETATM   21  H   UNK N   1      50.499  29.707  59.687  0.00  0.00     0.217 HD
ENDBRANCH  15  20
ENDBRANCH   9  12
BRANCH   7  22
HETATM   22  O   UNK N   1      45.798  30.638  51.436  0.00  0.00    -0.359 OA
HETATM   23  H   UNK N   1      45.672  30.018  50.714  0.00  0.00     0.218 HD
ENDBRANCH   7  22
BRANCH  10  24
HETATM   24  C   UNK N   1      45.185  32.052  49.101  0.00  0.00     0.072 C 
BRANCH  24  25
HETATM   25  C   UNK N   1      46.005  31.182  48.174  0.00  0.00    -0.020 C 
HETATM   26  C   UNK N   1      46.368  31.476  46.898  0.00  0.00    -0.091 C 
HETATM   27  C   UNK N   1      47.185  30.475  46.118  0.00  0.00     0.042 C 
HETATM   28  C   UNK N   1      46.011  32.757  46.177  0.00  0.00     0.042 C 
ENDBRANCH  24  25
ENDBRANCH  10  24
BRANCH   6  29
HETATM   29  O   UNK N   1      46.329  34.648  48.919  0.00  0.00    -0.355 OA
HETATM   30  C   UNK N   1      47.214  35.516  48.306  0.00  0.00     0.210 C 
ENDBRANCH   6  29
TORSDOF 7
ENDMDL
MODEL 6
REMARK VINA RESULT:      -5.6     15.816     18.775
REMARK  7 active torsions:
REMARK  status: ('A' for Active; 'I' for Inactive)
REMARK    1  A    between atoms: O_3  and  C_10 
REMARK    2  A    between atoms: O_4  and  C_11 
REMARK    3  A    between atoms: O_5  and  C_12 
REMARK    4  A    between atoms: O_6  and  C_13 
REMARK    5  A    between atoms: C_15  and  C_16 
REMARK    6  A    between atoms: C_17  and  C_23 
REMARK    7  A    between atoms: C_23  and  C_25 
ROOT
HETATM    1  O   UNK N   1      46.974  33.876  52.889  0.00  0.00    -0.321 OA
HETATM    2  O   UNK N   1      50.585  33.076  51.456  0.00  0.00    -0.286 OA
HETATM    3  C   UNK N   1      47.112  33.807  51.569  0.00  0.00     0.094 A 
HETATM    4  C   UNK N   1      47.979  33.685  53.729  0.00  0.00     0.159 A 
HETATM    5  C   UNK N   1      49.468  33.326  51.865  0.00  0.00     0.200 A 
HETATM    6  C   UNK N   1      46.042  33.944  49.389  0.00  0.00     0.080 A 
HETATM    7  C   UNK N   1      48.443  33.463  49.537  0.00  0.00     0.092 A 
HETATM    8  C   UNK N   1      48.369  33.530  50.974  0.00  0.00     0.083 A 
HETATM    9  C   UNK N   1      49.257  33.405  53.254  0.00  0.00     0.050 A 
HETATM   10  C   UNK N   1      47.273  33.666  48.760  0.00  0.00     0.013 A 
HETATM   11  C   UNK N   1      45.982  34.011  50.787  0.00  0.00     0.075 A 
ENDROOT
BRANCH   9  12
HETATM   12  C   UNK N   1      50.346  33.149  54.226  0.00  0.00     0.013 A 
HETATM   13  C   UNK N   1      51.163  34.191  54.708  0.00  0.00     0.079 A 
HETATM   14  C   UNK N   1      52.172  33.907  55.647  0.00  0.00     0.073 A 
HETATM   15  C   UNK N   1      52.364  32.599  56.106  0.00  0.00     0.068 A 
HETATM   16  C   UNK N   1      51.548  31.568  55.625  0.00  0.00     0.037 A 
HETATM   17  C   UNK N   1      50.545  31.842  54.692  0.00  0.00     0.018 A 
BRANCH  13  18
HETATM   18  O   UNK N   1      50.980  35.455  54.274  0.00  0.00    -0.360 OA
HETATM   19  H   UNK N   1      51.648  36.143  54.417  0.00  0.00     0.217 HD
ENDBRANCH  13  18
BRANCH  15  20
HETATM   20  O   UNK N   1      53.334  32.344  57.007  0.00  0.00    -0.361 OA
HETATM   21  H   UNK N   1      54.049  31.718  56.824  0.00  0.00     0.217 HD
ENDBRANCH  15  20
ENDBRANCH   9  12
BRANCH   7  22
HETATM   22  O   UNK N   1      49.592  33.200  48.867  0.00  0.00    -0.359 OA
HETATM   23  H   UNK N   1      49.676  32.818  47.990  0.00  0.00     0.218 HD
ENDBRANCH   7  22
BRANCH  10  24
HETATM   24  C   UNK N   1      47.345  33.576  47.242  0.00  0.00     0.072 C 
BRANCH  24  25
HETATM   25  C   UNK N   1      47.093  32.155  46.786  0.00  0.00    -0.020 C 
HETATM   26  C   UNK N   1      47.960  31.355  46.111  0.00  0.00    -0.091 C 
HETATM   27  C   UNK N   1      47.527  29.962  45.729  0.00  0.00     0.042 C 
HETATM   28  C   UNK N   1      49.359  31.760  45.701  0.00  0.00     0.042 C 
ENDBRANCH  24  25
ENDBRANCH  10  24
BRANCH   6  29
HETATM   29  O   UNK N   1      44.929  34.148  48.627  0.00  0.00    -0.355 OA
HETATM   30  C   UNK N   1      43.823  33.317  48.605  0.00  0.00     0.210 C 
ENDBRANCH   6  29
TORSDOF 7
ENDMDL
MODEL 7
REMARK VINA RESULT:      -5.4     15.366     17.716
REMARK  7 active torsions:
REMARK  status: ('A' for Active; 'I' for Inactive)
REMARK    1  A    between atoms: O_3  and  C_10 
REMARK    2  A    between atoms: O_4  and  C_11 
REMARK    3  A    between atoms: O_5  and  C_12 
REMARK    4  A    between atoms: O_6  and  C_13 
REMARK    5  A    between atoms: C_15  and  C_16 
REMARK    6  A    between atoms: C_17  and  C_23 
REMARK    7  A    between atoms: C_23  and  C_25 
ROOT
HETATM    1  O   UNK N   1      30.889  42.888  61.301  0.00  0.00    -0.321 OA
HETATM    2  O   UNK N   1      32.806  42.694  57.834  0.00  0.00    -0.286 OA
HETATM    3  C   UNK N   1      32.184  43.191  61.295  0.00  0.00     0.094 A 
HETATM    4  C   UNK N   1      30.227  42.535  60.211  0.00  0.00     0.159 A 
HETATM    5  C   UNK N   1      32.247  42.759  58.911  0.00  0.00     0.200 A 
HETATM    6  C   UNK N   1      34.125  43.907  62.572  0.00  0.00     0.080 A 
HETATM    7  C   UNK N   1      34.340  43.492  60.163  0.00  0.00     0.092 A 
HETATM    8  C   UNK N   1      32.944  43.143  60.098  0.00  0.00     0.083 A 
HETATM    9  C   UNK N   1      30.873  42.457  58.981  0.00  0.00     0.050 A 
HETATM   10  C   UNK N   1      34.914  43.876  61.404  0.00  0.00     0.013 A 
HETATM   11  C   UNK N   1      32.769  43.562  62.498  0.00  0.00     0.075 A 
ENDROOT
BRANCH   9  12
HETATM   12  C   UNK N   1      30.087  42.106  57.775  0.00  0.00     0.013 A 
HETATM   13  C   UNK N   1      29.572  43.098  56.918  0.00  0.00     0.079 A 
HETATM   14  C   UNK N   1      28.849  42.720  55.771  0.00  0.00     0.073 A 
HETATM   15  C   UNK N   1      28.643  41.368  55.478  0.00  0.00     0.068 A 
HETATM   16  C   UNK N   1      29.159  40.385  56.333  0.00  0.00     0.037 A 
HETATM   17  C   UNK N   1      29.878  40.753  57.473  0.00  0.00     0.018 A 
BRANCH  13  18
HETATM   18  O   UNK N   1      29.770  44.404  57.192  0.00  0.00    -0.360 OA
HETATM   19  H   UNK N   1      30.592  44.855  56.947  0.00  0.00     0.217 HD
ENDBRANCH  13  18
BRANCH  15  20
HETATM   20  O   UNK N   1      27.950  41.022  54.374  0.00  0.00    -0.361 OA
HETATM   21  H   UNK N   1      28.250  40.315  53.784  0.00  0.00     0.217 HD
ENDBRANCH  15  20
ENDBRANCH   9  12
BRANCH   7  22
HETATM   22  O   UNK N   1      35.156  43.484  59.081  0.00  0.00    -0.359 OA
HETATM   23  H   UNK N   1      36.001  43.037  58.996  0.00  0.00     0.218 HD
ENDBRANCH   7  22
BRANCH  10  24
HETATM   24  C   UNK N   1      36.384  44.264  61.471  0.00  0.00     0.072 C 
BRANCH  24  25
HETATM   25  C   UNK N   1      36.529  45.767  61.568  0.00  0.00    -0.020 C 
HETATM   26  C   UNK N   1      37.398  46.447  62.362  0.00  0.00    -0.091 C 
HETATM   27  C   UNK N   1      37.393  47.955  62.331  0.00  0.00     0.042 C 
HETATM   28  C   UNK N   1      38.394  45.798  63.297  0.00  0.00     0.042 C 
ENDBRANCH  24  25
ENDBRANCH  10  24
BRANCH   6  29
HETATM   29  O   UNK N   1      34.695  44.267  63.758  0.00  0.00    -0.355 OA
HETATM   30  C   UNK N   1      34.337  45.377  64.501  0.00  0.00     0.210 C 
ENDBRANCH   6  29
TORSDOF 7
ENDMDL
MODEL 8
REMARK VINA RESULT:      -5.4     15.502     18.302
REMARK  7 active torsions:
REMARK  status: ('A' for Active; 'I' for Inactive)
REMARK    1  A    between atoms: O_3  and  C_10 
REMARK    2  A    between atoms: O_4  and  C_11 
REMARK    3  A    between atoms: O_5  and  C_12 
REMARK    4  A    between atoms: O_6  and  C_13 
REMARK    5  A    between atoms: C_15  and  C_16 
REMARK    6  A    between atoms: C_17  and  C_23 
REMARK    7  A    between atoms: C_23  and  C_25 
ROOT
HETATM    1  O   UNK N   1      34.274  44.794  64.756  0.00  0.00    -0.321 OA
HETATM    2  O   UNK N   1      37.240  44.991  62.129  0.00  0.00    -0.286 OA
HETATM    3  C   UNK N   1      34.066  44.272  63.551  0.00  0.00     0.094 A 
HETATM    4  C   UNK N   1      35.416  45.363  65.107  0.00  0.00     0.159 A 
HETATM    5  C   UNK N   1      36.312  44.919  62.911  0.00  0.00     0.200 A 
HETATM    6  C   UNK N   1      32.538  43.105  62.061  0.00  0.00     0.080 A 
HETATM    7  C   UNK N   1      34.781  43.712  61.272  0.00  0.00     0.092 A 
HETATM    8  C   UNK N   1      35.073  44.304  62.553  0.00  0.00     0.083 A 
HETATM    9  C   UNK N   1      36.473  45.448  64.206  0.00  0.00     0.050 A 
HETATM   10  C   UNK N   1      33.514  43.113  61.044  0.00  0.00     0.013 A 
HETATM   11  C   UNK N   1      32.831  43.687  63.302  0.00  0.00     0.075 A 
ENDROOT
BRANCH   9  12
HETATM   12  C   UNK N   1      37.753  46.048  64.651  0.00  0.00     0.013 A 
HETATM   13  C   UNK N   1      38.917  45.269  64.808  0.00  0.00     0.079 A 
HETATM   14  C   UNK N   1      40.116  45.884  65.212  0.00  0.00     0.073 A 
HETATM   15  C   UNK N   1      40.159  47.261  65.455  0.00  0.00     0.068 A 
HETATM   16  C   UNK N   1      39.000  48.031  65.296  0.00  0.00     0.037 A 
HETATM   17  C   UNK N   1      37.805  47.427  64.896  0.00  0.00     0.018 A 
BRANCH  13  18
HETATM   18  O   UNK N   1      38.884  43.941  64.570  0.00  0.00    -0.360 OA
HETATM   19  H   UNK N   1      39.059  43.296  65.272  0.00  0.00     0.217 HD
ENDBRANCH  13  18
BRANCH  15  20
HETATM   20  O   UNK N   1      41.317  47.835  65.840  0.00  0.00    -0.361 OA
HETATM   21  H   UNK N   1      41.683  48.604  65.380  0.00  0.00     0.217 HD
ENDBRANCH  15  20
ENDBRANCH   9  12
BRANCH   7  22
HETATM   22  O   UNK N   1      35.671  43.683  60.250  0.00  0.00    -0.359 OA
HETATM   23  H   UNK N   1      36.629  43.669  60.317  0.00  0.00     0.218 HD
ENDBRANCH   7  22
BRANCH  10  24
HETATM   24  C   UNK N   1      33.211  42.469  59.699  0.00  0.00     0.072 C 
BRANCH  24  25
HETATM   25  C   UNK N   1      32.426  43.421  58.823  0.00  0.00    -0.020 C 
HETATM   26  C   UNK N   1      31.201  43.196  58.277  0.00  0.00    -0.091 C 
HETATM   27  C   UNK N   1      30.573  44.265  57.418  0.00  0.00     0.042 C 
HETATM   28  C   UNK N   1      30.397  41.929  58.467  0.00  0.00     0.042 C 
ENDBRANCH  24  25
ENDBRANCH  10  24
BRANCH   6  29
HETATM   29  O   UNK N   1      31.323  42.535  61.822  0.00  0.00    -0.355 OA
HETATM   30  C   UNK N   1      30.104  43.145  62.056  0.00  0.00     0.210 C 
ENDBRANCH   6  29
TORSDOF 7
ENDMDL
MODEL 9
REMARK VINA RESULT:      -5.4     15.784     20.399
REMARK  7 active torsions:
REMARK  status: ('A' for Active; 'I' for Inactive)
REMARK    1  A    between atoms: O_3  and  C_10 
REMARK    2  A    between atoms: O_4  and  C_11 
REMARK    3  A    between atoms: O_5  and  C_12 
REMARK    4  A    between atoms: O_6  and  C_13 
REMARK    5  A    between atoms: C_15  and  C_16 
REMARK    6  A    between atoms: C_17  and  C_23 
REMARK    7  A    between atoms: C_23  and  C_25 
ROOT
HETATM    1  O   UNK N   1      47.912  34.828  52.618  0.00  0.00    -0.321 OA
HETATM    2  O   UNK N   1      48.285  31.664  50.257  0.00  0.00    -0.286 OA
HETATM    3  C   UNK N   1      48.743  33.866  53.005  0.00  0.00     0.094 A 
HETATM    4  C   UNK N   1      47.219  34.773  51.491  0.00  0.00     0.159 A 
HETATM    5  C   UNK N   1      48.188  32.618  51.002  0.00  0.00     0.200 A 
HETATM    6  C   UNK N   1      50.331  33.079  54.670  0.00  0.00     0.080 A 
HETATM    7  C   UNK N   1      49.855  31.701  52.696  0.00  0.00     0.092 A 
HETATM    8  C   UNK N   1      48.932  32.700  52.220  0.00  0.00     0.083 A 
HETATM    9  C   UNK N   1      47.328  33.674  50.644  0.00  0.00     0.050 A 
HETATM   10  C   UNK N   1      50.549  31.906  53.917  0.00  0.00     0.013 A 
HETATM   11  C   UNK N   1      49.428  34.042  54.200  0.00  0.00     0.075 A 
ENDROOT
BRANCH   9  12
HETATM   12  C   UNK N   1      46.575  33.670  49.369  0.00  0.00     0.013 A 
HETATM   13  C   UNK N   1      47.189  34.019  48.149  0.00  0.00     0.079 A 
HETATM   14  C   UNK N   1      46.442  33.981  46.958  0.00  0.00     0.073 A 
HETATM   15  C   UNK N   1      45.097  33.597  46.977  0.00  0.00     0.068 A 
HETATM   16  C   UNK N   1      44.492  33.250  48.192  0.00  0.00     0.037 A 
HETATM   17  C   UNK N   1      45.227  33.285  49.379  0.00  0.00     0.018 A 
BRANCH  13  18
HETATM   18  O   UNK N   1      48.487  34.386  48.122  0.00  0.00    -0.360 OA
HETATM   19  H   UNK N   1      49.169  33.813  47.740  0.00  0.00     0.217 HD
ENDBRANCH  13  18
BRANCH  15  20
HETATM   20  O   UNK N   1      44.395  33.564  45.826  0.00  0.00    -0.361 OA
HETATM   21  H   UNK N   1      43.954  32.758  45.521  0.00  0.00     0.217 HD
ENDBRANCH  15  20
ENDBRANCH   9  12
BRANCH   7  22
HETATM   22  O   UNK N   1      50.114  30.552  52.024  0.00  0.00    -0.359 OA
HETATM   23  H   UNK N   1      50.916  30.026  52.065  0.00  0.00     0.218 HD
ENDBRANCH   7  22
BRANCH  10  24
HETATM   24  C   UNK N   1      51.539  30.862  54.412  0.00  0.00     0.072 C 
BRANCH  24  25
HETATM   25  C   UNK N   1      52.927  31.161  53.887  0.00  0.00    -0.020 C 
HETATM   26  C   UNK N   1      54.074  31.218  54.616  0.00  0.00    -0.091 C 
HETATM   27  C   UNK N   1      55.371  31.541  53.917  0.00  0.00     0.042 C 
HETATM   28  C   UNK N   1      54.155  30.979  56.107  0.00  0.00     0.042 C 
ENDBRANCH  24  25
ENDBRANCH  10  24
BRANCH   6  29
HETATM   29  O   UNK N   1      50.998  33.256  55.846  0.00  0.00    -0.355 OA
HETATM   30  C   UNK N   1      52.086  34.091  56.020  0.00  0.00     0.210 C 
ENDBRANCH   6  29
TORSDOF 7
ENDMDL
