MODEL 1
REMARK VINA RESULT:      -6.2      0.000      0.000
REMARK  5 active torsions:
REMARK  status: ('A' for Active; 'I' for Inactive)
REMARK    1  A    between atoms: O_3  and  C_10 
REMARK    2  A    between atoms: O_4  and  C_11 
REMARK    3  A    between atoms: O_5  and  C_12 
REMARK    4  A    between atoms: O_6  and  C_13 
REMARK    5  A    between atoms: C_15  and  C_16 
ROOT
HETATM    1  O   UNK N   1      38.844  47.141  47.933  0.00  0.00    -0.321 OA
HETATM    2  O   UNK N   1      41.128  46.610  44.723  0.00  0.00    -0.286 OA
HETATM    3  C   UNK N   1      39.603  46.052  47.876  0.00  0.00     0.094 A 
HETATM    4  C   UNK N   1      38.831  48.058  46.974  0.00  0.00     0.159 A 
HETATM    5  C   UNK N   1      40.421  46.758  45.705  0.00  0.00     0.200 A 
HETATM    6  C   UNK N   1      40.375  44.011  48.937  0.00  0.00     0.079 A 
HETATM    7  C   UNK N   1      41.279  44.664  46.757  0.00  0.00     0.091 A 
HETATM    8  C   UNK N   1      40.443  45.815  46.765  0.00  0.00     0.083 A 
HETATM    9  C   UNK N   1      39.601  47.900  45.814  0.00  0.00     0.050 A 
HETATM   10  C   UNK N   1      41.240  43.757  47.852  0.00  0.00     0.006 A 
HETATM   11  C   UNK N   1      39.567  45.150  48.940  0.00  0.00     0.075 A 
HETATM   12  C   UNK N   1      42.121  42.528  47.859  0.00  0.00     0.054 C 
ENDROOT
BRANCH   9  13
HETATM   13  C   UNK N   1      39.548  48.952  44.758  0.00  0.00     0.014 A 
HETATM   14  C   UNK N   1      38.595  48.913  43.712  0.00  0.00     0.082 A 
HETATM   15  C   UNK N   1      38.587  49.948  42.749  0.00  0.00     0.074 A 
HETATM   16  C   UNK N   1      39.509  50.995  42.818  0.00  0.00     0.068 A 
HETATM   17  C   UNK N   1      40.443  51.030  43.859  0.00  0.00     0.037 A 
HETATM   18  C   UNK N   1      40.454  50.026  44.826  0.00  0.00     0.018 A 
BRANCH  14  19
HETATM   19  O   UNK N   1      37.675  47.909  43.684  0.00  0.00    -0.355 OA
HETATM   20  C   UNK N   1      36.547  47.892  42.885  0.00  0.00     0.210 C 
ENDBRANCH  14  19
BRANCH  16  21
HETATM   21  O   UNK N   1      39.484  51.967  41.884  0.00  0.00    -0.361 OA
HETATM   22  H   UNK N   1      40.202  52.610  41.797  0.00  0.00     0.217 HD
ENDBRANCH  16  21
ENDBRANCH   9  13
BRANCH   7  23
HETATM   23  O   UNK N   1      42.109  44.447  45.711  0.00  0.00    -0.359 OA
HETATM   24  H   UNK N   1      43.051  44.664  45.721  0.00  0.00     0.218 HD
ENDBRANCH   7  23
BRANCH   6  25
HETATM   25  O   UNK N   1      40.316  43.163  49.988  0.00  0.00    -0.355 OA
HETATM   26  C   UNK N   1      40.390  43.616  51.289  0.00  0.00     0.210 C 
ENDBRANCH   6  25
TORSDOF 5
ENDMDL
MODEL 2
REMARK VINA RESULT:      -6.1     14.594     18.425
REMARK  5 active torsions:
REMARK  status: ('A' for Active; 'I' for Inactive)
REMARK    1  A    between atoms: O_3  and  C_10 
REMARK    2  A    between atoms: O_4  and  C_11 
REMARK    3  A    between atoms: O_5  and  C_12 
REMARK    4  A    between atoms: O_6  and  C_13 
REMARK    5  A    between atoms: C_15  and  C_16 
ROOT
HETATM    1  O   UNK N   1      51.106  31.801  46.962  0.00  0.00    -0.321 OA
HETATM    2  O   UNK N   1      47.458  32.096  45.412  0.00  0.00    -0.286 OA
HETATM    3  C   UNK N   1      50.917  31.377  45.716  0.00  0.00     0.094 A 
HETATM    4  C   UNK N   1      50.135  32.328  47.696  0.00  0.00     0.159 A 
HETATM    5  C   UNK N   1      48.577  31.989  45.883  0.00  0.00     0.200 A 
HETATM    6  C   UNK N   1      51.854  30.430  43.689  0.00  0.00     0.079 A 
HETATM    7  C   UNK N   1      49.487  31.049  43.758  0.00  0.00     0.091 A 
HETATM    8  C   UNK N   1      49.645  31.467  45.109  0.00  0.00     0.083 A 
HETATM    9  C   UNK N   1      48.829  32.428  47.199  0.00  0.00     0.050 A 
HETATM   10  C   UNK N   1      50.602  30.526  43.047  0.00  0.00     0.006 A 
HETATM   11  C   UNK N   1      52.001  30.854  45.011  0.00  0.00     0.075 A 
HETATM   12  C   UNK N   1      50.452  30.076  41.612  0.00  0.00     0.054 C 
ENDROOT
BRANCH   9  13
HETATM   13  C   UNK N   1      47.767  33.020  48.064  0.00  0.00     0.014 A 
HETATM   14  C   UNK N   1      46.808  32.216  48.726  0.00  0.00     0.082 A 
HETATM   15  C   UNK N   1      45.835  32.835  49.542  0.00  0.00     0.074 A 
HETATM   16  C   UNK N   1      45.809  34.224  49.694  0.00  0.00     0.068 A 
HETATM   17  C   UNK N   1      46.763  35.012  49.042  0.00  0.00     0.037 A 
HETATM   18  C   UNK N   1      47.740  34.415  48.245  0.00  0.00     0.018 A 
BRANCH  14  19
HETATM   19  O   UNK N   1      46.874  30.861  48.603  0.00  0.00    -0.355 OA
HETATM   20  C   UNK N   1      45.930  30.077  47.966  0.00  0.00     0.210 C 
ENDBRANCH  14  19
BRANCH  16  21
HETATM   21  O   UNK N   1      44.867  34.791  50.474  0.00  0.00    -0.361 OA
HETATM   22  H   UNK N   1      43.955  34.467  50.491  0.00  0.00     0.217 HD
ENDBRANCH  16  21
ENDBRANCH   9  13
BRANCH   7  23
HETATM   23  O   UNK N   1      48.278  31.162  43.160  0.00  0.00    -0.359 OA
HETATM   24  H   UNK N   1      48.026  31.906  42.597  0.00  0.00     0.218 HD
ENDBRANCH   7  23
BRANCH   6  25
HETATM   25  O   UNK N   1      52.930  29.933  43.037  0.00  0.00    -0.355 OA
HETATM   26  C   UNK N   1      53.975  30.742  42.643  0.00  0.00     0.210 C 
ENDBRANCH   6  25
TORSDOF 5
ENDMDL
MODEL 3
REMARK VINA RESULT:      -6.1      2.187      7.776
REMARK  5 active torsions:
REMARK  status: ('A' for Active; 'I' for Inactive)
REMARK    1  A    between atoms: O_3  and  C_10 
REMARK    2  A    between atoms: O_4  and  C_11 
REMARK    3  A    between atoms: O_5  and  C_12 
REMARK    4  A    between atoms: O_6  and  C_13 
REMARK    5  A    between atoms: C_15  and  C_16 
ROOT
HETATM    1  O   UNK N   1      39.106  46.054  47.914  0.00  0.00    -0.321 OA
HETATM    2  O   UNK N   1      42.788  46.561  49.324  0.00  0.00    -0.286 OA
HETATM    3  C   UNK N   1      39.921  46.876  47.260  0.00  0.00     0.094 A 
HETATM    4  C   UNK N   1      39.477  45.390  49.001  0.00  0.00     0.159 A 
HETATM    5  C   UNK N   1      41.657  46.422  48.892  0.00  0.00     0.200 A 
HETATM    6  C   UNK N   1      40.286  48.361  45.378  0.00  0.00     0.079 A 
HETATM    7  C   UNK N   1      42.105  47.935  46.959  0.00  0.00     0.091 A 
HETATM    8  C   UNK N   1      41.244  47.086  47.708  0.00  0.00     0.083 A 
HETATM    9  C   UNK N   1      40.756  45.557  49.547  0.00  0.00     0.050 A 
HETATM   10  C   UNK N   1      41.619  48.577  45.787  0.00  0.00     0.006 A 
HETATM   11  C   UNK N   1      39.452  47.518  46.114  0.00  0.00     0.075 A 
HETATM   12  C   UNK N   1      42.520  49.483  44.979  0.00  0.00     0.054 C 
ENDROOT
BRANCH   9  13
HETATM   13  C   UNK N   1      41.125  44.796  50.776  0.00  0.00     0.014 A 
HETATM   14  C   UNK N   1      41.200  43.382  50.784  0.00  0.00     0.082 A 
HETATM   15  C   UNK N   1      41.569  42.719  51.977  0.00  0.00     0.074 A 
HETATM   16  C   UNK N   1      41.851  43.443  53.138  0.00  0.00     0.068 A 
HETATM   17  C   UNK N   1      41.781  44.840  53.121  0.00  0.00     0.037 A 
HETATM   18  C   UNK N   1      41.434  45.510  51.948  0.00  0.00     0.018 A 
BRANCH  14  19
HETATM   19  O   UNK N   1      40.966  42.694  49.632  0.00  0.00    -0.355 OA
HETATM   20  C   UNK N   1      41.814  42.664  48.542  0.00  0.00     0.210 C 
ENDBRANCH  14  19
BRANCH  16  21
HETATM   21  O   UNK N   1      42.196  42.787  54.264  0.00  0.00    -0.361 OA
HETATM   22  H   UNK N   1      41.566  42.231  54.745  0.00  0.00     0.217 HD
ENDBRANCH  16  21
ENDBRANCH   9  13
BRANCH   7  23
HETATM   23  O   UNK N   1      43.384  48.117  47.365  0.00  0.00    -0.359 OA
HETATM   24  H   UNK N   1      44.137  48.156  46.761  0.00  0.00     0.218 HD
ENDBRANCH   7  23
BRANCH   6  25
HETATM   25  O   UNK N   1      39.797  48.962  44.269  0.00  0.00    -0.355 OA
HETATM   26  C   UNK N   1      38.726  49.829  44.329  0.00  0.00     0.210 C 
ENDBRANCH   6  25
TORSDOF 5
ENDMDL
MODEL 4
REMARK VINA RESULT:      -5.9     14.924     18.740
REMARK  5 active torsions:
REMARK  status: ('A' for Active; 'I' for Inactive)
REMARK    1  A    between atoms: O_3  and  C_10 
REMARK    2  A    between atoms: O_4  and  C_11 
REMARK    3  A    between atoms: O_5  and  C_12 
REMARK    4  A    between atoms: O_6  and  C_13 
REMARK    5  A    between atoms: C_15  and  C_16 
ROOT
HETATM    1  O   UNK N   1      50.979  32.203  47.083  0.00  0.00    -0.321 OA
HETATM    2  O   UNK N   1      47.839  31.072  44.924  0.00  0.00    -0.286 OA
HETATM    3  C   UNK N   1      51.156  31.992  45.783  0.00  0.00     0.094 A 
HETATM    4  C   UNK N   1      49.802  32.067  47.680  0.00  0.00     0.159 A 
HETATM    5  C   UNK N   1      48.811  31.406  45.580  0.00  0.00     0.200 A 
HETATM    6  C   UNK N   1      52.646  32.001  43.869  0.00  0.00     0.079 A 
HETATM    7  C   UNK N   1      50.285  31.427  43.567  0.00  0.00     0.091 A 
HETATM    8  C   UNK N   1      50.074  31.599  44.963  0.00  0.00     0.083 A 
HETATM    9  C   UNK N   1      48.674  31.646  46.963  0.00  0.00     0.050 A 
HETATM   10  C   UNK N   1      51.582  31.629  43.020  0.00  0.00     0.006 A 
HETATM   11  C   UNK N   1      52.425  32.177  45.236  0.00  0.00     0.075 A 
HETATM   12  C   UNK N   1      51.825  31.450  41.539  0.00  0.00     0.054 C 
ENDROOT
BRANCH   9  13
HETATM   13  C   UNK N   1      47.373  31.499  47.678  0.00  0.00     0.014 A 
HETATM   14  C   UNK N   1      46.463  32.577  47.802  0.00  0.00     0.082 A 
HETATM   15  C   UNK N   1      45.240  32.371  48.480  0.00  0.00     0.074 A 
HETATM   16  C   UNK N   1      44.929  31.124  49.028  0.00  0.00     0.068 A 
HETATM   17  C   UNK N   1      45.830  30.062  48.896  0.00  0.00     0.037 A 
HETATM   18  C   UNK N   1      47.034  30.245  48.217  0.00  0.00     0.018 A 
BRANCH  14  19
HETATM   19  O   UNK N   1      46.763  33.773  47.224  0.00  0.00    -0.355 OA
HETATM   20  C   UNK N   1      47.209  34.891  47.903  0.00  0.00     0.210 C 
ENDBRANCH  14  19
BRANCH  16  21
HETATM   21  O   UNK N   1      43.758  30.955  49.674  0.00  0.00    -0.361 OA
HETATM   22  H   UNK N   1      43.711  30.534  50.544  0.00  0.00     0.217 HD
ENDBRANCH  16  21
ENDBRANCH   9  13
BRANCH   7  23
HETATM   23  O   UNK N   1      49.247  31.082  42.771  0.00  0.00    -0.359 OA
HETATM   24  H   UNK N   1      48.368  31.480  42.833  0.00  0.00     0.218 HD
ENDBRANCH   7  23
BRANCH   6  25
HETATM   25  O   UNK N   1      53.890  32.195  43.375  0.00  0.00    -0.355 OA
HETATM   26  C   UNK N   1      54.937  31.361  43.707  0.00  0.00     0.210 C 
ENDBRANCH   6  25
TORSDOF 5
ENDMDL
MODEL 5
REMARK VINA RESULT:      -5.9     14.938     18.643
REMARK  5 active torsions:
REMARK  status: ('A' for Active; 'I' for Inactive)
REMARK    1  A    between atoms: O_3  and  C_10 
REMARK    2  A    between atoms: O_4  and  C_11 
REMARK    3  A    between atoms: O_5  and  C_12 
REMARK    4  A    between atoms: O_6  and  C_13 
REMARK    5  A    between atoms: C_15  and  C_16 
ROOT
HETATM    1  O   UNK N   1      48.254  31.384  44.460  0.00  0.00    -0.321 OA
HETATM    2  O   UNK N   1      50.373  32.712  47.550  0.00  0.00    -0.286 OA
HETATM    3  C   UNK N   1      49.579  31.362  44.367  0.00  0.00     0.094 A 
HETATM    4  C   UNK N   1      47.616  31.814  45.541  0.00  0.00     0.159 A 
HETATM    5  C   UNK N   1      49.731  32.315  46.592  0.00  0.00     0.200 A 
HETATM    6  C   UNK N   1      51.553  30.801  43.074  0.00  0.00     0.079 A 
HETATM    7  C   UNK N   1      51.800  31.730  45.325  0.00  0.00     0.091 A 
HETATM    8  C   UNK N   1      50.384  31.811  45.438  0.00  0.00     0.083 A 
HETATM    9  C   UNK N   1      48.322  32.314  46.643  0.00  0.00     0.050 A 
HETATM   10  C   UNK N   1      52.385  31.222  44.133  0.00  0.00     0.006 A 
HETATM   11  C   UNK N   1      50.165  30.874  43.199  0.00  0.00     0.075 A 
HETATM   12  C   UNK N   1      53.888  31.130  43.996  0.00  0.00     0.054 C 
ENDROOT
BRANCH   9  13
HETATM   13  C   UNK N   1      47.562  32.795  47.834  0.00  0.00     0.014 A 
HETATM   14  C   UNK N   1      47.226  31.930  48.904  0.00  0.00     0.082 A 
HETATM   15  C   UNK N   1      46.517  32.449  50.011  0.00  0.00     0.074 A 
HETATM   16  C   UNK N   1      46.143  33.795  50.053  0.00  0.00     0.068 A 
HETATM   17  C   UNK N   1      46.485  34.644  48.995  0.00  0.00     0.037 A 
HETATM   18  C   UNK N   1      47.198  34.151  47.903  0.00  0.00     0.018 A 
BRANCH  14  19
HETATM   19  O   UNK N   1      47.636  30.632  48.867  0.00  0.00    -0.355 OA
HETATM   20  C   UNK N   1      48.714  30.123  49.566  0.00  0.00     0.210 C 
ENDBRANCH  14  19
BRANCH  16  21
HETATM   21  O   UNK N   1      45.462  34.263  51.118  0.00  0.00    -0.361 OA
HETATM   22  H   UNK N   1      45.888  34.804  51.798  0.00  0.00     0.217 HD
ENDBRANCH  16  21
ENDBRANCH   9  13
BRANCH   7  23
HETATM   23  O   UNK N   1      52.577  32.129  46.359  0.00  0.00    -0.359 OA
HETATM   24  H   UNK N   1      52.522  33.005  46.764  0.00  0.00     0.218 HD
ENDBRANCH   7  23
BRANCH   6  25
HETATM   25  O   UNK N   1      52.084  30.318  41.928  0.00  0.00    -0.355 OA
HETATM   26  C   UNK N   1      51.449  30.477  40.714  0.00  0.00     0.210 C 
ENDBRANCH   6  25
TORSDOF 5
ENDMDL
MODEL 6
REMARK VINA RESULT:      -5.8     15.590     19.110
REMARK  5 active torsions:
REMARK  status: ('A' for Active; 'I' for Inactive)
REMARK    1  A    between atoms: O_3  and  C_10 
REMARK    2  A    between atoms: O_4  and  C_11 
REMARK    3  A    between atoms: O_5  and  C_12 
REMARK    4  A    between atoms: O_6  and  C_13 
REMARK    5  A    between atoms: C_15  and  C_16 
ROOT
HETATM    1  O   UNK N   1      48.735  31.427  43.906  0.00  0.00    -0.321 OA
HETATM    2  O   UNK N   1      49.601  30.819  47.738  0.00  0.00    -0.286 OA
HETATM    3  C   UNK N   1      50.008  31.239  44.239  0.00  0.00     0.094 A 
HETATM    4  C   UNK N   1      47.749  31.403  44.793  0.00  0.00     0.159 A 
HETATM    5  C   UNK N   1      49.347  31.017  46.562  0.00  0.00     0.200 A 
HETATM    6  C   UNK N   1      52.321  31.033  43.539  0.00  0.00     0.079 A 
HETATM    7  C   UNK N   1      51.739  30.763  45.901  0.00  0.00     0.091 A 
HETATM    8  C   UNK N   1      50.374  31.007  45.584  0.00  0.00     0.083 A 
HETATM    9  C   UNK N   1      48.010  31.218  46.157  0.00  0.00     0.050 A 
HETATM   10  C   UNK N   1      52.717  30.778  44.869  0.00  0.00     0.006 A 
HETATM   11  C   UNK N   1      50.977  31.261  43.237  0.00  0.00     0.075 A 
HETATM   12  C   UNK N   1      54.172  30.521  45.188  0.00  0.00     0.054 C 
ENDROOT
BRANCH   9  13
HETATM   13  C   UNK N   1      46.871  31.208  47.120  0.00  0.00     0.014 A 
HETATM   14  C   UNK N   1      46.412  32.392  47.747  0.00  0.00     0.082 A 
HETATM   15  C   UNK N   1      45.319  32.320  48.639  0.00  0.00     0.074 A 
HETATM   16  C   UNK N   1      44.698  31.098  48.910  0.00  0.00     0.068 A 
HETATM   17  C   UNK N   1      45.153  29.933  48.283  0.00  0.00     0.037 A 
HETATM   18  C   UNK N   1      46.220  29.990  47.387  0.00  0.00     0.018 A 
BRANCH  14  19
HETATM   19  O   UNK N   1      47.000  33.582  47.438  0.00  0.00    -0.355 OA
HETATM   20  C   UNK N   1      47.772  34.331  48.305  0.00  0.00     0.210 C 
ENDBRANCH  14  19
BRANCH  16  21
HETATM   21  O   UNK N   1      43.661  31.054  49.770  0.00  0.00    -0.361 OA
HETATM   22  H   UNK N   1      42.874  30.520  49.594  0.00  0.00     0.217 HD
ENDBRANCH  16  21
ENDBRANCH   9  13
BRANCH   7  23
HETATM   23  O   UNK N   1      52.093  30.509  47.183  0.00  0.00    -0.359 OA
HETATM   24  H   UNK N   1      52.380  31.191  47.805  0.00  0.00     0.218 HD
ENDBRANCH   7  23
BRANCH   6  25
HETATM   25  O   UNK N   1      53.231  31.057  42.539  0.00  0.00    -0.355 OA
HETATM   26  C   UNK N   1      53.126  30.224  41.445  0.00  0.00     0.210 C 
ENDBRANCH   6  25
TORSDOF 5
ENDMDL
MODEL 7
REMARK VINA RESULT:      -5.7      1.521      7.331
REMARK  5 active torsions:
REMARK  status: ('A' for Active; 'I' for Inactive)
REMARK    1  A    between atoms: O_3  and  C_10 
REMARK    2  A    between atoms: O_4  and  C_11 
REMARK    3  A    between atoms: O_5  and  C_12 
REMARK    4  A    between atoms: O_6  and  C_13 
REMARK    5  A    between atoms: C_15  and  C_16 
ROOT
HETATM    1  O   UNK N   1      38.069  46.352  45.914  0.00  0.00    -0.321 OA
HETATM    2  O   UNK N   1      41.609  47.332  47.433  0.00  0.00    -0.286 OA
HETATM    3  C   UNK N   1      38.680  47.430  45.434  0.00  0.00     0.094 A 
HETATM    4  C   UNK N   1      38.597  45.588  46.861  0.00  0.00     0.159 A 
HETATM    5  C   UNK N   1      40.518  47.047  46.970  0.00  0.00     0.200 A 
HETATM    6  C   UNK N   1      38.682  49.281  43.867  0.00  0.00     0.079 A 
HETATM    7  C   UNK N   1      40.594  48.952  45.360  0.00  0.00     0.091 A 
HETATM    8  C   UNK N   1      39.945  47.821  45.928  0.00  0.00     0.083 A 
HETATM    9  C   UNK N   1      39.830  45.910  47.443  0.00  0.00     0.050 A 
HETATM   10  C   UNK N   1      39.954  49.686  44.324  0.00  0.00     0.006 A 
HETATM   11  C   UNK N   1      38.059  48.163  44.424  0.00  0.00     0.075 A 
HETATM   12  C   UNK N   1      40.629  50.891  43.710  0.00  0.00     0.054 C 
ENDROOT
BRANCH   9  13
HETATM   13  C   UNK N   1      40.382  45.026  48.511  0.00  0.00     0.014 A 
HETATM   14  C   UNK N   1      41.352  44.034  48.232  0.00  0.00     0.082 A 
HETATM   15  C   UNK N   1      41.846  43.237  49.290  0.00  0.00     0.074 A 
HETATM   16  C   UNK N   1      41.382  43.416  50.595  0.00  0.00     0.068 A 
HETATM   17  C   UNK N   1      40.429  44.403  50.864  0.00  0.00     0.037 A 
HETATM   18  C   UNK N   1      39.942  45.208  49.834  0.00  0.00     0.018 A 
BRANCH  14  19
HETATM   19  O   UNK N   1      41.826  43.902  46.962  0.00  0.00    -0.355 OA
HETATM   20  C   UNK N   1      42.272  42.719  46.402  0.00  0.00     0.210 C 
ENDBRANCH  14  19
BRANCH  16  21
HETATM   21  O   UNK N   1      41.865  42.640  51.586  0.00  0.00    -0.361 OA
HETATM   22  H   UNK N   1      42.653  42.091  51.467  0.00  0.00     0.217 HD
ENDBRANCH  16  21
ENDBRANCH   9  13
BRANCH   7  23
HETATM   23  O   UNK N   1      41.820  49.314  45.806  0.00  0.00    -0.359 OA
HETATM   24  H   UNK N   1      42.119  49.182  46.716  0.00  0.00     0.218 HD
ENDBRANCH   7  23
BRANCH   6  25
HETATM   25  O   UNK N   1      38.050  49.964  42.886  0.00  0.00    -0.355 OA
HETATM   26  C   UNK N   1      37.155  49.348  42.037  0.00  0.00     0.210 C 
ENDBRANCH   6  25
TORSDOF 5
ENDMDL
MODEL 8
REMARK VINA RESULT:      -5.7     14.607     17.729
REMARK  5 active torsions:
REMARK  status: ('A' for Active; 'I' for Inactive)
REMARK    1  A    between atoms: O_3  and  C_10 
REMARK    2  A    between atoms: O_4  and  C_11 
REMARK    3  A    between atoms: O_5  and  C_12 
REMARK    4  A    between atoms: O_6  and  C_13 
REMARK    5  A    between atoms: C_15  and  C_16 
ROOT
HETATM    1  O   UNK N   1      48.347  34.622  53.893  0.00  0.00    -0.321 OA
HETATM    2  O   UNK N   1      49.144  32.714  50.498  0.00  0.00    -0.286 OA
HETATM    3  C   UNK N   1      49.602  34.251  53.661  0.00  0.00     0.094 A 
HETATM    4  C   UNK N   1      47.361  34.395  53.034  0.00  0.00     0.159 A 
HETATM    5  C   UNK N   1      48.907  33.287  51.547  0.00  0.00     0.200 A 
HETATM    6  C   UNK N   1      51.914  34.208  54.392  0.00  0.00     0.079 A 
HETATM    7  C   UNK N   1      51.307  33.238  52.228  0.00  0.00     0.091 A 
HETATM    8  C   UNK N   1      49.947  33.580  52.467  0.00  0.00     0.083 A 
HETATM    9  C   UNK N   1      47.591  33.704  51.837  0.00  0.00     0.050 A 
HETATM   10  C   UNK N   1      52.295  33.555  53.201  0.00  0.00     0.006 A 
HETATM   11  C   UNK N   1      50.578  34.548  54.612  0.00  0.00     0.075 A 
HETATM   12  C   UNK N   1      53.745  33.199  52.964  0.00  0.00     0.054 C 
ENDROOT
BRANCH   9  13
HETATM   13  C   UNK N   1      46.451  33.465  50.906  0.00  0.00     0.014 A 
HETATM   14  C   UNK N   1      45.922  32.168  50.692  0.00  0.00     0.082 A 
HETATM   15  C   UNK N   1      44.831  32.008  49.807  0.00  0.00     0.074 A 
HETATM   16  C   UNK N   1      44.281  33.108  49.144  0.00  0.00     0.068 A 
HETATM   17  C   UNK N   1      44.805  34.386  49.367  0.00  0.00     0.037 A 
HETATM   18  C   UNK N   1      45.871  34.564  50.248  0.00  0.00     0.018 A 
BRANCH  14  19
HETATM   19  O   UNK N   1      46.440  31.113  51.379  0.00  0.00    -0.355 OA
HETATM   20  C   UNK N   1      46.876  29.933  50.806  0.00  0.00     0.210 C 
ENDBRANCH  14  19
BRANCH  16  21
HETATM   21  O   UNK N   1      43.245  32.928  48.301  0.00  0.00    -0.361 OA
HETATM   22  H   UNK N   1      42.609  33.633  48.115  0.00  0.00     0.217 HD
ENDBRANCH  16  21
ENDBRANCH   9  13
BRANCH   7  23
HETATM   23  O   UNK N   1      51.649  32.623  51.072  0.00  0.00    -0.359 OA
HETATM   24  H   UNK N   1      52.561  32.526  50.767  0.00  0.00     0.218 HD
ENDBRANCH   7  23
BRANCH   6  25
HETATM   25  O   UNK N   1      52.833  34.517  55.335  0.00  0.00    -0.355 OA
HETATM   26  C   UNK N   1      52.836  33.904  56.571  0.00  0.00     0.210 C 
ENDBRANCH   6  25
TORSDOF 5
ENDMDL
MODEL 9
REMARK VINA RESULT:      -5.7     14.380     18.193
REMARK  5 active torsions:
REMARK  status: ('A' for Active; 'I' for Inactive)
REMARK    1  A    between atoms: O_3  and  C_10 
REMARK    2  A    between atoms: O_4  and  C_11 
REMARK    3  A    between atoms: O_5  and  C_12 
REMARK    4  A    between atoms: O_6  and  C_13 
REMARK    5  A    between atoms: C_15  and  C_16 
ROOT
HETATM    1  O   UNK N   1      48.195  31.110  47.278  0.00  0.00    -0.321 OA
HETATM    2  O   UNK N   1      50.719  33.799  48.761  0.00  0.00    -0.286 OA
HETATM    3  C   UNK N   1      49.241  31.463  46.539  0.00  0.00     0.094 A 
HETATM    4  C   UNK N   1      47.970  31.606  48.488  0.00  0.00     0.159 A 
HETATM    5  C   UNK N   1      49.943  32.984  48.292  0.00  0.00     0.200 A 
HETATM    6  C   UNK N   1      50.514  31.191  44.492  0.00  0.00     0.079 A 
HETATM    7  C   UNK N   1      51.313  32.726  46.223  0.00  0.00     0.091 A 
HETATM    8  C   UNK N   1      50.178  32.406  47.018  0.00  0.00     0.083 A 
HETATM    9  C   UNK N   1      48.819  32.574  49.040  0.00  0.00     0.050 A 
HETATM   10  C   UNK N   1      51.477  32.113  44.950  0.00  0.00     0.006 A 
HETATM   11  C   UNK N   1      49.409  30.875  45.285  0.00  0.00     0.075 A 
HETATM   12  C   UNK N   1      52.677  32.442  44.091  0.00  0.00     0.054 C 
ENDROOT
BRANCH   9  13
HETATM   13  C   UNK N   1      48.523  33.110  50.400  0.00  0.00     0.014 A 
HETATM   14  C   UNK N   1      47.566  34.133  50.608  0.00  0.00     0.082 A 
HETATM   15  C   UNK N   1      47.320  34.589  51.923  0.00  0.00     0.074 A 
HETATM   16  C   UNK N   1      48.012  34.046  53.008  0.00  0.00     0.068 A 
HETATM   17  C   UNK N   1      48.951  33.031  52.796  0.00  0.00     0.037 A 
HETATM   18  C   UNK N   1      49.194  32.559  51.506  0.00  0.00     0.018 A 
BRANCH  14  19
HETATM   19  O   UNK N   1      46.868  34.621  49.544  0.00  0.00    -0.355 OA
HETATM   20  C   UNK N   1      47.107  35.836  48.932  0.00  0.00     0.210 C 
ENDBRANCH  14  19
BRANCH  16  21
HETATM   21  O   UNK N   1      47.764  34.502  54.252  0.00  0.00    -0.361 OA
HETATM   22  H   UNK N   1      48.151  34.087  55.035  0.00  0.00     0.217 HD
ENDBRANCH  16  21
ENDBRANCH   9  13
BRANCH   7  23
HETATM   23  O   UNK N   1      52.231  33.605  46.689  0.00  0.00    -0.359 OA
HETATM   24  H   UNK N   1      52.240  33.938  47.596  0.00  0.00     0.218 HD
ENDBRANCH   7  23
BRANCH   6  25
HETATM   25  O   UNK N   1      50.644  30.597  43.283  0.00  0.00    -0.355 OA
HETATM   26  C   UNK N   1      49.910  31.011  42.191  0.00  0.00     0.210 C 
ENDBRANCH   6  25
TORSDOF 5
ENDMDL
