MODEL 1
REMARK VINA RESULT:      -6.9      0.000      0.000
REMARK  8 active torsions:
REMARK  status: ('A' for Active; 'I' for Inactive)
REMARK    1  A    between atoms: O_3  and  C_11 
REMARK    2  A    between atoms: O_4  and  C_12 
REMARK    3  A    between atoms: O_5  and  C_13 
REMARK    4  A    between atoms: O_6  and  C_14 
REMARK    5  A    between atoms: O_7  and  C_23 
REMARK    6  A    between atoms: C_16  and  C_17 
REMARK    7  A    between atoms: C_18  and  C_25 
REMARK    8  A    between atoms: C_23  and  C_26 
ROOT
HETATM    1  C   UNK N   1      40.752  44.112  48.804  0.00  0.00     0.111 A 
HETATM    2  C   UNK N   1      39.919  45.216  49.155  0.00  0.00     0.100 A 
HETATM    3  C   UNK N   1      40.449  46.306  47.049  0.00  0.00    -0.017 A 
HETATM    4  C   UNK N   1      41.404  44.114  47.545  0.00  0.00     0.001 A 
HETATM    5  C   UNK N   1      39.760  46.286  48.262  0.00  0.00     0.052 A 
HETATM    6  C   UNK N   1      41.262  45.229  46.699  0.00  0.00     0.027 A 
ENDROOT
BRANCH   3   7
HETATM    7  C   UNK N   1      40.351  47.463  46.129  0.00  0.00     0.048 A 
HETATM    8  C   UNK N   1      41.383  48.409  46.112  0.00  0.00     0.159 A 
HETATM    9  O   UNK N   1      41.329  49.463  45.310  0.00  0.00    -0.321 OA
HETATM   10  C   UNK N   1      40.330  49.661  44.457  0.00  0.00     0.094 A 
HETATM   11  C   UNK N   1      39.257  48.741  44.377  0.00  0.00     0.082 A 
HETATM   12  C   UNK N   1      40.361  50.784  43.627  0.00  0.00     0.074 A 
HETATM   13  C   UNK N   1      39.263  47.632  45.254  0.00  0.00     0.200 A 
HETATM   14  C   UNK N   1      38.234  48.956  43.419  0.00  0.00     0.085 A 
HETATM   15  O   UNK N   1      38.365  46.809  45.233  0.00  0.00    -0.286 OA
HETATM   16  C   UNK N   1      38.293  50.084  42.583  0.00  0.00     0.074 A 
HETATM   17  C   UNK N   1      39.348  50.999  42.693  0.00  0.00     0.071 A 
BRANCH  14  18
HETATM   18  O   UNK N   1      37.214  48.081  43.288  0.00  0.00    -0.360 OA
HETATM   19  H   UNK N   1      37.364  47.144  43.093  0.00  0.00     0.217 HD
ENDBRANCH  14  18
BRANCH  17  20
HETATM   20  O   UNK N   1      39.402  52.085  41.896  0.00  0.00    -0.361 OA
HETATM   21  H   UNK N   1      38.901  52.137  41.069  0.00  0.00     0.217 HD
ENDBRANCH  17  20
ENDBRANCH   3   7
BRANCH   2  22
HETATM   22  O   UNK N   1      39.275  45.254  50.340  0.00  0.00    -0.358 OA
HETATM   23  H   UNK N   1      38.363  44.943  50.440  0.00  0.00     0.218 HD
ENDBRANCH   2  22
BRANCH   4  24
HETATM   24  C   UNK N   1      42.242  42.945  47.122  0.00  0.00     0.013 C 
HETATM   25  C   UNK N   1      42.844  42.885  45.909  0.00  0.00     0.011 C 
BRANCH  25  26
HETATM   26  C   UNK N   1      43.715  41.734  45.432  0.00  0.00     0.068 C 
HETATM   27  C   UNK N   1      43.232  40.458  46.139  0.00  0.00     0.050 C 
HETATM   28  C   UNK N   1      45.185  41.987  45.823  0.00  0.00     0.050 C 
BRANCH  26  29
HETATM   29  O   UNK N   1      43.607  41.530  44.042  0.00  0.00    -0.387 OA
HETATM   30  H   UNK N   1      42.758  41.050  43.860  0.00  0.00     0.211 HD
ENDBRANCH  26  29
ENDBRANCH  25  26
ENDBRANCH   4  24
BRANCH   1  31
HETATM   31  O   UNK N   1      40.941  43.037  49.626  0.00  0.00    -0.352 OA
HETATM   32  C   UNK N   1      41.525  43.034  50.877  0.00  0.00     0.210 C 
ENDBRANCH   1  31
TORSDOF 8
ENDMDL
MODEL 2
REMARK VINA RESULT:      -6.4     14.089     17.976
REMARK  8 active torsions:
REMARK  status: ('A' for Active; 'I' for Inactive)
REMARK    1  A    between atoms: O_3  and  C_11 
REMARK    2  A    between atoms: O_4  and  C_12 
REMARK    3  A    between atoms: O_5  and  C_13 
REMARK    4  A    between atoms: O_6  and  C_14 
REMARK    5  A    between atoms: O_7  and  C_23 
REMARK    6  A    between atoms: C_16  and  C_17 
REMARK    7  A    between atoms: C_18  and  C_25 
REMARK    8  A    between atoms: C_23  and  C_26 
ROOT
HETATM    1  C   UNK N   1      50.070  33.226  48.289  0.00  0.00     0.111 A 
HETATM    2  C   UNK N   1      51.405  33.528  47.887  0.00  0.00     0.100 A 
HETATM    3  C   UNK N   1      51.021  32.453  45.743  0.00  0.00    -0.017 A 
HETATM    4  C   UNK N   1      49.212  32.559  47.379  0.00  0.00     0.001 A 
HETATM    5  C   UNK N   1      51.854  33.158  46.611  0.00  0.00     0.052 A 
HETATM    6  C   UNK N   1      49.714  32.157  46.128  0.00  0.00     0.027 A 
ENDROOT
BRANCH   3   7
HETATM    7  C   UNK N   1      51.504  31.989  44.421  0.00  0.00     0.048 A 
HETATM    8  C   UNK N   1      51.272  30.663  44.038  0.00  0.00     0.159 A 
HETATM    9  O   UNK N   1      51.696  30.207  42.867  0.00  0.00    -0.321 OA
HETATM   10  C   UNK N   1      52.320  30.979  41.984  0.00  0.00     0.094 A 
HETATM   11  C   UNK N   1      52.570  32.343  42.267  0.00  0.00     0.082 A 
HETATM   12  C   UNK N   1      52.713  30.428  40.761  0.00  0.00     0.074 A 
HETATM   13  C   UNK N   1      52.172  32.846  43.527  0.00  0.00     0.200 A 
HETATM   14  C   UNK N   1      53.191  33.150  41.281  0.00  0.00     0.085 A 
HETATM   15  O   UNK N   1      52.364  34.011  43.828  0.00  0.00    -0.286 OA
HETATM   16  C   UNK N   1      53.563  32.580  40.052  0.00  0.00     0.074 A 
HETATM   17  C   UNK N   1      53.333  31.221  39.797  0.00  0.00     0.071 A 
BRANCH  14  18
HETATM   18  O   UNK N   1      53.412  34.464  41.500  0.00  0.00    -0.360 OA
HETATM   19  H   UNK N   1      54.209  34.781  41.949  0.00  0.00     0.217 HD
ENDBRANCH  14  18
BRANCH  17  20
HETATM   20  O   UNK N   1      53.695  30.672  38.620  0.00  0.00    -0.361 OA
HETATM   21  H   UNK N   1      53.255  29.885  38.268  0.00  0.00     0.217 HD
ENDBRANCH  17  20
ENDBRANCH   3   7
BRANCH   2  22
HETATM   22  O   UNK N   1      52.256  34.167  48.718  0.00  0.00    -0.358 OA
HETATM   23  H   UNK N   1      52.060  35.045  49.078  0.00  0.00     0.218 HD
ENDBRANCH   2  22
BRANCH   4  24
HETATM   24  C   UNK N   1      47.787  32.275  47.749  0.00  0.00     0.013 C 
HETATM   25  C   UNK N   1      46.837  33.242  47.772  0.00  0.00     0.011 C 
BRANCH  25  26
HETATM   26  C   UNK N   1      45.376  33.010  48.125  0.00  0.00     0.068 C 
HETATM   27  C   UNK N   1      45.011  33.977  49.262  0.00  0.00     0.050 C 
HETATM   28  C   UNK N   1      45.177  31.564  48.624  0.00  0.00     0.050 C 
BRANCH  26  29
HETATM   29  O   UNK N   1      44.522  33.274  47.036  0.00  0.00    -0.387 OA
HETATM   30  H   UNK N   1      44.902  34.028  46.514  0.00  0.00     0.211 HD
ENDBRANCH  26  29
ENDBRANCH  25  26
ENDBRANCH   4  24
BRANCH   1  31
HETATM   31  O   UNK N   1      49.572  33.566  49.514  0.00  0.00    -0.352 OA
HETATM   32  C   UNK N   1      49.739  32.884  50.703  0.00  0.00     0.210 C 
ENDBRANCH   1  31
TORSDOF 8
ENDMDL
MODEL 3
REMARK VINA RESULT:      -6.2     13.808     17.837
REMARK  8 active torsions:
REMARK  status: ('A' for Active; 'I' for Inactive)
REMARK    1  A    between atoms: O_3  and  C_11 
REMARK    2  A    between atoms: O_4  and  C_12 
REMARK    3  A    between atoms: O_5  and  C_13 
REMARK    4  A    between atoms: O_6  and  C_14 
REMARK    5  A    between atoms: O_7  and  C_23 
REMARK    6  A    between atoms: C_16  and  C_17 
REMARK    7  A    between atoms: C_18  and  C_25 
REMARK    8  A    between atoms: C_23  and  C_26 
ROOT
HETATM    1  C   UNK N   1      50.664  32.173  50.104  0.00  0.00     0.111 A 
HETATM    2  C   UNK N   1      51.685  31.377  49.503  0.00  0.00     0.100 A 
HETATM    3  C   UNK N   1      50.713  31.758  47.309  0.00  0.00    -0.017 A 
HETATM    4  C   UNK N   1      49.690  32.782  49.275  0.00  0.00     0.001 A 
HETATM    5  C   UNK N   1      51.709  31.200  48.112  0.00  0.00     0.052 A 
HETATM    6  C   UNK N   1      49.715  32.539  47.889  0.00  0.00     0.027 A 
ENDROOT
BRANCH   3   7
HETATM    7  C   UNK N   1      50.682  31.518  45.848  0.00  0.00     0.048 A 
HETATM    8  C   UNK N   1      49.877  30.489  45.343  0.00  0.00     0.159 A 
HETATM    9  O   UNK N   1      49.827  30.237  44.042  0.00  0.00    -0.321 OA
HETATM   10  C   UNK N   1      50.495  30.960  43.149  0.00  0.00     0.094 A 
HETATM   11  C   UNK N   1      51.309  32.043  43.559  0.00  0.00     0.082 A 
HETATM   12  C   UNK N   1      50.369  30.645  41.794  0.00  0.00     0.074 A 
HETATM   13  C   UNK N   1      51.419  32.305  44.945  0.00  0.00     0.200 A 
HETATM   14  C   UNK N   1      51.965  32.825  42.576  0.00  0.00     0.085 A 
HETATM   15  O   UNK N   1      52.108  33.222  45.358  0.00  0.00    -0.286 OA
HETATM   16  C   UNK N   1      51.813  32.500  41.217  0.00  0.00     0.074 A 
HETATM   17  C   UNK N   1      51.024  31.409  40.828  0.00  0.00     0.071 A 
BRANCH  14  18
HETATM   18  O   UNK N   1      52.720  33.887  42.927  0.00  0.00    -0.360 OA
HETATM   19  H   UNK N   1      52.677  34.276  43.813  0.00  0.00     0.217 HD
ENDBRANCH  14  18
BRANCH  17  20
HETATM   20  O   UNK N   1      50.882  31.094  39.525  0.00  0.00    -0.361 OA
HETATM   21  H   UNK N   1      51.000  31.751  38.825  0.00  0.00     0.217 HD
ENDBRANCH  17  20
ENDBRANCH   3   7
BRANCH   2  22
HETATM   22  O   UNK N   1      52.637  30.782  50.252  0.00  0.00    -0.358 OA
HETATM   23  H   UNK N   1      53.576  31.001  50.160  0.00  0.00     0.218 HD
ENDBRANCH   2  22
BRANCH   4  24
HETATM   24  C   UNK N   1      48.636  33.670  49.867  0.00  0.00     0.013 C 
HETATM   25  C   UNK N   1      47.312  33.426  49.714  0.00  0.00     0.011 C 
BRANCH  25  26
HETATM   26  C   UNK N   1      46.201  34.281  50.302  0.00  0.00     0.068 C 
HETATM   27  C   UNK N   1      44.891  33.894  49.601  0.00  0.00     0.050 C 
HETATM   28  C   UNK N   1      46.484  35.773  50.031  0.00  0.00     0.050 C 
BRANCH  26  29
HETATM   29  O   UNK N   1      46.039  34.059  51.685  0.00  0.00    -0.387 OA
HETATM   30  H   UNK N   1      46.680  33.355  51.967  0.00  0.00     0.211 HD
ENDBRANCH  26  29
ENDBRANCH  25  26
ENDBRANCH   4  24
BRANCH   1  31
HETATM   31  O   UNK N   1      50.592  32.389  51.450  0.00  0.00    -0.352 OA
HETATM   32  C   UNK N   1      50.051  31.549  52.404  0.00  0.00     0.210 C 
ENDBRANCH   1  31
TORSDOF 8
ENDMDL
MODEL 4
REMARK VINA RESULT:      -5.8      3.147      8.594
REMARK  8 active torsions:
REMARK  status: ('A' for Active; 'I' for Inactive)
REMARK    1  A    between atoms: O_3  and  C_11 
REMARK    2  A    between atoms: O_4  and  C_12 
REMARK    3  A    between atoms: O_5  and  C_13 
REMARK    4  A    between atoms: O_6  and  C_14 
REMARK    5  A    between atoms: O_7  and  C_23 
REMARK    6  A    between atoms: C_16  and  C_17 
REMARK    7  A    between atoms: C_18  and  C_25 
REMARK    8  A    between atoms: C_23  and  C_26 
ROOT
HETATM    1  C   UNK N   1      41.007  49.005  45.248  0.00  0.00     0.111 A 
HETATM    2  C   UNK N   1      42.163  48.570  45.964  0.00  0.00     0.100 A 
HETATM    3  C   UNK N   1      40.780  47.137  47.355  0.00  0.00    -0.017 A 
HETATM    4  C   UNK N   1      39.743  48.463  45.587  0.00  0.00     0.001 A 
HETATM    5  C   UNK N   1      42.035  47.624  46.992  0.00  0.00     0.052 A 
HETATM    6  C   UNK N   1      39.648  47.556  46.658  0.00  0.00     0.027 A 
ENDROOT
BRANCH   3   7
HETATM    7  C   UNK N   1      40.620  46.195  48.488  0.00  0.00     0.048 A 
HETATM    8  C   UNK N   1      39.671  45.170  48.393  0.00  0.00     0.159 A 
HETATM    9  O   UNK N   1      39.492  44.312  49.387  0.00  0.00    -0.321 OA
HETATM   10  C   UNK N   1      40.218  44.346  50.499  0.00  0.00     0.094 A 
HETATM   11  C   UNK N   1      41.226  45.325  50.674  0.00  0.00     0.082 A 
HETATM   12  C   UNK N   1      39.984  43.389  51.490  0.00  0.00     0.074 A 
HETATM   13  C   UNK N   1      41.407  46.283  49.650  0.00  0.00     0.200 A 
HETATM   14  C   UNK N   1      42.017  45.299  51.849  0.00  0.00     0.085 A 
HETATM   15  O   UNK N   1      42.257  47.151  49.746  0.00  0.00    -0.286 OA
HETATM   16  C   UNK N   1      41.775  44.318  52.827  0.00  0.00     0.074 A 
HETATM   17  C   UNK N   1      40.756  43.372  52.651  0.00  0.00     0.071 A 
BRANCH  14  18
HETATM   18  O   UNK N   1      43.011  46.193  52.034  0.00  0.00    -0.360 OA
HETATM   19  H   UNK N   1      43.887  45.928  52.351  0.00  0.00     0.217 HD
ENDBRANCH  14  18
BRANCH  17  20
HETATM   20  O   UNK N   1      40.520  42.434  53.590  0.00  0.00    -0.361 OA
HETATM   21  H   UNK N   1      41.036  41.617  53.637  0.00  0.00     0.217 HD
ENDBRANCH  17  20
ENDBRANCH   3   7
BRANCH   2  22
HETATM   22  O   UNK N   1      43.388  49.055  45.672  0.00  0.00    -0.358 OA
HETATM   23  H   UNK N   1      43.760  49.823  46.131  0.00  0.00     0.218 HD
ENDBRANCH   2  22
BRANCH   4  24
HETATM   24  C   UNK N   1      38.517  48.857  44.818  0.00  0.00     0.013 C 
HETATM   25  C   UNK N   1      38.404  48.659  43.482  0.00  0.00     0.011 C 
BRANCH  25  26
HETATM   26  C   UNK N   1      37.182  49.025  42.655  0.00  0.00     0.068 C 
HETATM   27  C   UNK N   1      36.469  50.188  43.362  0.00  0.00     0.050 C 
HETATM   28  C   UNK N   1      36.215  47.825  42.582  0.00  0.00     0.050 C 
BRANCH  26  29
HETATM   29  O   UNK N   1      37.531  49.451  41.357  0.00  0.00    -0.387 OA
HETATM   30  H   UNK N   1      37.798  48.656  40.827  0.00  0.00     0.211 HD
ENDBRANCH  26  29
ENDBRANCH  25  26
ENDBRANCH   4  24
BRANCH   1  31
HETATM   31  O   UNK N   1      41.067  49.917  44.233  0.00  0.00    -0.352 OA
HETATM   32  C   UNK N   1      40.484  51.168  44.198  0.00  0.00     0.210 C 
ENDBRANCH   1  31
TORSDOF 8
ENDMDL
MODEL 5
REMARK VINA RESULT:      -5.5     15.996     18.962
REMARK  8 active torsions:
REMARK  status: ('A' for Active; 'I' for Inactive)
REMARK    1  A    between atoms: O_3  and  C_11 
REMARK    2  A    between atoms: O_4  and  C_12 
REMARK    3  A    between atoms: O_5  and  C_13 
REMARK    4  A    between atoms: O_6  and  C_14 
REMARK    5  A    between atoms: O_7  and  C_23 
REMARK    6  A    between atoms: C_16  and  C_17 
REMARK    7  A    between atoms: C_18  and  C_25 
REMARK    8  A    between atoms: C_23  and  C_26 
ROOT
HETATM    1  C   UNK N   1      37.776  47.185  63.996  0.00  0.00     0.111 A 
HETATM    2  C   UNK N   1      38.121  45.832  63.700  0.00  0.00     0.100 A 
HETATM    3  C   UNK N   1      35.844  45.394  62.974  0.00  0.00    -0.017 A 
HETATM    4  C   UNK N   1      36.455  47.630  63.740  0.00  0.00     0.001 A 
HETATM    5  C   UNK N   1      37.156  44.962  63.170  0.00  0.00     0.052 A 
HETATM    6  C   UNK N   1      35.501  46.715  63.258  0.00  0.00     0.027 A 
ENDROOT
BRANCH   3   7
HETATM    7  C   UNK N   1      34.797  44.467  62.486  0.00  0.00     0.048 A 
HETATM    8  C   UNK N   1      33.684  44.209  63.297  0.00  0.00     0.159 A 
HETATM    9  O   UNK N   1      32.729  43.379  62.901  0.00  0.00    -0.321 OA
HETATM   10  C   UNK N   1      32.748  42.783  61.713  0.00  0.00     0.094 A 
HETATM   11  C   UNK N   1      33.814  43.007  60.810  0.00  0.00     0.082 A 
HETATM   12  C   UNK N   1      31.689  41.942  61.361  0.00  0.00     0.074 A 
HETATM   13  C   UNK N   1      34.871  43.851  61.224  0.00  0.00     0.200 A 
HETATM   14  C   UNK N   1      33.776  42.397  59.531  0.00  0.00     0.085 A 
HETATM   15  O   UNK N   1      35.817  44.078  60.490  0.00  0.00    -0.286 OA
HETATM   16  C   UNK N   1      32.693  41.567  59.191  0.00  0.00     0.074 A 
HETATM   17  C   UNK N   1      31.659  41.334  60.107  0.00  0.00     0.071 A 
BRANCH  14  18
HETATM   18  O   UNK N   1      34.756  42.617  58.630  0.00  0.00    -0.360 OA
HETATM   19  H   UNK N   1      35.673  42.772  58.897  0.00  0.00     0.217 HD
ENDBRANCH  14  18
BRANCH  17  20
HETATM   20  O   UNK N   1      30.623  40.533  59.784  0.00  0.00    -0.361 OA
HETATM   21  H   UNK N   1      29.772  40.590  60.242  0.00  0.00     0.217 HD
ENDBRANCH  17  20
ENDBRANCH   3   7
BRANCH   2  22
HETATM   22  O   UNK N   1      39.368  45.366  63.922  0.00  0.00    -0.358 OA
HETATM   23  H   UNK N   1      39.576  44.421  63.893  0.00  0.00     0.218 HD
ENDBRANCH   2  22
BRANCH   4  24
HETATM   24  C   UNK N   1      36.073  49.059  63.988  0.00  0.00     0.013 C 
HETATM   25  C   UNK N   1      34.790  49.489  63.921  0.00  0.00     0.011 C 
BRANCH  25  26
HETATM   26  C   UNK N   1      34.343  50.920  64.175  0.00  0.00     0.068 C 
HETATM   27  C   UNK N   1      32.894  50.874  64.683  0.00  0.00     0.050 C 
HETATM   28  C   UNK N   1      34.381  51.726  62.861  0.00  0.00     0.050 C 
BRANCH  26  29
HETATM   29  O   UNK N   1      35.131  51.552  65.159  0.00  0.00    -0.387 OA
HETATM   30  H   UNK N   1      34.888  51.176  66.044  0.00  0.00     0.211 HD
ENDBRANCH  26  29
ENDBRANCH  25  26
ENDBRANCH   4  24
BRANCH   1  31
HETATM   31  O   UNK N   1      38.671  48.082  64.505  0.00  0.00    -0.352 OA
HETATM   32  C   UNK N   1      38.998  48.274  65.833  0.00  0.00     0.210 C 
ENDBRANCH   1  31
TORSDOF 8
ENDMDL
MODEL 6
REMARK VINA RESULT:      -5.5     14.053     17.946
REMARK  8 active torsions:
REMARK  status: ('A' for Active; 'I' for Inactive)
REMARK    1  A    between atoms: O_3  and  C_11 
REMARK    2  A    between atoms: O_4  and  C_12 
REMARK    3  A    between atoms: O_5  and  C_13 
REMARK    4  A    between atoms: O_6  and  C_14 
REMARK    5  A    between atoms: O_7  and  C_23 
REMARK    6  A    between atoms: C_16  and  C_17 
REMARK    7  A    between atoms: C_18  and  C_25 
REMARK    8  A    between atoms: C_23  and  C_26 
ROOT
HETATM    1  C   UNK N   1      50.179  32.238  49.461  0.00  0.00     0.111 A 
HETATM    2  C   UNK N   1      51.573  32.328  49.169  0.00  0.00     0.100 A 
HETATM    3  C   UNK N   1      51.113  32.043  46.801  0.00  0.00    -0.017 A 
HETATM    4  C   UNK N   1      49.261  32.081  48.392  0.00  0.00     0.001 A 
HETATM    5  C   UNK N   1      52.018  32.253  47.841  0.00  0.00     0.052 A 
HETATM    6  C   UNK N   1      49.749  31.957  47.079  0.00  0.00     0.027 A 
ENDROOT
BRANCH   3   7
HETATM    7  C   UNK N   1      51.574  31.886  45.402  0.00  0.00     0.048 A 
HETATM    8  C   UNK N   1      52.947  31.806  45.142  0.00  0.00     0.159 A 
HETATM    9  O   UNK N   1      53.401  31.674  43.903  0.00  0.00    -0.321 OA
HETATM   10  C   UNK N   1      52.592  31.570  42.854  0.00  0.00     0.094 A 
HETATM   11  C   UNK N   1      51.186  31.606  43.019  0.00  0.00     0.082 A 
HETATM   12  C   UNK N   1      53.149  31.408  41.583  0.00  0.00     0.074 A 
HETATM   13  C   UNK N   1      50.675  31.794  44.324  0.00  0.00     0.200 A 
HETATM   14  C   UNK N   1      50.353  31.439  41.885  0.00  0.00     0.085 A 
HETATM   15  O   UNK N   1      49.474  31.836  44.527  0.00  0.00    -0.286 OA
HETATM   16  C   UNK N   1      50.935  31.262  40.618  0.00  0.00     0.074 A 
HETATM   17  C   UNK N   1      52.327  31.255  40.466  0.00  0.00     0.071 A 
BRANCH  14  18
HETATM   18  O   UNK N   1      49.009  31.431  42.009  0.00  0.00    -0.360 OA
HETATM   19  H   UNK N   1      48.542  32.067  42.570  0.00  0.00     0.217 HD
ENDBRANCH  14  18
BRANCH  17  20
HETATM   20  O   UNK N   1      52.886  31.090  39.251  0.00  0.00    -0.361 OA
HETATM   21  H   UNK N   1      53.503  30.367  39.066  0.00  0.00     0.217 HD
ENDBRANCH  17  20
ENDBRANCH   3   7
BRANCH   2  22
HETATM   22  O   UNK N   1      52.483  32.484  50.154  0.00  0.00    -0.358 OA
HETATM   23  H   UNK N   1      52.510  31.900  50.926  0.00  0.00     0.218 HD
ENDBRANCH   2  22
BRANCH   4  24
HETATM   24  C   UNK N   1      47.786  32.038  48.658  0.00  0.00     0.013 C 
HETATM   25  C   UNK N   1      46.956  33.049  48.305  0.00  0.00     0.011 C 
BRANCH  25  26
HETATM   26  C   UNK N   1      45.453  33.054  48.537  0.00  0.00     0.068 C 
HETATM   27  C   UNK N   1      45.138  34.180  49.534  0.00  0.00     0.050 C 
HETATM   28  C   UNK N   1      45.009  31.711  49.153  0.00  0.00     0.050 C 
BRANCH  26  29
HETATM   29  O   UNK N   1      44.737  33.308  47.350  0.00  0.00    -0.387 OA
HETATM   30  H   UNK N   1      43.797  33.517  47.590  0.00  0.00     0.211 HD
ENDBRANCH  26  29
ENDBRANCH  25  26
ENDBRANCH   4  24
BRANCH   1  31
HETATM   31  O   UNK N   1      49.684  32.312  50.731  0.00  0.00    -0.352 OA
HETATM   32  C   UNK N   1      49.696  31.320  51.692  0.00  0.00     0.210 C 
ENDBRANCH   1  31
TORSDOF 8
ENDMDL
MODEL 7
REMARK VINA RESULT:      -5.3     14.486     16.674
REMARK  8 active torsions:
REMARK  status: ('A' for Active; 'I' for Inactive)
REMARK    1  A    between atoms: O_3  and  C_11 
REMARK    2  A    between atoms: O_4  and  C_12 
REMARK    3  A    between atoms: O_5  and  C_13 
REMARK    4  A    between atoms: O_6  and  C_14 
REMARK    5  A    between atoms: O_7  and  C_23 
REMARK    6  A    between atoms: C_16  and  C_17 
REMARK    7  A    between atoms: C_18  and  C_25 
REMARK    8  A    between atoms: C_23  and  C_26 
ROOT
HETATM    1  C   UNK N   1      31.753  43.323  59.185  0.00  0.00     0.111 A 
HETATM    2  C   UNK N   1      31.486  44.103  60.350  0.00  0.00     0.100 A 
HETATM    3  C   UNK N   1      29.972  45.514  59.077  0.00  0.00    -0.017 A 
HETATM    4  C   UNK N   1      31.086  43.642  57.976  0.00  0.00     0.001 A 
HETATM    5  C   UNK N   1      30.581  45.173  60.285  0.00  0.00     0.052 A 
HETATM    6  C   UNK N   1      30.226  44.754  57.937  0.00  0.00     0.027 A 
ENDROOT
BRANCH   3   7
HETATM    7  C   UNK N   1      29.072  46.687  58.976  0.00  0.00     0.048 A 
HETATM    8  C   UNK N   1      27.768  46.590  59.476  0.00  0.00     0.159 A 
HETATM    9  O   UNK N   1      26.929  47.614  59.396  0.00  0.00    -0.321 OA
HETATM   10  C   UNK N   1      27.283  48.788  58.883  0.00  0.00     0.094 A 
HETATM   11  C   UNK N   1      28.591  48.994  58.383  0.00  0.00     0.082 A 
HETATM   12  C   UNK N   1      26.347  49.825  58.859  0.00  0.00     0.074 A 
HETATM   13  C   UNK N   1      29.492  47.905  58.411  0.00  0.00     0.200 A 
HETATM   14  C   UNK N   1      28.949  50.274  57.892  0.00  0.00     0.085 A 
HETATM   15  O   UNK N   1      30.631  48.021  57.992  0.00  0.00    -0.286 OA
HETATM   16  C   UNK N   1      27.997  51.308  57.892  0.00  0.00     0.074 A 
HETATM   17  C   UNK N   1      26.698  51.081  58.366  0.00  0.00     0.071 A 
BRANCH  14  18
HETATM   18  O   UNK N   1      30.198  50.518  57.442  0.00  0.00    -0.360 OA
HETATM   19  H   UNK N   1      30.938  50.679  58.044  0.00  0.00     0.217 HD
ENDBRANCH  14  18
BRANCH  17  20
HETATM   20  O   UNK N   1      25.782  52.071  58.361  0.00  0.00    -0.361 OA
HETATM   21  H   UNK N   1      26.035  53.001  58.442  0.00  0.00     0.217 HD
ENDBRANCH  17  20
ENDBRANCH   3   7
BRANCH   2  22
HETATM   22  O   UNK N   1      32.093  43.833  61.525  0.00  0.00    -0.358 OA
HETATM   23  H   UNK N   1      31.679  44.038  62.376  0.00  0.00     0.218 HD
ENDBRANCH   2  22
BRANCH   4  24
HETATM   24  C   UNK N   1      31.301  42.808  56.748  0.00  0.00     0.013 C 
HETATM   25  C   UNK N   1      30.274  42.368  55.981  0.00  0.00     0.011 C 
BRANCH  25  26
HETATM   26  C   UNK N   1      30.433  41.534  54.720  0.00  0.00     0.068 C 
HETATM   27  C   UNK N   1      29.519  42.136  53.643  0.00  0.00     0.050 C 
HETATM   28  C   UNK N   1      29.989  40.081  54.989  0.00  0.00     0.050 C 
BRANCH  26  29
HETATM   29  O   UNK N   1      31.756  41.558  54.233  0.00  0.00    -0.387 OA
HETATM   30  H   UNK N   1      32.225  40.746  54.559  0.00  0.00     0.211 HD
ENDBRANCH  26  29
ENDBRANCH  25  26
ENDBRANCH   4  24
BRANCH   1  31
HETATM   31  O   UNK N   1      32.616  42.265  59.186  0.00  0.00    -0.352 OA
HETATM   32  C   UNK N   1      33.996  42.312  59.160  0.00  0.00     0.210 C 
ENDBRANCH   1  31
TORSDOF 8
ENDMDL
MODEL 8
REMARK VINA RESULT:      -5.3     15.146     16.377
REMARK  8 active torsions:
REMARK  status: ('A' for Active; 'I' for Inactive)
REMARK    1  A    between atoms: O_3  and  C_11 
REMARK    2  A    between atoms: O_4  and  C_12 
REMARK    3  A    between atoms: O_5  and  C_13 
REMARK    4  A    between atoms: O_6  and  C_14 
REMARK    5  A    between atoms: O_7  and  C_23 
REMARK    6  A    between atoms: C_16  and  C_17 
REMARK    7  A    between atoms: C_18  and  C_25 
REMARK    8  A    between atoms: C_23  and  C_26 
ROOT
HETATM    1  C   UNK N   1      29.030  40.466  55.998  0.00  0.00     0.111 A 
HETATM    2  C   UNK N   1      28.003  39.717  55.349  0.00  0.00     0.100 A 
HETATM    3  C   UNK N   1      27.590  41.568  53.830  0.00  0.00    -0.017 A 
HETATM    4  C   UNK N   1      29.343  41.763  55.519  0.00  0.00     0.001 A 
HETATM    5  C   UNK N   1      27.314  40.270  54.259  0.00  0.00     0.052 A 
HETATM    6  C   UNK N   1      28.595  42.304  54.457  0.00  0.00     0.027 A 
ENDROOT
BRANCH   3   7
HETATM    7  C   UNK N   1      26.820  42.193  52.730  0.00  0.00     0.048 A 
HETATM    8  C   UNK N   1      26.901  41.645  51.444  0.00  0.00     0.159 A 
HETATM    9  O   UNK N   1      26.234  42.179  50.431  0.00  0.00    -0.321 OA
HETATM   10  C   UNK N   1      25.428  43.226  50.580  0.00  0.00     0.094 A 
HETATM   11  C   UNK N   1      25.254  43.829  51.848  0.00  0.00     0.082 A 
HETATM   12  C   UNK N   1      24.741  43.714  49.465  0.00  0.00     0.074 A 
HETATM   13  C   UNK N   1      25.990  43.310  52.938  0.00  0.00     0.200 A 
HETATM   14  C   UNK N   1      24.347  44.909  51.980  0.00  0.00     0.085 A 
HETATM   15  O   UNK N   1      25.883  43.790  54.054  0.00  0.00    -0.286 OA
HETATM   16  C   UNK N   1      23.654  45.375  50.850  0.00  0.00     0.074 A 
HETATM   17  C   UNK N   1      23.857  44.785  49.595  0.00  0.00     0.071 A 
BRANCH  14  18
HETATM   18  O   UNK N   1      24.127  45.486  53.181  0.00  0.00    -0.360 OA
HETATM   19  H   UNK N   1      24.260  45.007  54.011  0.00  0.00     0.217 HD
ENDBRANCH  14  18
BRANCH  17  20
HETATM   20  O   UNK N   1      23.196  45.234  48.509  0.00  0.00    -0.361 OA
HETATM   21  H   UNK N   1      23.150  46.176  48.293  0.00  0.00     0.217 HD
ENDBRANCH  17  20
ENDBRANCH   3   7
BRANCH   2  22
HETATM   22  O   UNK N   1      27.675  38.477  55.767  0.00  0.00    -0.358 OA
HETATM   23  H   UNK N   1      28.203  37.999  56.424  0.00  0.00     0.218 HD
ENDBRANCH   2  22
BRANCH   4  24
HETATM   24  C   UNK N   1      30.454  42.555  56.141  0.00  0.00     0.013 C 
HETATM   25  C   UNK N   1      30.222  43.600  56.973  0.00  0.00     0.011 C 
BRANCH  25  26
HETATM   26  C   UNK N   1      31.307  44.429  57.642  0.00  0.00     0.068 C 
HETATM   27  C   UNK N   1      31.752  43.681  58.908  0.00  0.00     0.050 C 
HETATM   28  C   UNK N   1      30.741  45.803  58.055  0.00  0.00     0.050 C 
BRANCH  26  29
HETATM   29  O   UNK N   1      32.434  44.594  56.812  0.00  0.00    -0.387 OA
HETATM   30  H   UNK N   1      32.582  45.565  56.674  0.00  0.00     0.211 HD
ENDBRANCH  26  29
ENDBRANCH  25  26
ENDBRANCH   4  24
BRANCH   1  31
HETATM   31  O   UNK N   1      29.742  39.981  57.057  0.00  0.00    -0.352 OA
HETATM   32  C   UNK N   1      29.359  39.962  58.383  0.00  0.00     0.210 C 
ENDBRANCH   1  31
TORSDOF 8
ENDMDL
MODEL 9
REMARK VINA RESULT:      -5.3     15.265     16.880
REMARK  8 active torsions:
REMARK  status: ('A' for Active; 'I' for Inactive)
REMARK    1  A    between atoms: O_3  and  C_11 
REMARK    2  A    between atoms: O_4  and  C_12 
REMARK    3  A    between atoms: O_5  and  C_13 
REMARK    4  A    between atoms: O_6  and  C_14 
REMARK    5  A    between atoms: O_7  and  C_23 
REMARK    6  A    between atoms: C_16  and  C_17 
REMARK    7  A    between atoms: C_18  and  C_25 
REMARK    8  A    between atoms: C_23  and  C_26 
ROOT
HETATM    1  C   UNK N   1      50.677  50.738  60.609  0.00  0.00     0.111 A 
HETATM    2  C   UNK N   1      51.785  51.340  59.942  0.00  0.00     0.100 A 
HETATM    3  C   UNK N   1      50.277  52.794  58.713  0.00  0.00    -0.017 A 
HETATM    4  C   UNK N   1      49.369  51.208  60.332  0.00  0.00     0.001 A 
HETATM    5  C   UNK N   1      51.571  52.376  59.021  0.00  0.00     0.052 A 
HETATM    6  C   UNK N   1      49.189  52.212  59.363  0.00  0.00     0.027 A 
ENDROOT
BRANCH   3   7
HETATM    7  C   UNK N   1      50.030  53.835  57.688  0.00  0.00     0.048 A 
HETATM    8  C   UNK N   1      49.505  55.071  58.084  0.00  0.00     0.159 A 
HETATM    9  O   UNK N   1      49.262  56.026  57.196  0.00  0.00    -0.321 OA
HETATM   10  C   UNK N   1      49.535  55.884  55.904  0.00  0.00     0.094 A 
HETATM   11  C   UNK N   1      50.099  54.683  55.411  0.00  0.00     0.082 A 
HETATM   12  C   UNK N   1      49.272  56.948  55.036  0.00  0.00     0.074 A 
HETATM   13  C   UNK N   1      50.325  53.630  56.328  0.00  0.00     0.200 A 
HETATM   14  C   UNK N   1      50.426  54.586  54.036  0.00  0.00     0.085 A 
HETATM   15  O   UNK N   1      50.805  52.571  55.962  0.00  0.00    -0.286 OA
HETATM   16  C   UNK N   1      50.168  55.674  53.184  0.00  0.00     0.074 A 
HETATM   17  C   UNK N   1      49.585  56.847  53.681  0.00  0.00     0.071 A 
BRANCH  14  18
HETATM   18  O   UNK N   1      50.999  53.470  53.538  0.00  0.00    -0.360 OA
HETATM   19  H   UNK N   1      51.389  52.794  54.110  0.00  0.00     0.217 HD
ENDBRANCH  14  18
BRANCH  17  20
HETATM   20  O   UNK N   1      49.332  57.889  52.864  0.00  0.00    -0.361 OA
HETATM   21  H   UNK N   1      49.706  57.941  51.973  0.00  0.00     0.217 HD
ENDBRANCH  17  20
ENDBRANCH   3   7
BRANCH   2  22
HETATM   22  O   UNK N   1      53.049  50.929  60.179  0.00  0.00    -0.358 OA
HETATM   23  H   UNK N   1      53.547  51.219  60.957  0.00  0.00     0.218 HD
ENDBRANCH   2  22
BRANCH   4  24
HETATM   24  C   UNK N   1      48.187  50.635  61.055  0.00  0.00     0.013 C 
HETATM   25  C   UNK N   1      47.517  49.547  60.604  0.00  0.00     0.011 C 
BRANCH  25  26
HETATM   26  C   UNK N   1      46.323  48.916  61.302  0.00  0.00     0.068 C 
HETATM   27  C   UNK N   1      45.070  49.698  60.883  0.00  0.00     0.050 C 
HETATM   28  C   UNK N   1      46.487  49.027  62.832  0.00  0.00     0.050 C 
BRANCH  26  29
HETATM   29  O   UNK N   1      46.143  47.569  60.926  0.00  0.00    -0.387 OA
HETATM   30  H   UNK N   1      45.181  47.423  60.735  0.00  0.00     0.211 HD
ENDBRANCH  26  29
ENDBRANCH  25  26
ENDBRANCH   4  24
BRANCH   1  31
HETATM   31  O   UNK N   1      50.821  49.732  61.521  0.00  0.00    -0.352 OA
HETATM   32  C   UNK N   1      51.183  49.852  62.848  0.00  0.00     0.210 C 
ENDBRANCH   1  31
TORSDOF 8
ENDMDL
