MODEL 1
REMARK VINA RESULT:      -7.9      0.000      0.000
REMARK  6 active torsions:
REMARK  status: ('A' for Active; 'I' for Inactive)
REMARK    1  A    between atoms: O_2  and  C_8 
REMARK    2  A    between atoms: O_3  and  C_9 
REMARK    3  A    between atoms: O_4  and  C_10 
REMARK    4  A    between atoms: O_5  and  C_11 
REMARK    5  A    between atoms: O_6  and  C_19 
REMARK    6  A    between atoms: C_12  and  C_19 
ROOT
HETATM    1  O   UNK N   1      42.060  43.687  48.387  0.00  0.00    -0.309 OA
HETATM    2  C   UNK N   1      42.226  43.556  47.040  0.00  0.00     0.084 A 
HETATM    3  C   UNK N   1      41.969  44.412  44.770  0.00  0.00     0.077 A 
HETATM    4  C   UNK N   1      43.114  42.303  45.156  0.00  0.00     0.071 A 
HETATM    5  C   UNK N   1      41.737  44.543  46.151  0.00  0.00     0.009 A 
HETATM    6  C   UNK N   1      42.900  42.437  46.536  0.00  0.00     0.074 A 
HETATM    7  C   UNK N   1      42.654  43.290  44.279  0.00  0.00     0.073 A 
HETATM    8  C   UNK N   1      41.644  44.868  48.993  0.00  0.00     0.197 C 
HETATM    9  C   UNK N   1      40.988  45.742  46.690  0.00  0.00     0.050 C 
HETATM   10  C   UNK N   1      40.521  45.495  48.133  0.00  0.00     0.079 C 
ENDROOT
BRANCH   8  11
HETATM   11  O   UNK N   1      42.721  45.780  49.077  0.00  0.00    -0.361 OA
HETATM   12  H   UNK N   1      43.235  45.765  48.231  0.00  0.00     0.213 HD
ENDBRANCH   8  11
BRANCH   8  13
HETATM   13  C   UNK N   1      41.195  44.537  50.424  0.00  0.00     0.006 A 
HETATM   14  C   UNK N   1      41.742  45.188  51.553  0.00  0.00     0.052 A 
HETATM   15  C   UNK N   1      41.328  44.859  52.849  0.00  0.00     0.099 A 
HETATM   16  C   UNK N   1      40.348  43.872  53.040  0.00  0.00     0.098 A 
HETATM   17  C   UNK N   1      39.783  43.232  51.932  0.00  0.00     0.040 A 
HETATM   18  C   UNK N   1      40.197  43.561  50.636  0.00  0.00     0.015 A 
BRANCH  15  19
HETATM   19  O   UNK N   1      41.887  45.499  53.897  0.00  0.00    -0.358 OA
HETATM   20  H   UNK N   1      42.453  45.048  54.539  0.00  0.00     0.218 HD
ENDBRANCH  15  19
BRANCH  16  21
HETATM   21  O   UNK N   1      39.954  43.546  54.290  0.00  0.00    -0.358 OA
HETATM   22  H   UNK N   1      39.021  43.552  54.550  0.00  0.00     0.218 HD
ENDBRANCH  16  21
ENDBRANCH   8  13
BRANCH   3  23
HETATM   23  O   UNK N   1      41.521  45.360  43.918  0.00  0.00    -0.360 OA
HETATM   24  H   UNK N   1      42.074  45.707  43.203  0.00  0.00     0.217 HD
ENDBRANCH   3  23
BRANCH   4  25
HETATM   25  O   UNK N   1      43.769  41.232  44.663  0.00  0.00    -0.361 OA
HETATM   26  H   UNK N   1      44.551  40.866  45.100  0.00  0.00     0.217 HD
ENDBRANCH   4  25
TORSDOF 6
ENDMDL
MODEL 2
REMARK VINA RESULT:      -7.0      1.197      6.917
REMARK  6 active torsions:
REMARK  status: ('A' for Active; 'I' for Inactive)
REMARK    1  A    between atoms: O_2  and  C_8 
REMARK    2  A    between atoms: O_3  and  C_9 
REMARK    3  A    between atoms: O_4  and  C_10 
REMARK    4  A    between atoms: O_5  and  C_11 
REMARK    5  A    between atoms: O_6  and  C_19 
REMARK    6  A    between atoms: C_12  and  C_19 
ROOT
HETATM    1  O   UNK N   1      40.743  44.225  49.574  0.00  0.00    -0.309 OA
HETATM    2  C   UNK N   1      40.688  44.142  50.934  0.00  0.00     0.084 A 
HETATM    3  C   UNK N   1      41.301  44.973  53.145  0.00  0.00     0.077 A 
HETATM    4  C   UNK N   1      39.787  43.084  52.928  0.00  0.00     0.071 A 
HETATM    5  C   UNK N   1      41.418  45.044  51.745  0.00  0.00     0.009 A 
HETATM    6  C   UNK N   1      39.887  43.161  51.531  0.00  0.00     0.074 A 
HETATM    7  C   UNK N   1      40.488  43.990  53.729  0.00  0.00     0.073 A 
HETATM    8  C   UNK N   1      41.291  45.311  48.898  0.00  0.00     0.197 C 
HETATM    9  C   UNK N   1      42.303  46.091  51.104  0.00  0.00     0.050 C 
HETATM   10  C   UNK N   1      42.582  45.749  49.632  0.00  0.00     0.079 C 
ENDROOT
BRANCH   8  11
HETATM   11  O   UNK N   1      40.380  46.391  48.888  0.00  0.00    -0.361 OA
HETATM   12  H   UNK N   1      39.543  46.115  48.436  0.00  0.00     0.213 HD
ENDBRANCH   8  11
BRANCH   8  13
HETATM   13  C   UNK N   1      41.540  44.889  47.442  0.00  0.00     0.006 A 
HETATM   14  C   UNK N   1      41.914  43.571  47.095  0.00  0.00     0.052 A 
HETATM   15  C   UNK N   1      42.151  43.214  45.762  0.00  0.00     0.099 A 
HETATM   16  C   UNK N   1      42.009  44.172  44.746  0.00  0.00     0.098 A 
HETATM   17  C   UNK N   1      41.621  45.476  45.072  0.00  0.00     0.040 A 
HETATM   18  C   UNK N   1      41.384  45.833  46.404  0.00  0.00     0.015 A 
BRANCH  15  19
HETATM   19  O   UNK N   1      42.516  41.947  45.480  0.00  0.00    -0.358 OA
HETATM   20  H   UNK N   1      42.258  41.502  44.660  0.00  0.00     0.218 HD
ENDBRANCH  15  19
BRANCH  16  21
HETATM   21  O   UNK N   1      42.246  43.833  43.461  0.00  0.00    -0.358 OA
HETATM   22  H   UNK N   1      43.125  43.563  43.157  0.00  0.00     0.218 HD
ENDBRANCH  16  21
ENDBRANCH   8  13
BRANCH   3  23
HETATM   23  O   UNK N   1      41.981  45.842  53.924  0.00  0.00    -0.360 OA
HETATM   24  H   UNK N   1      42.860  45.635  54.273  0.00  0.00     0.217 HD
ENDBRANCH   3  23
BRANCH   4  25
HETATM   25  O   UNK N   1      39.012  42.145  53.511  0.00  0.00    -0.361 OA
HETATM   26  H   UNK N   1      38.482  42.338  54.297  0.00  0.00     0.217 HD
ENDBRANCH   4  25
TORSDOF 6
ENDMDL
MODEL 3
REMARK VINA RESULT:      -6.8     11.053     12.247
REMARK  6 active torsions:
REMARK  status: ('A' for Active; 'I' for Inactive)
REMARK    1  A    between atoms: O_2  and  C_8 
REMARK    2  A    between atoms: O_3  and  C_9 
REMARK    3  A    between atoms: O_4  and  C_10 
REMARK    4  A    between atoms: O_5  and  C_11 
REMARK    5  A    between atoms: O_6  and  C_19 
REMARK    6  A    between atoms: C_12  and  C_19 
ROOT
HETATM    1  O   UNK N   1      47.626  33.327  49.608  0.00  0.00    -0.309 OA
HETATM    2  C   UNK N   1      47.227  33.096  48.325  0.00  0.00     0.084 A 
HETATM    3  C   UNK N   1      45.555  33.252  46.554  0.00  0.00     0.077 A 
HETATM    4  C   UNK N   1      47.744  32.303  46.086  0.00  0.00     0.071 A 
HETATM    5  C   UNK N   1      45.924  33.450  47.896  0.00  0.00     0.009 A 
HETATM    6  C   UNK N   1      48.123  32.514  47.420  0.00  0.00     0.074 A 
HETATM    7  C   UNK N   1      46.467  32.676  45.656  0.00  0.00     0.073 A 
HETATM    8  C   UNK N   1      46.913  34.126  50.496  0.00  0.00     0.197 C 
HETATM    9  C   UNK N   1      44.945  34.057  48.877  0.00  0.00     0.050 C 
HETATM   10  C   UNK N   1      45.403  33.828  50.325  0.00  0.00     0.079 C 
ENDROOT
BRANCH   8  11
HETATM   11  O   UNK N   1      47.144  35.492  50.220  0.00  0.00    -0.361 OA
HETATM   12  H   UNK N   1      47.997  35.591  49.726  0.00  0.00     0.213 HD
ENDBRANCH   8  11
BRANCH   8  13
HETATM   13  C   UNK N   1      47.427  33.838  51.915  0.00  0.00     0.006 A 
HETATM   14  C   UNK N   1      48.123  34.808  52.672  0.00  0.00     0.052 A 
HETATM   15  C   UNK N   1      48.596  34.517  53.958  0.00  0.00     0.099 A 
HETATM   16  C   UNK N   1      48.374  33.247  54.514  0.00  0.00     0.098 A 
HETATM   17  C   UNK N   1      47.672  32.283  53.783  0.00  0.00     0.040 A 
HETATM   18  C   UNK N   1      47.198  32.573  52.499  0.00  0.00     0.015 A 
BRANCH  15  19
HETATM   19  O   UNK N   1      49.264  35.470  54.639  0.00  0.00    -0.358 OA
HETATM   20  H   UNK N   1      48.812  36.182  55.114  0.00  0.00     0.218 HD
ENDBRANCH  15  19
BRANCH  16  21
HETATM   21  O   UNK N   1      48.839  32.962  55.749  0.00  0.00    -0.358 OA
HETATM   22  H   UNK N   1      48.886  33.632  56.446  0.00  0.00     0.218 HD
ENDBRANCH  16  21
ENDBRANCH   8  13
BRANCH   3  23
HETATM   23  O   UNK N   1      44.321  33.604  46.135  0.00  0.00    -0.360 OA
HETATM   24  H   UNK N   1      43.938  34.469  46.342  0.00  0.00     0.217 HD
ENDBRANCH   3  23
BRANCH   4  25
HETATM   25  O   UNK N   1      48.605  31.750  45.206  0.00  0.00    -0.361 OA
HETATM   26  H   UNK N   1      49.375  31.242  45.497  0.00  0.00     0.217 HD
ENDBRANCH   4  25
TORSDOF 6
ENDMDL
MODEL 4
REMARK VINA RESULT:      -6.8      2.668      6.942
REMARK  6 active torsions:
REMARK  status: ('A' for Active; 'I' for Inactive)
REMARK    1  A    between atoms: O_2  and  C_8 
REMARK    2  A    between atoms: O_3  and  C_9 
REMARK    3  A    between atoms: O_4  and  C_10 
REMARK    4  A    between atoms: O_5  and  C_11 
REMARK    5  A    between atoms: O_6  and  C_19 
REMARK    6  A    between atoms: C_12  and  C_19 
ROOT
HETATM    1  O   UNK N   1      41.242  46.238  48.854  0.00  0.00    -0.309 OA
HETATM    2  C   UNK N   1      41.185  45.589  50.052  0.00  0.00     0.084 A 
HETATM    3  C   UNK N   1      40.233  43.870  51.499  0.00  0.00     0.077 A 
HETATM    4  C   UNK N   1      42.069  45.252  52.291  0.00  0.00     0.071 A 
HETATM    5  C   UNK N   1      40.235  44.562  50.274  0.00  0.00     0.009 A 
HETATM    6  C   UNK N   1      42.087  45.935  51.065  0.00  0.00     0.074 A 
HETATM    7  C   UNK N   1      41.149  44.221  52.502  0.00  0.00     0.073 A 
HETATM    8  C   UNK N   1      40.576  45.797  47.715  0.00  0.00     0.197 C 
HETATM    9  C   UNK N   1      39.244  44.201  49.190  0.00  0.00     0.050 C 
HETATM   10  C   UNK N   1      39.167  45.306  48.125  0.00  0.00     0.079 C 
ENDROOT
BRANCH   8  11
HETATM   11  O   UNK N   1      41.280  44.724  47.121  0.00  0.00    -0.361 OA
HETATM   12  H   UNK N   1      42.243  44.951  47.062  0.00  0.00     0.213 HD
ENDBRANCH   8  11
BRANCH   8  13
HETATM   13  C   UNK N   1      40.542  46.954  46.705  0.00  0.00     0.006 A 
HETATM   14  C   UNK N   1      41.707  47.664  46.336  0.00  0.00     0.052 A 
HETATM   15  C   UNK N   1      41.648  48.726  45.425  0.00  0.00     0.099 A 
HETATM   16  C   UNK N   1      40.418  49.092  44.858  0.00  0.00     0.098 A 
HETATM   17  C   UNK N   1      39.259  48.387  45.199  0.00  0.00     0.040 A 
HETATM   18  C   UNK N   1      39.317  47.326  46.109  0.00  0.00     0.015 A 
BRANCH  15  19
HETATM   19  O   UNK N   1      42.785  49.382  45.112  0.00  0.00    -0.358 OA
HETATM   20  H   UNK N   1      42.782  50.263  44.713  0.00  0.00     0.218 HD
ENDBRANCH  15  19
BRANCH  16  21
HETATM   21  O   UNK N   1      40.357  50.123  43.986  0.00  0.00    -0.358 OA
HETATM   22  H   UNK N   1      40.293  49.981  43.031  0.00  0.00     0.218 HD
ENDBRANCH  16  21
ENDBRANCH   8  13
BRANCH   3  23
HETATM   23  O   UNK N   1      39.342  42.878  51.710  0.00  0.00    -0.360 OA
HETATM   24  H   UNK N   1      39.227  42.471  52.581  0.00  0.00     0.217 HD
ENDBRANCH   3  23
BRANCH   4  25
HETATM   25  O   UNK N   1      42.940  45.574  53.269  0.00  0.00    -0.361 OA
HETATM   26  H   UNK N   1      43.794  45.986  53.077  0.00  0.00     0.217 HD
ENDBRANCH   4  25
TORSDOF 6
ENDMDL
MODEL 5
REMARK VINA RESULT:      -6.6     11.287     13.965
REMARK  6 active torsions:
REMARK  status: ('A' for Active; 'I' for Inactive)
REMARK    1  A    between atoms: O_2  and  C_8 
REMARK    2  A    between atoms: O_3  and  C_9 
REMARK    3  A    between atoms: O_4  and  C_10 
REMARK    4  A    between atoms: O_5  and  C_11 
REMARK    5  A    between atoms: O_6  and  C_19 
REMARK    6  A    between atoms: C_12  and  C_19 
ROOT
HETATM    1  O   UNK N   1      48.106  32.929  50.207  0.00  0.00    -0.309 OA
HETATM    2  C   UNK N   1      48.978  33.112  51.239  0.00  0.00     0.084 A 
HETATM    3  C   UNK N   1      49.460  33.854  53.513  0.00  0.00     0.077 A 
HETATM    4  C   UNK N   1      51.203  32.817  52.172  0.00  0.00     0.071 A 
HETATM    5  C   UNK N   1      48.557  33.727  52.443  0.00  0.00     0.009 A 
HETATM    6  C   UNK N   1      50.301  32.672  51.108  0.00  0.00     0.074 A 
HETATM    7  C   UNK N   1      50.780  33.400  53.370  0.00  0.00     0.073 A 
HETATM    8  C   UNK N   1      46.730  33.090  50.333  0.00  0.00     0.197 C 
HETATM    9  C   UNK N   1      47.134  34.224  52.580  0.00  0.00     0.050 C 
HETATM   10  C   UNK N   1      46.456  34.338  51.206  0.00  0.00     0.079 C 
ENDROOT
BRANCH   8  11
HETATM   11  O   UNK N   1      46.161  31.958  50.962  0.00  0.00    -0.361 OA
HETATM   12  H   UNK N   1      45.511  32.252  51.649  0.00  0.00     0.213 HD
ENDBRANCH   8  11
BRANCH   8  13
HETATM   13  C   UNK N   1      46.131  33.196  48.923  0.00  0.00     0.006 A 
HETATM   14  C   UNK N   1      46.863  32.842  47.767  0.00  0.00     0.052 A 
HETATM   15  C   UNK N   1      46.301  32.963  46.490  0.00  0.00     0.099 A 
HETATM   16  C   UNK N   1      44.987  33.435  46.347  0.00  0.00     0.098 A 
HETATM   17  C   UNK N   1      44.243  33.772  47.483  0.00  0.00     0.040 A 
HETATM   18  C   UNK N   1      44.805  33.652  48.759  0.00  0.00     0.015 A 
BRANCH  15  19
HETATM   19  O   UNK N   1      47.041  32.623  45.415  0.00  0.00    -0.358 OA
HETATM   20  H   UNK N   1      47.983  32.833  45.346  0.00  0.00     0.218 HD
ENDBRANCH  15  19
BRANCH  16  21
HETATM   21  O   UNK N   1      44.446  33.562  45.116  0.00  0.00    -0.358 OA
HETATM   22  H   UNK N   1      44.109  32.799  44.624  0.00  0.00     0.218 HD
ENDBRANCH  16  21
ENDBRANCH   8  13
BRANCH   3  23
HETATM   23  O   UNK N   1      49.059  34.423  54.670  0.00  0.00    -0.360 OA
HETATM   24  H   UNK N   1      49.622  35.043  55.156  0.00  0.00     0.217 HD
ENDBRANCH   3  23
BRANCH   4  25
HETATM   25  O   UNK N   1      52.477  32.389  52.056  0.00  0.00    -0.361 OA
HETATM   26  H   UNK N   1      52.881  32.215  51.194  0.00  0.00     0.217 HD
ENDBRANCH   4  25
TORSDOF 6
ENDMDL
MODEL 6
REMARK VINA RESULT:      -6.5      3.656      7.741
REMARK  6 active torsions:
REMARK  status: ('A' for Active; 'I' for Inactive)
REMARK    1  A    between atoms: O_2  and  C_8 
REMARK    2  A    between atoms: O_3  and  C_9 
REMARK    3  A    between atoms: O_4  and  C_10 
REMARK    4  A    between atoms: O_5  and  C_11 
REMARK    5  A    between atoms: O_6  and  C_19 
REMARK    6  A    between atoms: C_12  and  C_19 
ROOT
HETATM    1  O   UNK N   1      40.881  47.451  46.989  0.00  0.00    -0.309 OA
HETATM    2  C   UNK N   1      40.958  46.668  48.102  0.00  0.00     0.084 A 
HETATM    3  C   UNK N   1      40.144  44.810  49.458  0.00  0.00     0.077 A 
HETATM    4  C   UNK N   1      42.112  46.056  50.152  0.00  0.00     0.071 A 
HETATM    5  C   UNK N   1      40.011  45.640  48.330  0.00  0.00     0.009 A 
HETATM    6  C   UNK N   1      41.994  46.877  49.020  0.00  0.00     0.074 A 
HETATM    7  C   UNK N   1      41.193  45.025  50.365  0.00  0.00     0.073 A 
HETATM    8  C   UNK N   1      40.060  47.158  45.905  0.00  0.00     0.197 C 
HETATM    9  C   UNK N   1      38.876  45.426  47.353  0.00  0.00     0.050 C 
HETATM   10  C   UNK N   1      38.699  46.648  46.439  0.00  0.00     0.079 C 
ENDROOT
BRANCH   8  11
HETATM   11  O   UNK N   1      40.645  46.149  45.106  0.00  0.00    -0.361 OA
HETATM   12  H   UNK N   1      40.657  46.441  44.159  0.00  0.00     0.213 HD
ENDBRANCH   8  11
BRANCH   8  13
HETATM   13  C   UNK N   1      39.933  48.425  45.046  0.00  0.00     0.006 A 
HETATM   14  C   UNK N   1      38.847  48.629  44.163  0.00  0.00     0.052 A 
HETATM   15  C   UNK N   1      38.762  49.786  43.379  0.00  0.00     0.099 A 
HETATM   16  C   UNK N   1      39.762  50.767  43.468  0.00  0.00     0.098 A 
HETATM   17  C   UNK N   1      40.833  50.587  44.350  0.00  0.00     0.040 A 
HETATM   18  C   UNK N   1      40.918  49.432  45.135  0.00  0.00     0.015 A 
BRANCH  15  19
HETATM   19  O   UNK N   1      37.713  49.932  42.543  0.00  0.00    -0.358 OA
HETATM   20  H   UNK N   1      37.806  50.299  41.653  0.00  0.00     0.218 HD
ENDBRANCH  15  19
BRANCH  16  21
HETATM   21  O   UNK N   1      39.686  51.878  42.705  0.00  0.00    -0.358 OA
HETATM   22  H   UNK N   1      40.450  52.214  42.214  0.00  0.00     0.218 HD
ENDBRANCH  16  21
ENDBRANCH   8  13
BRANCH   3  23
HETATM   23  O   UNK N   1      39.255  43.816  49.672  0.00  0.00    -0.360 OA
HETATM   24  H   UNK N   1      39.141  43.088  49.044  0.00  0.00     0.217 HD
ENDBRANCH   3  23
BRANCH   4  25
HETATM   25  O   UNK N   1      43.112  46.247  51.037  0.00  0.00    -0.361 OA
HETATM   26  H   UNK N   1      43.739  46.979  50.949  0.00  0.00     0.217 HD
ENDBRANCH   4  25
TORSDOF 6
ENDMDL
MODEL 7
REMARK VINA RESULT:      -6.2     11.828     13.159
REMARK  6 active torsions:
REMARK  status: ('A' for Active; 'I' for Inactive)
REMARK    1  A    between atoms: O_2  and  C_8 
REMARK    2  A    between atoms: O_3  and  C_9 
REMARK    3  A    between atoms: O_4  and  C_10 
REMARK    4  A    between atoms: O_5  and  C_11 
REMARK    5  A    between atoms: O_6  and  C_19 
REMARK    6  A    between atoms: C_12  and  C_19 
ROOT
HETATM    1  O   UNK N   1      48.187  32.536  49.689  0.00  0.00    -0.309 OA
HETATM    2  C   UNK N   1      48.254  32.217  48.365  0.00  0.00     0.084 A 
HETATM    3  C   UNK N   1      47.344  32.317  46.103  0.00  0.00     0.077 A 
HETATM    4  C   UNK N   1      49.464  31.203  46.518  0.00  0.00     0.071 A 
HETATM    5  C   UNK N   1      47.226  32.610  47.474  0.00  0.00     0.009 A 
HETATM    6  C   UNK N   1      49.359  31.506  47.883  0.00  0.00     0.074 A 
HETATM    7  C   UNK N   1      48.463  31.612  45.633  0.00  0.00     0.073 A 
HETATM    8  C   UNK N   1      47.277  33.450  50.209  0.00  0.00     0.197 C 
HETATM    9  C   UNK N   1      46.018  33.358  47.994  0.00  0.00     0.050 C 
HETATM   10  C   UNK N   1      45.908  33.230  49.521  0.00  0.00     0.079 C 
ENDROOT
BRANCH   8  11
HETATM   11  O   UNK N   1      47.710  34.771  49.954  0.00  0.00    -0.361 OA
HETATM   12  H   UNK N   1      47.204  35.402  50.526  0.00  0.00     0.213 HD
ENDBRANCH   8  11
BRANCH   8  13
HETATM   13  C   UNK N   1      47.224  33.257  51.732  0.00  0.00     0.006 A 
HETATM   14  C   UNK N   1      47.118  31.978  52.324  0.00  0.00     0.052 A 
HETATM   15  C   UNK N   1      47.056  31.828  53.715  0.00  0.00     0.099 A 
HETATM   16  C   UNK N   1      47.107  32.960  54.542  0.00  0.00     0.098 A 
HETATM   17  C   UNK N   1      47.230  34.232  53.972  0.00  0.00     0.040 A 
HETATM   18  C   UNK N   1      47.293  34.382  52.583  0.00  0.00     0.015 A 
BRANCH  15  19
HETATM   19  O   UNK N   1      46.944  30.588  54.234  0.00  0.00    -0.358 OA
HETATM   20  H   UNK N   1      47.575  30.236  54.877  0.00  0.00     0.218 HD
ENDBRANCH  15  19
BRANCH  16  21
HETATM   21  O   UNK N   1      47.036  32.819  55.884  0.00  0.00    -0.358 OA
HETATM   22  H   UNK N   1      46.533  33.433  56.438  0.00  0.00     0.218 HD
ENDBRANCH  16  21
ENDBRANCH   8  13
BRANCH   3  23
HETATM   23  O   UNK N   1      46.377  32.705  45.245  0.00  0.00    -0.360 OA
HETATM   24  H   UNK N   1      45.496  32.965  45.551  0.00  0.00     0.217 HD
ENDBRANCH   3  23
BRANCH   4  25
HETATM   25  O   UNK N   1      50.530  30.524  46.045  0.00  0.00    -0.361 OA
HETATM   26  H   UNK N   1      51.404  30.933  45.972  0.00  0.00     0.217 HD
ENDBRANCH   4  25
TORSDOF 6
ENDMDL
MODEL 8
REMARK VINA RESULT:      -6.1     12.351     13.370
REMARK  6 active torsions:
REMARK  status: ('A' for Active; 'I' for Inactive)
REMARK    1  A    between atoms: O_2  and  C_8 
REMARK    2  A    between atoms: O_3  and  C_9 
REMARK    3  A    between atoms: O_4  and  C_10 
REMARK    4  A    between atoms: O_5  and  C_11 
REMARK    5  A    between atoms: O_6  and  C_19 
REMARK    6  A    between atoms: C_12  and  C_19 
ROOT
HETATM    1  O   UNK N   1      47.761  33.064  50.062  0.00  0.00    -0.309 OA
HETATM    2  C   UNK N   1      47.217  32.442  48.978  0.00  0.00     0.084 A 
HETATM    3  C   UNK N   1      45.630  30.867  48.001  0.00  0.00     0.077 A 
HETATM    4  C   UNK N   1      47.069  32.198  46.564  0.00  0.00     0.071 A 
HETATM    5  C   UNK N   1      46.215  31.454  49.137  0.00  0.00     0.009 A 
HETATM    6  C   UNK N   1      47.645  32.799  47.694  0.00  0.00     0.074 A 
HETATM    7  C   UNK N   1      46.063  31.240  46.720  0.00  0.00     0.073 A 
HETATM    8  C   UNK N   1      47.226  32.971  51.343  0.00  0.00     0.197 C 
HETATM    9  C   UNK N   1      45.766  31.049  50.524  0.00  0.00     0.050 C 
HETATM   10  C   UNK N   1      46.776  31.510  51.586  0.00  0.00     0.079 C 
ENDROOT
BRANCH   8  11
HETATM   11  O   UNK N   1      46.105  33.823  51.469  0.00  0.00    -0.361 OA
HETATM   12  H   UNK N   1      46.392  34.765  51.368  0.00  0.00     0.213 HD
ENDBRANCH   8  11
BRANCH   8  13
HETATM   13  C   UNK N   1      48.293  33.447  52.341  0.00  0.00     0.006 A 
HETATM   14  C   UNK N   1      48.121  34.609  53.127  0.00  0.00     0.052 A 
HETATM   15  C   UNK N   1      49.114  35.032  54.019  0.00  0.00     0.099 A 
HETATM   16  C   UNK N   1      50.300  34.292  54.146  0.00  0.00     0.098 A 
HETATM   17  C   UNK N   1      50.477  33.130  53.389  0.00  0.00     0.040 A 
HETATM   18  C   UNK N   1      49.485  32.706  52.498  0.00  0.00     0.015 A 
BRANCH  15  19
HETATM   19  O   UNK N   1      48.911  36.154  54.740  0.00  0.00    -0.358 OA
HETATM   20  H   UNK N   1      49.370  36.984  54.550  0.00  0.00     0.218 HD
ENDBRANCH  15  19
BRANCH  16  21
HETATM   21  O   UNK N   1      51.264  34.704  54.998  0.00  0.00    -0.358 OA
HETATM   22  H   UNK N   1      51.380  34.303  55.872  0.00  0.00     0.218 HD
ENDBRANCH  16  21
ENDBRANCH   8  13
BRANCH   3  23
HETATM   23  O   UNK N   1      44.662  29.936  48.146  0.00  0.00    -0.360 OA
HETATM   24  H   UNK N   1      44.868  29.008  48.327  0.00  0.00     0.217 HD
ENDBRANCH   3  23
BRANCH   4  25
HETATM   25  O   UNK N   1      47.471  32.542  45.323  0.00  0.00    -0.361 OA
HETATM   26  H   UNK N   1      47.580  31.884  44.621  0.00  0.00     0.217 HD
ENDBRANCH   4  25
TORSDOF 6
ENDMDL
MODEL 9
REMARK VINA RESULT:      -6.1      1.619      2.389
REMARK  6 active torsions:
REMARK  status: ('A' for Active; 'I' for Inactive)
REMARK    1  A    between atoms: O_2  and  C_8 
REMARK    2  A    between atoms: O_3  and  C_9 
REMARK    3  A    between atoms: O_4  and  C_10 
REMARK    4  A    between atoms: O_5  and  C_11 
REMARK    5  A    between atoms: O_6  and  C_19 
REMARK    6  A    between atoms: C_12  and  C_19 
ROOT
HETATM    1  O   UNK N   1      41.467  44.589  48.872  0.00  0.00    -0.309 OA
HETATM    2  C   UNK N   1      41.503  44.989  47.570  0.00  0.00     0.084 A 
HETATM    3  C   UNK N   1      41.861  46.713  45.881  0.00  0.00     0.077 A 
HETATM    4  C   UNK N   1      41.355  44.433  45.208  0.00  0.00     0.071 A 
HETATM    5  C   UNK N   1      41.774  46.337  47.233  0.00  0.00     0.009 A 
HETATM    6  C   UNK N   1      41.284  44.049  46.555  0.00  0.00     0.074 A 
HETATM    7  C   UNK N   1      41.647  45.759  44.875  0.00  0.00     0.073 A 
HETATM    8  C   UNK N   1      41.923  45.376  49.925  0.00  0.00     0.197 C 
HETATM    9  C   UNK N   1      41.988  47.361  48.326  0.00  0.00     0.050 C 
HETATM   10  C   UNK N   1      41.478  46.838  49.678  0.00  0.00     0.079 C 
ENDROOT
BRANCH   8  11
HETATM   11  O   UNK N   1      43.334  45.333  49.993  0.00  0.00    -0.361 OA
HETATM   12  H   UNK N   1      43.719  45.825  49.224  0.00  0.00     0.213 HD
ENDBRANCH   8  11
BRANCH   8  13
HETATM   13  C   UNK N   1      41.370  44.790  51.233  0.00  0.00     0.006 A 
HETATM   14  C   UNK N   1      40.323  43.841  51.247  0.00  0.00     0.052 A 
HETATM   15  C   UNK N   1      39.825  43.333  52.453  0.00  0.00     0.099 A 
HETATM   16  C   UNK N   1      40.374  43.761  53.672  0.00  0.00     0.098 A 
HETATM   17  C   UNK N   1      41.423  44.686  53.673  0.00  0.00     0.040 A 
HETATM   18  C   UNK N   1      41.921  45.194  52.468  0.00  0.00     0.015 A 
BRANCH  15  19
HETATM   19  O   UNK N   1      38.816  42.437  52.418  0.00  0.00    -0.358 OA
HETATM   20  H   UNK N   1      37.917  42.678  52.156  0.00  0.00     0.218 HD
ENDBRANCH  15  19
BRANCH  16  21
HETATM   21  O   UNK N   1      39.888  43.280  54.837  0.00  0.00    -0.358 OA
HETATM   22  H   UNK N   1      39.222  42.577  54.862  0.00  0.00     0.218 HD
ENDBRANCH  16  21
ENDBRANCH   8  13
BRANCH   3  23
HETATM   23  O   UNK N   1      42.136  47.994  45.553  0.00  0.00    -0.360 OA
HETATM   24  H   UNK N   1      42.735  48.218  44.826  0.00  0.00     0.217 HD
ENDBRANCH   3  23
BRANCH   4  25
HETATM   25  O   UNK N   1      41.152  43.531  44.225  0.00  0.00    -0.361 OA
HETATM   26  H   UNK N   1      41.370  42.595  44.338  0.00  0.00     0.217 HD
ENDBRANCH   4  25
TORSDOF 6
ENDMDL
