MODEL 1
REMARK VINA RESULT:      -6.0      0.000      0.000
REMARK  7 active torsions:
REMARK  status: ('A' for Active; 'I' for Inactive)
REMARK    1  A    between atoms: O_3  and  C_12 
REMARK    2  A    between atoms: O_4  and  C_13 
REMARK    3  A    between atoms: O_5  and  C_14 
REMARK    4  A    between atoms: O_6  and  C_15 
REMARK    5  A    between atoms: O_7  and  C_16 
REMARK    6  A    between atoms: O_8  and  C_17 
REMARK    7  A    between atoms: C_10  and  C_19 
ROOT
HETATM    1  O   UNK N   1      48.707  32.487  46.477  0.00  0.00    -0.309 OA
HETATM    2  O   UNK N   1      45.630  30.067  47.096  0.00  0.00    -0.287 OA
HETATM    3  C   UNK N   1      47.731  32.909  47.273  0.00  0.00     0.095 A 
HETATM    4  C   UNK N   1      48.695  31.306  45.856  0.00  0.00     0.093 A 
HETATM    5  C   UNK N   1      46.564  30.826  46.910  0.00  0.00     0.190 A 
HETATM    6  C   UNK N   1      45.591  32.566  48.394  0.00  0.00     0.085 A 
HETATM    7  C   UNK N   1      46.813  34.651  48.691  0.00  0.00     0.071 A 
HETATM    8  C   UNK N   1      46.611  32.092  47.530  0.00  0.00     0.081 A 
HETATM    9  C   UNK N   1      47.606  30.437  46.067  0.00  0.00     0.094 A 
HETATM   10  C   UNK N   1      47.826  34.179  47.848  0.00  0.00     0.075 A 
HETATM   11  C   UNK N   1      45.705  33.845  48.964  0.00  0.00     0.074 A 
ENDROOT
BRANCH   4  12
HETATM   12  C   UNK N   1      49.872  30.975  44.980  0.00  0.00     0.037 A 
HETATM   13  C   UNK N   1      51.166  30.671  45.477  0.00  0.00     0.117 A 
HETATM   14  C   UNK N   1      52.206  30.323  44.564  0.00  0.00     0.139 A 
HETATM   15  C   UNK N   1      51.968  30.370  43.162  0.00  0.00     0.138 A 
HETATM   16  C   UNK N   1      50.673  30.690  42.683  0.00  0.00     0.105 A 
HETATM   17  C   UNK N   1      49.647  30.957  43.600  0.00  0.00     0.057 A 
BRANCH  13  18
HETATM   18  O   UNK N   1      51.363  30.691  46.826  0.00  0.00    -0.352 OA
HETATM   19  C   UNK N   1      51.873  31.712  47.603  0.00  0.00     0.210 C 
ENDBRANCH  13  18
BRANCH  14  20
HETATM   20  O   UNK N   1      53.408  29.933  45.076  0.00  0.00    -0.351 OA
HETATM   21  C   UNK N   1      54.520  30.720  45.317  0.00  0.00     0.210 C 
ENDBRANCH  14  20
BRANCH  15  22
HETATM   22  O   UNK N   1      53.013  30.131  42.320  0.00  0.00    -0.351 OA
HETATM   23  C   UNK N   1      53.864  31.049  41.738  0.00  0.00     0.210 C 
ENDBRANCH  15  22
BRANCH  16  24
HETATM   24  O   UNK N   1      50.433  30.724  41.344  0.00  0.00    -0.353 OA
HETATM   25  C   UNK N   1      50.530  31.835  40.528  0.00  0.00     0.210 C 
ENDBRANCH  16  24
ENDBRANCH   4  12
BRANCH   6  26
HETATM   26  O   UNK N   1      44.513  31.804  48.672  0.00  0.00    -0.360 OA
HETATM   27  H   UNK N   1      43.779  31.709  48.047  0.00  0.00     0.217 HD
ENDBRANCH   6  26
BRANCH   7  28
HETATM   28  O   UNK N   1      46.896  35.879  49.241  0.00  0.00    -0.361 OA
HETATM   29  H   UNK N   1      46.350  36.615  48.930  0.00  0.00     0.217 HD
ENDBRANCH   7  28
TORSDOF 7
ENDMDL
MODEL 2
REMARK VINA RESULT:      -5.5      4.528      8.041
REMARK  7 active torsions:
REMARK  status: ('A' for Active; 'I' for Inactive)
REMARK    1  A    between atoms: O_3  and  C_12 
REMARK    2  A    between atoms: O_4  and  C_13 
REMARK    3  A    between atoms: O_5  and  C_14 
REMARK    4  A    between atoms: O_6  and  C_15 
REMARK    5  A    between atoms: O_7  and  C_16 
REMARK    6  A    between atoms: O_8  and  C_17 
REMARK    7  A    between atoms: C_10  and  C_19 
ROOT
HETATM    1  O   UNK N   1      48.248  32.898  49.454  0.00  0.00    -0.309 OA
HETATM    2  O   UNK N   1      44.506  34.188  49.657  0.00  0.00    -0.287 OA
HETATM    3  C   UNK N   1      47.512  32.854  48.349  0.00  0.00     0.095 A 
HETATM    4  C   UNK N   1      47.789  33.327  50.630  0.00  0.00     0.093 A 
HETATM    5  C   UNK N   1      45.651  33.780  49.579  0.00  0.00     0.190 A 
HETATM    6  C   UNK N   1      45.417  33.252  47.162  0.00  0.00     0.085 A 
HETATM    7  C   UNK N   1      47.328  32.297  45.995  0.00  0.00     0.071 A 
HETATM    8  C   UNK N   1      46.173  33.300  48.361  0.00  0.00     0.081 A 
HETATM    9  C   UNK N   1      46.460  33.787  50.716  0.00  0.00     0.094 A 
HETATM   10  C   UNK N   1      48.080  32.355  47.174  0.00  0.00     0.075 A 
HETATM   11  C   UNK N   1      46.006  32.748  45.990  0.00  0.00     0.074 A 
ENDROOT
BRANCH   4  12
HETATM   12  C   UNK N   1      48.744  33.308  51.792  0.00  0.00     0.037 A 
HETATM   13  C   UNK N   1      50.156  33.274  51.654  0.00  0.00     0.117 A 
HETATM   14  C   UNK N   1      50.978  33.306  52.819  0.00  0.00     0.139 A 
HETATM   15  C   UNK N   1      50.382  33.279  54.111  0.00  0.00     0.138 A 
HETATM   16  C   UNK N   1      48.971  33.299  54.231  0.00  0.00     0.105 A 
HETATM   17  C   UNK N   1      48.183  33.342  53.073  0.00  0.00     0.057 A 
BRANCH  13  18
HETATM   18  O   UNK N   1      50.683  33.245  50.396  0.00  0.00    -0.352 OA
HETATM   19  C   UNK N   1      51.387  32.227  49.785  0.00  0.00     0.210 C 
ENDBRANCH  13  18
BRANCH  14  20
HETATM   20  O   UNK N   1      52.330  33.380  52.652  0.00  0.00    -0.351 OA
HETATM   21  C   UNK N   1      53.114  34.518  52.604  0.00  0.00     0.210 C 
ENDBRANCH  14  20
BRANCH  15  22
HETATM   22  O   UNK N   1      51.201  33.208  55.199  0.00  0.00    -0.351 OA
HETATM   23  C   UNK N   1      51.646  32.077  55.856  0.00  0.00     0.210 C 
ENDBRANCH  15  22
BRANCH  16  24
HETATM   24  O   UNK N   1      48.393  33.287  55.463  0.00  0.00    -0.353 OA
HETATM   25  C   UNK N   1      47.871  32.183  56.106  0.00  0.00     0.210 C 
ENDBRANCH  16  24
ENDBRANCH   4  12
BRANCH   6  26
HETATM   26  O   UNK N   1      44.139  33.683  47.135  0.00  0.00    -0.360 OA
HETATM   27  H   UNK N   1      43.916  34.625  47.133  0.00  0.00     0.217 HD
ENDBRANCH   6  26
BRANCH   7  28
HETATM   28  O   UNK N   1      47.869  31.807  44.861  0.00  0.00    -0.361 OA
HETATM   29  H   UNK N   1      48.556  32.285  44.376  0.00  0.00     0.217 HD
ENDBRANCH   7  28
TORSDOF 7
ENDMDL
MODEL 3
REMARK VINA RESULT:      -5.3     25.958     29.564
REMARK  7 active torsions:
REMARK  status: ('A' for Active; 'I' for Inactive)
REMARK    1  A    between atoms: O_3  and  C_12 
REMARK    2  A    between atoms: O_4  and  C_13 
REMARK    3  A    between atoms: O_5  and  C_14 
REMARK    4  A    between atoms: O_6  and  C_15 
REMARK    5  A    between atoms: O_7  and  C_16 
REMARK    6  A    between atoms: O_8  and  C_17 
REMARK    7  A    between atoms: C_10  and  C_19 
ROOT
HETATM    1  O   UNK N   1      30.949  53.441  42.146  0.00  0.00    -0.309 OA
HETATM    2  O   UNK N   1      32.924  50.074  42.831  0.00  0.00    -0.287 OA
HETATM    3  C   UNK N   1      31.822  53.422  43.148  0.00  0.00     0.095 A 
HETATM    4  C   UNK N   1      30.683  52.384  41.378  0.00  0.00     0.093 A 
HETATM    5  C   UNK N   1      32.320  51.114  42.640  0.00  0.00     0.190 A 
HETATM    6  C   UNK N   1      33.487  52.266  44.506  0.00  0.00     0.085 A 
HETATM    7  C   UNK N   1      32.914  54.585  44.975  0.00  0.00     0.071 A 
HETATM    8  C   UNK N   1      32.554  52.252  43.439  0.00  0.00     0.081 A 
HETATM    9  C   UNK N   1      31.377  51.180  41.612  0.00  0.00     0.094 A 
HETATM   10  C   UNK N   1      32.001  54.577  43.914  0.00  0.00     0.075 A 
HETATM   11  C   UNK N   1      33.655  53.438  45.264  0.00  0.00     0.074 A 
ENDROOT
BRANCH   4  12
HETATM   12  C   UNK N   1      29.662  52.562  40.289  0.00  0.00     0.037 A 
HETATM   13  C   UNK N   1      29.691  53.619  39.343  0.00  0.00     0.117 A 
HETATM   14  C   UNK N   1      28.701  53.673  38.318  0.00  0.00     0.139 A 
HETATM   15  C   UNK N   1      27.640  52.724  38.301  0.00  0.00     0.138 A 
HETATM   16  C   UNK N   1      27.618  51.683  39.261  0.00  0.00     0.105 A 
HETATM   17  C   UNK N   1      28.642  51.606  40.216  0.00  0.00     0.057 A 
BRANCH  13  18
HETATM   18  O   UNK N   1      30.695  54.537  39.430  0.00  0.00    -0.352 OA
HETATM   19  C   UNK N   1      30.664  55.791  40.009  0.00  0.00     0.210 C 
ENDBRANCH  13  18
BRANCH  14  20
HETATM   20  O   UNK N   1      28.817  54.638  37.361  0.00  0.00    -0.351 OA
HETATM   21  C   UNK N   1      28.271  55.909  37.372  0.00  0.00     0.210 C 
ENDBRANCH  14  20
BRANCH  15  22
HETATM   22  O   UNK N   1      26.658  52.870  37.367  0.00  0.00    -0.351 OA
HETATM   23  C   UNK N   1      25.448  53.523  37.499  0.00  0.00     0.210 C 
ENDBRANCH  15  22
BRANCH  16  24
HETATM   24  O   UNK N   1      26.615  50.764  39.245  0.00  0.00    -0.353 OA
HETATM   25  C   UNK N   1      25.848  50.377  40.326  0.00  0.00     0.210 C 
ENDBRANCH  16  24
ENDBRANCH   4  12
BRANCH   6  26
HETATM   26  O   UNK N   1      34.214  51.169  44.802  0.00  0.00    -0.360 OA
HETATM   27  H   UNK N   1      34.106  50.694  45.639  0.00  0.00     0.217 HD
ENDBRANCH   6  26
BRANCH   7  28
HETATM   28  O   UNK N   1      33.084  55.694  45.723  0.00  0.00    -0.361 OA
HETATM   29  H   UNK N   1      33.787  55.760  46.384  0.00  0.00     0.217 HD
ENDBRANCH   7  28
TORSDOF 7
ENDMDL
MODEL 4
REMARK VINA RESULT:      -5.2      4.504      7.967
REMARK  7 active torsions:
REMARK  status: ('A' for Active; 'I' for Inactive)
REMARK    1  A    between atoms: O_3  and  C_12 
REMARK    2  A    between atoms: O_4  and  C_13 
REMARK    3  A    between atoms: O_5  and  C_14 
REMARK    4  A    between atoms: O_6  and  C_15 
REMARK    5  A    between atoms: O_7  and  C_16 
REMARK    6  A    between atoms: O_8  and  C_17 
REMARK    7  A    between atoms: C_10  and  C_19 
ROOT
HETATM    1  O   UNK N   1      48.411  32.766  49.354  0.00  0.00    -0.309 OA
HETATM    2  O   UNK N   1      44.675  34.036  49.717  0.00  0.00    -0.287 OA
HETATM    3  C   UNK N   1      47.634  32.736  48.277  0.00  0.00     0.095 A 
HETATM    4  C   UNK N   1      47.995  33.174  50.553  0.00  0.00     0.093 A 
HETATM    5  C   UNK N   1      45.817  33.634  49.589  0.00  0.00     0.190 A 
HETATM    6  C   UNK N   1      45.495  33.143  47.176  0.00  0.00     0.085 A 
HETATM    7  C   UNK N   1      47.364  32.214  45.922  0.00  0.00     0.071 A 
HETATM    8  C   UNK N   1      46.295  33.175  48.345  0.00  0.00     0.081 A 
HETATM    9  C   UNK N   1      46.668  33.627  50.696  0.00  0.00     0.094 A 
HETATM   10  C   UNK N   1      48.160  32.257  47.073  0.00  0.00     0.075 A 
HETATM   11  C   UNK N   1      46.042  32.660  45.974  0.00  0.00     0.074 A 
ENDROOT
BRANCH   4  12
HETATM   12  C   UNK N   1      48.993  33.141  51.678  0.00  0.00     0.037 A 
HETATM   13  C   UNK N   1      48.644  33.262  53.048  0.00  0.00     0.117 A 
HETATM   14  C   UNK N   1      49.660  33.170  54.044  0.00  0.00     0.139 A 
HETATM   15  C   UNK N   1      51.025  33.049  53.659  0.00  0.00     0.138 A 
HETATM   16  C   UNK N   1      51.358  32.943  52.286  0.00  0.00     0.105 A 
HETATM   17  C   UNK N   1      50.335  32.962  51.328  0.00  0.00     0.057 A 
BRANCH  13  18
HETATM   18  O   UNK N   1      47.329  33.431  53.369  0.00  0.00    -0.352 OA
HETATM   19  C   UNK N   1      46.704  34.561  53.858  0.00  0.00     0.210 C 
ENDBRANCH  13  18
BRANCH  14  20
HETATM   20  O   UNK N   1      49.282  33.183  55.354  0.00  0.00    -0.351 OA
HETATM   21  C   UNK N   1      48.921  32.104  56.141  0.00  0.00     0.210 C 
ENDBRANCH  14  20
BRANCH  15  22
HETATM   22  O   UNK N   1      51.976  33.066  54.636  0.00  0.00    -0.351 OA
HETATM   23  C   UNK N   1      52.627  34.161  55.170  0.00  0.00     0.210 C 
ENDBRANCH  15  22
BRANCH  16  24
HETATM   24  O   UNK N   1      52.659  32.814  51.910  0.00  0.00    -0.353 OA
HETATM   25  C   UNK N   1      53.413  33.764  51.249  0.00  0.00     0.210 C 
ENDBRANCH  16  24
ENDBRANCH   4  12
BRANCH   6  26
HETATM   26  O   UNK N   1      44.215  33.569  47.203  0.00  0.00    -0.360 OA
HETATM   27  H   UNK N   1      43.850  34.138  46.510  0.00  0.00     0.217 HD
ENDBRANCH   6  26
BRANCH   7  28
HETATM   28  O   UNK N   1      47.864  31.745  44.762  0.00  0.00    -0.361 OA
HETATM   29  H   UNK N   1      47.371  31.807  43.932  0.00  0.00     0.217 HD
ENDBRANCH   7  28
TORSDOF 7
ENDMDL
MODEL 5
REMARK VINA RESULT:      -4.8     24.226     28.080
REMARK  7 active torsions:
REMARK  status: ('A' for Active; 'I' for Inactive)
REMARK    1  A    between atoms: O_3  and  C_12 
REMARK    2  A    between atoms: O_4  and  C_13 
REMARK    3  A    between atoms: O_5  and  C_14 
REMARK    4  A    between atoms: O_6  and  C_15 
REMARK    5  A    between atoms: O_7  and  C_16 
REMARK    6  A    between atoms: O_8  and  C_17 
REMARK    7  A    between atoms: C_10  and  C_19 
ROOT
HETATM    1  O   UNK N   1      30.602  45.256  59.722  0.00  0.00    -0.309 OA
HETATM    2  O   UNK N   1      32.881  43.171  57.239  0.00  0.00    -0.287 OA
HETATM    3  C   UNK N   1      31.367  44.298  60.232  0.00  0.00     0.095 A 
HETATM    4  C   UNK N   1      30.540  45.537  58.419  0.00  0.00     0.093 A 
HETATM    5  C   UNK N   1      32.181  43.796  58.015  0.00  0.00     0.190 A 
HETATM    6  C   UNK N   1      33.012  42.515  59.974  0.00  0.00     0.085 A 
HETATM    7  C   UNK N   1      32.127  43.059  62.175  0.00  0.00     0.071 A 
HETATM    8  C   UNK N   1      32.199  43.523  59.397  0.00  0.00     0.081 A 
HETATM    9  C   UNK N   1      31.344  44.801  57.525  0.00  0.00     0.094 A 
HETATM   10  C   UNK N   1      31.332  44.063  61.610  0.00  0.00     0.075 A 
HETATM   11  C   UNK N   1      32.965  42.295  61.361  0.00  0.00     0.074 A 
ENDROOT
BRANCH   4  12
HETATM   12  C   UNK N   1      29.619  46.647  57.995  0.00  0.00     0.037 A 
HETATM   13  C   UNK N   1      28.204  46.539  57.986  0.00  0.00     0.117 A 
HETATM   14  C   UNK N   1      27.415  47.667  57.611  0.00  0.00     0.139 A 
HETATM   15  C   UNK N   1      28.047  48.861  57.163  0.00  0.00     0.138 A 
HETATM   16  C   UNK N   1      29.461  48.946  57.165  0.00  0.00     0.105 A 
HETATM   17  C   UNK N   1      30.216  47.851  57.607  0.00  0.00     0.057 A 
BRANCH  13  18
HETATM   18  O   UNK N   1      27.642  45.358  58.372  0.00  0.00    -0.352 OA
HETATM   19  C   UNK N   1      27.223  44.308  57.579  0.00  0.00     0.210 C 
ENDBRANCH  13  18
BRANCH  14  20
HETATM   20  O   UNK N   1      26.059  47.567  57.714  0.00  0.00    -0.351 OA
HETATM   21  C   UNK N   1      25.275  47.814  58.827  0.00  0.00     0.210 C 
ENDBRANCH  14  20
BRANCH  15  22
HETATM   22  O   UNK N   1      27.260  49.880  56.717  0.00  0.00    -0.351 OA
HETATM   23  C   UNK N   1      26.738  50.933  57.443  0.00  0.00     0.210 C 
ENDBRANCH  15  22
BRANCH  16  24
HETATM   24  O   UNK N   1      30.074  50.088  56.750  0.00  0.00    -0.353 OA
HETATM   25  C   UNK N   1      31.006  50.190  55.736  0.00  0.00     0.210 C 
ENDBRANCH  16  24
ENDBRANCH   4  12
BRANCH   6  26
HETATM   26  O   UNK N   1      33.830  41.765  59.206  0.00  0.00    -0.360 OA
HETATM   27  H   UNK N   1      33.515  41.320  58.406  0.00  0.00     0.217 HD
ENDBRANCH   6  26
BRANCH   7  28
HETATM   28  O   UNK N   1      32.090  42.823  63.502  0.00  0.00    -0.361 OA
HETATM   29  H   UNK N   1      31.334  42.388  63.922  0.00  0.00     0.217 HD
ENDBRANCH   7  28
TORSDOF 7
ENDMDL
MODEL 6
REMARK VINA RESULT:      -4.8     14.220     18.526
REMARK  7 active torsions:
REMARK  status: ('A' for Active; 'I' for Inactive)
REMARK    1  A    between atoms: O_3  and  C_12 
REMARK    2  A    between atoms: O_4  and  C_13 
REMARK    3  A    between atoms: O_5  and  C_14 
REMARK    4  A    between atoms: O_6  and  C_15 
REMARK    5  A    between atoms: O_7  and  C_16 
REMARK    6  A    between atoms: O_8  and  C_17 
REMARK    7  A    between atoms: C_10  and  C_19 
ROOT
HETATM    1  O   UNK N   1      39.374  47.354  45.319  0.00  0.00    -0.309 OA
HETATM    2  O   UNK N   1      41.887  50.338  44.623  0.00  0.00    -0.287 OA
HETATM    3  C   UNK N   1      38.982  48.321  44.498  0.00  0.00     0.095 A 
HETATM    4  C   UNK N   1      40.554  47.346  45.941  0.00  0.00     0.093 A 
HETATM    5  C   UNK N   1      41.099  49.434  44.833  0.00  0.00     0.190 A 
HETATM    6  C   UNK N   1      39.391  50.419  43.321  0.00  0.00     0.085 A 
HETATM    7  C   UNK N   1      37.271  49.254  43.053  0.00  0.00     0.071 A 
HETATM    8  C   UNK N   1      39.834  49.409  44.212  0.00  0.00     0.081 A 
HETATM    9  C   UNK N   1      41.456  48.403  45.704  0.00  0.00     0.094 A 
HETATM   10  C   UNK N   1      37.710  48.249  43.923  0.00  0.00     0.075 A 
HETATM   11  C   UNK N   1      38.110  50.329  42.752  0.00  0.00     0.074 A 
ENDROOT
BRANCH   4  12
HETATM   12  C   UNK N   1      40.849  46.184  46.849  0.00  0.00     0.037 A 
HETATM   13  C   UNK N   1      41.050  44.855  46.391  0.00  0.00     0.117 A 
HETATM   14  C   UNK N   1      41.371  43.830  47.329  0.00  0.00     0.139 A 
HETATM   15  C   UNK N   1      41.399  44.121  48.722  0.00  0.00     0.138 A 
HETATM   16  C   UNK N   1      41.182  45.450  49.162  0.00  0.00     0.105 A 
HETATM   17  C   UNK N   1      40.940  46.457  48.217  0.00  0.00     0.057 A 
BRANCH  13  18
HETATM   18  O   UNK N   1      40.960  44.611  45.053  0.00  0.00    -0.352 OA
HETATM   19  C   UNK N   1      41.983  44.495  44.132  0.00  0.00     0.210 C 
ENDBRANCH  13  18
BRANCH  14  20
HETATM   20  O   UNK N   1      41.664  42.587  46.849  0.00  0.00    -0.351 OA
HETATM   21  C   UNK N   1      42.904  42.088  46.495  0.00  0.00     0.210 C 
ENDBRANCH  14  20
BRANCH  15  22
HETATM   22  O   UNK N   1      41.609  43.094  49.593  0.00  0.00    -0.351 OA
HETATM   23  C   UNK N   1      40.845  42.736  50.686  0.00  0.00     0.210 C 
ENDBRANCH  15  22
BRANCH  16  24
HETATM   24  O   UNK N   1      41.219  45.740  50.491  0.00  0.00    -0.353 OA
HETATM   25  C   UNK N   1      42.356  45.871  51.264  0.00  0.00     0.210 C 
ENDBRANCH  16  24
ENDBRANCH   4  12
BRANCH   6  26
HETATM   26  O   UNK N   1      40.186  51.466  43.016  0.00  0.00    -0.360 OA
HETATM   27  H   UNK N   1      40.295  52.218  43.617  0.00  0.00     0.217 HD
ENDBRANCH   6  26
BRANCH   7  28
HETATM   28  O   UNK N   1      36.041  49.194  42.503  0.00  0.00    -0.361 OA
HETATM   29  H   UNK N   1      35.458  49.966  42.471  0.00  0.00     0.217 HD
ENDBRANCH   7  28
TORSDOF 7
ENDMDL
MODEL 7
REMARK VINA RESULT:      -4.8     23.405     28.101
REMARK  7 active torsions:
REMARK  status: ('A' for Active; 'I' for Inactive)
REMARK    1  A    between atoms: O_3  and  C_12 
REMARK    2  A    between atoms: O_4  and  C_13 
REMARK    3  A    between atoms: O_5  and  C_14 
REMARK    4  A    between atoms: O_6  and  C_15 
REMARK    5  A    between atoms: O_7  and  C_16 
REMARK    6  A    between atoms: O_8  and  C_17 
REMARK    7  A    between atoms: C_10  and  C_19 
ROOT
HETATM    1  O   UNK N   1      29.600  47.901  58.706  0.00  0.00    -0.309 OA
HETATM    2  O   UNK N   1      25.986  47.387  57.163  0.00  0.00    -0.287 OA
HETATM    3  C   UNK N   1      28.853  48.979  58.494  0.00  0.00     0.095 A 
HETATM    4  C   UNK N   1      29.211  46.662  58.404  0.00  0.00     0.093 A 
HETATM    5  C   UNK N   1      27.097  47.564  57.630  0.00  0.00     0.190 A 
HETATM    6  C   UNK N   1      26.780  50.025  57.745  0.00  0.00     0.085 A 
HETATM    7  C   UNK N   1      28.604  51.390  58.604  0.00  0.00     0.071 A 
HETATM    8  C   UNK N   1      27.558  48.858  57.947  0.00  0.00     0.081 A 
HETATM    9  C   UNK N   1      27.929  46.466  57.853  0.00  0.00     0.094 A 
HETATM   10  C   UNK N   1      29.369  50.238  58.816  0.00  0.00     0.075 A 
HETATM   11  C   UNK N   1      27.315  51.282  58.076  0.00  0.00     0.074 A 
ENDROOT
BRANCH   4  12
HETATM   12  C   UNK N   1      30.175  45.546  58.697  0.00  0.00     0.037 A 
HETATM   13  C   UNK N   1      30.423  45.035  59.997  0.00  0.00     0.117 A 
HETATM   14  C   UNK N   1      31.322  43.941  60.164  0.00  0.00     0.139 A 
HETATM   15  C   UNK N   1      32.034  43.427  59.044  0.00  0.00     0.138 A 
HETATM   16  C   UNK N   1      31.785  43.958  57.755  0.00  0.00     0.105 A 
HETATM   17  C   UNK N   1      30.842  44.984  57.603  0.00  0.00     0.057 A 
BRANCH  13  18
HETATM   18  O   UNK N   1      29.759  45.594  61.049  0.00  0.00    -0.352 OA
HETATM   19  C   UNK N   1      30.198  46.575  61.917  0.00  0.00     0.210 C 
ENDBRANCH  13  18
BRANCH  14  20
HETATM   20  O   UNK N   1      31.458  43.403  61.411  0.00  0.00    -0.351 OA
HETATM   21  C   UNK N   1      30.819  42.291  61.925  0.00  0.00     0.210 C 
ENDBRANCH  14  20
BRANCH  15  22
HETATM   22  O   UNK N   1      32.960  42.450  59.260  0.00  0.00    -0.351 OA
HETATM   23  C   UNK N   1      34.293  42.598  59.589  0.00  0.00     0.210 C 
ENDBRANCH  15  22
BRANCH  16  24
HETATM   24  O   UNK N   1      32.452  43.464  56.676  0.00  0.00    -0.353 OA
HETATM   25  C   UNK N   1      31.923  42.645  55.697  0.00  0.00     0.210 C 
ENDBRANCH  16  24
ENDBRANCH   4  12
BRANCH   6  26
HETATM   26  O   UNK N   1      25.533  49.944  57.236  0.00  0.00    -0.360 OA
HETATM   27  H   UNK N   1      25.371  49.897  56.283  0.00  0.00     0.217 HD
ENDBRANCH   6  26
BRANCH   7  28
HETATM   28  O   UNK N   1      29.101  52.607  58.904  0.00  0.00    -0.361 OA
HETATM   29  H   UNK N   1      29.574  52.774  59.731  0.00  0.00     0.217 HD
ENDBRANCH   7  28
TORSDOF 7
ENDMDL
MODEL 8
REMARK VINA RESULT:      -4.7     23.369     25.352
REMARK  7 active torsions:
REMARK  status: ('A' for Active; 'I' for Inactive)
REMARK    1  A    between atoms: O_3  and  C_12 
REMARK    2  A    between atoms: O_4  and  C_13 
REMARK    3  A    between atoms: O_5  and  C_14 
REMARK    4  A    between atoms: O_6  and  C_15 
REMARK    5  A    between atoms: O_7  and  C_16 
REMARK    6  A    between atoms: O_8  and  C_17 
REMARK    7  A    between atoms: C_10  and  C_19 
ROOT
HETATM    1  O   UNK N   1      28.748  42.433  56.184  0.00  0.00    -0.309 OA
HETATM    2  O   UNK N   1      32.648  42.932  55.692  0.00  0.00    -0.287 OA
HETATM    3  C   UNK N   1      29.356  43.357  56.919  0.00  0.00     0.095 A 
HETATM    4  C   UNK N   1      29.382  41.648  55.311  0.00  0.00     0.093 A 
HETATM    5  C   UNK N   1      31.452  42.786  55.862  0.00  0.00     0.190 A 
HETATM    6  C   UNK N   1      31.361  44.582  57.576  0.00  0.00     0.085 A 
HETATM    7  C   UNK N   1      29.219  45.085  58.617  0.00  0.00     0.071 A 
HETATM    8  C   UNK N   1      30.743  43.580  56.787  0.00  0.00     0.081 A 
HETATM    9  C   UNK N   1      30.769  41.814  55.128  0.00  0.00     0.094 A 
HETATM   10  C   UNK N   1      28.604  44.104  57.830  0.00  0.00     0.075 A 
HETATM   11  C   UNK N   1      30.588  45.324  58.486  0.00  0.00     0.074 A 
ENDROOT
BRANCH   4  12
HETATM   12  C   UNK N   1      28.554  40.642  54.561  0.00  0.00     0.037 A 
HETATM   13  C   UNK N   1      27.828  40.940  53.378  0.00  0.00     0.117 A 
HETATM   14  C   UNK N   1      27.110  39.903  52.713  0.00  0.00     0.139 A 
HETATM   15  C   UNK N   1      27.049  38.600  53.283  0.00  0.00     0.138 A 
HETATM   16  C   UNK N   1      27.769  38.323  54.471  0.00  0.00     0.105 A 
HETATM   17  C   UNK N   1      28.528  39.339  55.069  0.00  0.00     0.057 A 
BRANCH  13  18
HETATM   18  O   UNK N   1      27.870  42.215  52.897  0.00  0.00    -0.352 OA
HETATM   19  C   UNK N   1      28.753  42.759  51.986  0.00  0.00     0.210 C 
ENDBRANCH  13  18
BRANCH  14  20
HETATM   20  O   UNK N   1      26.510  40.195  51.523  0.00  0.00    -0.351 OA
HETATM   21  C   UNK N   1      25.247  40.720  51.320  0.00  0.00     0.210 C 
ENDBRANCH  14  20
BRANCH  15  22
HETATM   22  O   UNK N   1      26.270  37.663  52.672  0.00  0.00    -0.351 OA
HETATM   23  C   UNK N   1      24.951  37.351  52.934  0.00  0.00     0.210 C 
ENDBRANCH  15  22
BRANCH  16  24
HETATM   24  O   UNK N   1      27.727  37.077  55.017  0.00  0.00    -0.353 OA
HETATM   25  C   UNK N   1      28.513  36.615  56.054  0.00  0.00     0.210 C 
ENDBRANCH  16  24
ENDBRANCH   4  12
BRANCH   6  26
HETATM   26  O   UNK N   1      32.683  44.830  57.465  0.00  0.00    -0.360 OA
HETATM   27  H   UNK N   1      33.225  45.068  58.232  0.00  0.00     0.217 HD
ENDBRANCH   6  26
BRANCH   7  28
HETATM   28  O   UNK N   1      28.499  45.801  59.504  0.00  0.00    -0.361 OA
HETATM   29  H   UNK N   1      28.394  46.760  59.419  0.00  0.00     0.217 HD
ENDBRANCH   7  28
TORSDOF 7
ENDMDL
MODEL 9
REMARK VINA RESULT:      -4.7     23.333     28.163
REMARK  7 active torsions:
REMARK  status: ('A' for Active; 'I' for Inactive)
REMARK    1  A    between atoms: O_3  and  C_12 
REMARK    2  A    between atoms: O_4  and  C_13 
REMARK    3  A    between atoms: O_5  and  C_14 
REMARK    4  A    between atoms: O_6  and  C_15 
REMARK    5  A    between atoms: O_7  and  C_16 
REMARK    6  A    between atoms: O_8  and  C_17 
REMARK    7  A    between atoms: C_10  and  C_19 
ROOT
HETATM    1  O   UNK N   1      28.239  46.917  58.189  0.00  0.00    -0.309 OA
HETATM    2  O   UNK N   1      29.805  50.063  56.359  0.00  0.00    -0.287 OA
HETATM    3  C   UNK N   1      27.420  47.897  57.823  0.00  0.00     0.095 A 
HETATM    4  C   UNK N   1      29.558  46.946  57.999  0.00  0.00     0.093 A 
HETATM    5  C   UNK N   1      29.309  49.108  56.928  0.00  0.00     0.190 A 
HETATM    6  C   UNK N   1      27.021  50.065  56.777  0.00  0.00     0.085 A 
HETATM    7  C   UNK N   1      25.170  48.799  57.725  0.00  0.00     0.071 A 
HETATM    8  C   UNK N   1      27.921  49.042  57.167  0.00  0.00     0.081 A 
HETATM    9  C   UNK N   1      30.128  48.060  57.351  0.00  0.00     0.094 A 
HETATM   10  C   UNK N   1      26.055  47.782  58.100  0.00  0.00     0.075 A 
HETATM   11  C   UNK N   1      25.651  49.931  57.063  0.00  0.00     0.074 A 
ENDROOT
BRANCH   4  12
HETATM   12  C   UNK N   1      30.351  45.762  58.479  0.00  0.00     0.037 A 
HETATM   13  C   UNK N   1      30.389  45.332  59.830  0.00  0.00     0.117 A 
HETATM   14  C   UNK N   1      31.135  44.167  60.177  0.00  0.00     0.139 A 
HETATM   15  C   UNK N   1      31.908  43.496  59.188  0.00  0.00     0.138 A 
HETATM   16  C   UNK N   1      31.870  43.947  57.846  0.00  0.00     0.105 A 
HETATM   17  C   UNK N   1      31.072  45.051  57.514  0.00  0.00     0.057 A 
BRANCH  13  18
HETATM   18  O   UNK N   1      29.676  46.037  60.754  0.00  0.00    -0.352 OA
HETATM   19  C   UNK N   1      30.132  46.987  61.646  0.00  0.00     0.210 C 
ENDBRANCH  13  18
BRANCH  14  20
HETATM   20  O   UNK N   1      31.066  43.716  61.462  0.00  0.00    -0.351 OA
HETATM   21  C   UNK N   1      30.192  42.781  61.985  0.00  0.00     0.210 C 
ENDBRANCH  14  20
BRANCH  15  22
HETATM   22  O   UNK N   1      32.688  42.447  59.578  0.00  0.00    -0.351 OA
HETATM   23  C   UNK N   1      33.996  42.478  60.020  0.00  0.00     0.210 C 
ENDBRANCH  15  22
BRANCH  16  24
HETATM   24  O   UNK N   1      32.596  43.304  56.891  0.00  0.00    -0.353 OA
HETATM   25  C   UNK N   1      32.088  42.618  55.806  0.00  0.00     0.210 C 
ENDBRANCH  16  24
ENDBRANCH   4  12
BRANCH   6  26
HETATM   26  O   UNK N   1      27.464  51.167  56.137  0.00  0.00    -0.360 OA
HETATM   27  H   UNK N   1      27.092  51.451  55.289  0.00  0.00     0.217 HD
ENDBRANCH   6  26
BRANCH   7  28
HETATM   28  O   UNK N   1      23.854  48.697  57.998  0.00  0.00    -0.361 OA
HETATM   29  H   UNK N   1      23.195  48.583  57.299  0.00  0.00     0.217 HD
ENDBRANCH   7  28
TORSDOF 7
ENDMDL
