MODEL 1
REMARK VINA RESULT:      -6.8      0.000      0.000
REMARK  7 active torsions:
REMARK  status: ('A' for Active; 'I' for Inactive)
REMARK    1  A    between atoms: O_3  and  C_10 
REMARK    2  A    between atoms: O_4  and  C_11 
REMARK    3  A    between atoms: O_5  and  C_12 
REMARK    4  A    between atoms: O_6  and  C_13 
REMARK    5  A    between atoms: C_15  and  C_16 
REMARK    6  A    between atoms: C_17  and  C_23 
REMARK    7  A    between atoms: C_24  and  C_25 
ROOT
HETATM    1  O   UNK N   1      41.120  49.701  45.113  0.00  0.00    -0.321 OA
HETATM    2  O   UNK N   1      38.074  47.169  44.729  0.00  0.00    -0.286 OA
HETATM    3  C   UNK N   1      40.185  49.975  44.211  0.00  0.00     0.094 A 
HETATM    4  C   UNK N   1      41.085  48.612  45.867  0.00  0.00     0.159 A 
HETATM    5  C   UNK N   1      38.999  47.955  44.845  0.00  0.00     0.200 A 
HETATM    6  C   UNK N   1      38.136  49.397  43.012  0.00  0.00     0.085 A 
HETATM    7  C   UNK N   1      39.365  51.427  42.453  0.00  0.00     0.071 A 
HETATM    8  C   UNK N   1      39.087  49.102  44.021  0.00  0.00     0.082 A 
HETATM    9  C   UNK N   1      40.021  47.706  45.778  0.00  0.00     0.048 A 
HETATM   10  C   UNK N   1      40.308  51.131  43.437  0.00  0.00     0.074 A 
HETATM   11  C   UNK N   1      38.288  50.559  42.236  0.00  0.00     0.074 A 
ENDROOT
BRANCH   9  12
HETATM   12  C   UNK N   1      40.021  46.505  46.645  0.00  0.00    -0.017 A 
HETATM   13  C   UNK N   1      39.063  46.328  47.645  0.00  0.00     0.052 A 
HETATM   14  C   UNK N   1      39.120  45.218  48.501  0.00  0.00     0.100 A 
HETATM   15  C   UNK N   1      40.136  44.233  48.322  0.00  0.00     0.111 A 
HETATM   16  C   UNK N   1      41.072  44.391  47.270  0.00  0.00     0.001 A 
HETATM   17  C   UNK N   1      41.014  45.543  46.465  0.00  0.00     0.027 A 
BRANCH  14  18
HETATM   18  O   UNK N   1      38.207  45.105  49.486  0.00  0.00    -0.358 OA
HETATM   19  H   UNK N   1      37.257  45.198  49.321  0.00  0.00     0.218 HD
ENDBRANCH  14  18
BRANCH  15  20
HETATM   20  O   UNK N   1      40.241  43.125  49.114  0.00  0.00    -0.352 OA
HETATM   21  C   UNK N   1      40.815  43.042  50.365  0.00  0.00     0.210 C 
ENDBRANCH  15  20
BRANCH  16  22
HETATM   22  C   UNK N   1      42.118  43.345  47.025  0.00  0.00     0.015 C 
HETATM   23  C   UNK N   1      42.399  42.872  45.788  0.00  0.00     0.007 C 
BRANCH  23  24
HETATM   24  C   UNK N   1      43.433  41.836  45.516  0.00  0.00    -0.071 C 
HETATM   25  C   UNK N   1      43.341  40.648  46.138  0.00  0.00     0.018 C 
HETATM   26  C   UNK N   1      44.560  42.088  44.548  0.00  0.00     0.047 C 
ENDBRANCH  23  24
ENDBRANCH  16  22
ENDBRANCH   9  12
BRANCH   6  27
HETATM   27  O   UNK N   1      37.097  48.568  42.777  0.00  0.00    -0.360 OA
HETATM   28  H   UNK N   1      36.179  48.867  42.841  0.00  0.00     0.217 HD
ENDBRANCH   6  27
BRANCH   7  29
HETATM   29  O   UNK N   1      39.508  52.545  41.713  0.00  0.00    -0.361 OA
HETATM   30  H   UNK N   1      39.201  52.592  40.797  0.00  0.00     0.217 HD
ENDBRANCH   7  29
TORSDOF 7
ENDMDL
MODEL 2
REMARK VINA RESULT:      -5.7     16.266     19.034
REMARK  7 active torsions:
REMARK  status: ('A' for Active; 'I' for Inactive)
REMARK    1  A    between atoms: O_3  and  C_10 
REMARK    2  A    between atoms: O_4  and  C_11 
REMARK    3  A    between atoms: O_5  and  C_12 
REMARK    4  A    between atoms: O_6  and  C_13 
REMARK    5  A    between atoms: C_15  and  C_16 
REMARK    6  A    between atoms: C_17  and  C_23 
REMARK    7  A    between atoms: C_24  and  C_25 
ROOT
HETATM    1  O   UNK N   1      32.765  43.418  62.960  0.00  0.00    -0.321 OA
HETATM    2  O   UNK N   1      35.810  44.064  60.481  0.00  0.00    -0.286 OA
HETATM    3  C   UNK N   1      32.757  42.806  61.782  0.00  0.00     0.094 A 
HETATM    4  C   UNK N   1      33.733  44.246  63.326  0.00  0.00     0.159 A 
HETATM    5  C   UNK N   1      34.877  43.853  61.237  0.00  0.00     0.200 A 
HETATM    6  C   UNK N   1      33.739  42.384  59.585  0.00  0.00     0.085 A 
HETATM    7  C   UNK N   1      31.627  41.342  60.216  0.00  0.00     0.071 A 
HETATM    8  C   UNK N   1      33.807  43.010  60.854  0.00  0.00     0.082 A 
HETATM    9  C   UNK N   1      34.832  44.485  62.492  0.00  0.00     0.048 A 
HETATM   10  C   UNK N   1      31.687  41.967  61.461  0.00  0.00     0.074 A 
HETATM   11  C   UNK N   1      32.645  41.556  59.278  0.00  0.00     0.074 A 
ENDROOT
BRANCH   9  12
HETATM   12  C   UNK N   1      35.894  45.414  62.946  0.00  0.00    -0.017 A 
HETATM   13  C   UNK N   1      37.210  44.985  63.122  0.00  0.00     0.052 A 
HETATM   14  C   UNK N   1      38.186  45.863  63.618  0.00  0.00     0.100 A 
HETATM   15  C   UNK N   1      37.847  47.219  63.900  0.00  0.00     0.111 A 
HETATM   16  C   UNK N   1      36.522  47.661  63.665  0.00  0.00     0.001 A 
HETATM   17  C   UNK N   1      35.558  46.739  63.218  0.00  0.00     0.027 A 
BRANCH  14  18
HETATM   18  O   UNK N   1      39.437  45.400  63.822  0.00  0.00    -0.358 OA
HETATM   19  H   UNK N   1      40.055  45.837  64.426  0.00  0.00     0.218 HD
ENDBRANCH  14  18
BRANCH  15  20
HETATM   20  O   UNK N   1      38.753  48.125  64.375  0.00  0.00    -0.352 OA
HETATM   21  C   UNK N   1      39.169  48.288  65.679  0.00  0.00     0.210 C 
ENDBRANCH  15  20
BRANCH  16  22
HETATM   22  C   UNK N   1      36.150  49.094  63.903  0.00  0.00     0.015 C 
HETATM   23  C   UNK N   1      34.868  49.528  63.871  0.00  0.00     0.007 C 
BRANCH  23  24
HETATM   24  C   UNK N   1      34.470  50.944  64.105  0.00  0.00    -0.071 C 
HETATM   25  C   UNK N   1      34.231  51.734  63.045  0.00  0.00     0.018 C 
HETATM   26  C   UNK N   1      34.312  51.494  65.499  0.00  0.00     0.047 C 
ENDBRANCH  23  24
ENDBRANCH  16  22
ENDBRANCH   9  12
BRANCH   6  27
HETATM   27  O   UNK N   1      34.702  42.587  58.661  0.00  0.00    -0.360 OA
HETATM   28  H   UNK N   1      35.619  42.770  58.910  0.00  0.00     0.217 HD
ENDBRANCH   6  27
BRANCH   7  29
HETATM   29  O   UNK N   1      30.581  40.543  59.926  0.00  0.00    -0.361 OA
HETATM   30  H   UNK N   1      30.078  40.640  59.104  0.00  0.00     0.217 HD
ENDBRANCH   7  29
TORSDOF 7
ENDMDL
MODEL 3
REMARK VINA RESULT:      -5.5     10.101     15.014
REMARK  7 active torsions:
REMARK  status: ('A' for Active; 'I' for Inactive)
REMARK    1  A    between atoms: O_3  and  C_10 
REMARK    2  A    between atoms: O_4  and  C_11 
REMARK    3  A    between atoms: O_5  and  C_12 
REMARK    4  A    between atoms: O_6  and  C_13 
REMARK    5  A    between atoms: C_15  and  C_16 
REMARK    6  A    between atoms: C_17  and  C_23 
REMARK    7  A    between atoms: C_24  and  C_25 
ROOT
HETATM    1  O   UNK N   1      32.039  50.772  41.901  0.00  0.00    -0.321 OA
HETATM    2  O   UNK N   1      30.215  54.289  42.274  0.00  0.00    -0.286 OA
HETATM    3  C   UNK N   1      32.389  51.558  42.913  0.00  0.00     0.094 A 
HETATM    4  C   UNK N   1      31.126  51.125  41.008  0.00  0.00     0.159 A 
HETATM    5  C   UNK N   1      30.773  53.210  42.174  0.00  0.00     0.200 A 
HETATM    6  C   UNK N   1      32.221  53.661  44.144  0.00  0.00     0.085 A 
HETATM    7  C   UNK N   1      33.799  51.940  44.845  0.00  0.00     0.071 A 
HETATM    8  C   UNK N   1      31.784  52.826  43.086  0.00  0.00     0.082 A 
HETATM    9  C   UNK N   1      30.446  52.345  41.114  0.00  0.00     0.048 A 
HETATM   10  C   UNK N   1      33.379  51.123  43.797  0.00  0.00     0.074 A 
HETATM   11  C   UNK N   1      33.229  53.209  45.013  0.00  0.00     0.074 A 
ENDROOT
BRANCH   9  12
HETATM   12  C   UNK N   1      29.429  52.696  40.095  0.00  0.00    -0.017 A 
HETATM   13  C   UNK N   1      29.567  53.825  39.287  0.00  0.00     0.052 A 
HETATM   14  C   UNK N   1      28.560  54.178  38.376  0.00  0.00     0.100 A 
HETATM   15  C   UNK N   1      27.405  53.352  38.236  0.00  0.00     0.111 A 
HETATM   16  C   UNK N   1      27.299  52.178  39.020  0.00  0.00     0.001 A 
HETATM   17  C   UNK N   1      28.303  51.884  39.960  0.00  0.00     0.027 A 
BRANCH  14  18
HETATM   18  O   UNK N   1      28.704  55.303  37.646  0.00  0.00    -0.358 OA
HETATM   19  H   UNK N   1      28.027  55.995  37.627  0.00  0.00     0.218 HD
ENDBRANCH  14  18
BRANCH  15  20
HETATM   20  O   UNK N   1      26.395  53.635  37.361  0.00  0.00    -0.352 OA
HETATM   21  C   UNK N   1      25.261  54.381  37.604  0.00  0.00     0.210 C 
ENDBRANCH  15  20
BRANCH  16  22
HETATM   22  C   UNK N   1      26.122  51.263  38.856  0.00  0.00     0.015 C 
HETATM   23  C   UNK N   1      25.854  50.258  39.723  0.00  0.00     0.007 C 
BRANCH  23  24
HETATM   24  C   UNK N   1      24.692  49.337  39.585  0.00  0.00    -0.071 C 
HETATM   25  C   UNK N   1      23.508  49.704  40.103  0.00  0.00     0.018 C 
HETATM   26  C   UNK N   1      24.817  48.021  38.860  0.00  0.00     0.047 C 
ENDBRANCH  23  24
ENDBRANCH  16  22
ENDBRANCH   9  12
BRANCH   6  27
HETATM   27  O   UNK N   1      31.694  54.892  44.316  0.00  0.00    -0.360 OA
HETATM   28  H   UNK N   1      32.250  55.674  44.441  0.00  0.00     0.217 HD
ENDBRANCH   6  27
BRANCH   7  29
HETATM   29  O   UNK N   1      34.761  51.503  45.682  0.00  0.00    -0.361 OA
HETATM   30  H   UNK N   1      35.543  51.032  45.359  0.00  0.00     0.217 HD
ENDBRANCH   7  29
TORSDOF 7
ENDMDL
MODEL 4
REMARK VINA RESULT:      -5.3     14.632     16.584
REMARK  7 active torsions:
REMARK  status: ('A' for Active; 'I' for Inactive)
REMARK    1  A    between atoms: O_3  and  C_10 
REMARK    2  A    between atoms: O_4  and  C_11 
REMARK    3  A    between atoms: O_5  and  C_12 
REMARK    4  A    between atoms: O_6  and  C_13 
REMARK    5  A    between atoms: C_15  and  C_16 
REMARK    6  A    between atoms: C_17  and  C_23 
REMARK    7  A    between atoms: C_24  and  C_25 
ROOT
HETATM    1  O   UNK N   1      28.930  48.195  60.493  0.00  0.00    -0.321 OA
HETATM    2  O   UNK N   1      30.837  46.705  57.334  0.00  0.00    -0.286 OA
HETATM    3  C   UNK N   1      29.122  48.986  59.444  0.00  0.00     0.094 A 
HETATM    4  C   UNK N   1      29.367  46.945  60.532  0.00  0.00     0.159 A 
HETATM    5  C   UNK N   1      30.244  47.168  58.294  0.00  0.00     0.200 A 
HETATM    6  C   UNK N   1      30.042  49.401  57.219  0.00  0.00     0.085 A 
HETATM    7  C   UNK N   1      28.873  51.169  58.424  0.00  0.00     0.071 A 
HETATM    8  C   UNK N   1      29.807  48.513  58.299  0.00  0.00     0.082 A 
HETATM    9  C   UNK N   1      30.024  46.375  59.434  0.00  0.00     0.048 A 
HETATM   10  C   UNK N   1      28.652  50.301  59.492  0.00  0.00     0.074 A 
HETATM   11  C   UNK N   1      29.573  50.724  57.295  0.00  0.00     0.074 A 
ENDROOT
BRANCH   9  12
HETATM   12  C   UNK N   1      30.490  44.971  59.521  0.00  0.00    -0.017 A 
HETATM   13  C   UNK N   1      31.209  44.509  60.624  0.00  0.00     0.052 A 
HETATM   14  C   UNK N   1      31.701  43.195  60.656  0.00  0.00     0.100 A 
HETATM   15  C   UNK N   1      31.425  42.305  59.576  0.00  0.00     0.111 A 
HETATM   16  C   UNK N   1      30.647  42.766  58.486  0.00  0.00     0.001 A 
HETATM   17  C   UNK N   1      30.216  44.104  58.464  0.00  0.00     0.027 A 
BRANCH  14  18
HETATM   18  O   UNK N   1      32.433  42.798  61.717  0.00  0.00    -0.358 OA
HETATM   19  H   UNK N   1      33.221  43.281  62.008  0.00  0.00     0.218 HD
ENDBRANCH  14  18
BRANCH  15  20
HETATM   20  O   UNK N   1      31.866  41.012  59.551  0.00  0.00    -0.352 OA
HETATM   21  C   UNK N   1      31.402  39.954  60.305  0.00  0.00     0.210 C 
ENDBRANCH  15  20
BRANCH  16  22
HETATM   22  C   UNK N   1      30.297  41.837  57.362  0.00  0.00     0.015 C 
HETATM   23  C   UNK N   1      30.267  42.237  56.069  0.00  0.00     0.007 C 
BRANCH  23  24
HETATM   24  C   UNK N   1      29.925  41.336  54.934  0.00  0.00    -0.071 C 
HETATM   25  C   UNK N   1      29.798  41.862  53.703  0.00  0.00     0.018 C 
HETATM   26  C   UNK N   1      29.741  39.854  55.137  0.00  0.00     0.047 C 
ENDBRANCH  23  24
ENDBRANCH  16  22
ENDBRANCH   9  12
BRANCH   6  27
HETATM   27  O   UNK N   1      30.725  48.996  56.127  0.00  0.00    -0.360 OA
HETATM   28  H   UNK N   1      30.393  49.146  55.231  0.00  0.00     0.217 HD
ENDBRANCH   6  27
BRANCH   7  29
HETATM   29  O   UNK N   1      28.417  52.436  58.495  0.00  0.00    -0.361 OA
HETATM   30  H   UNK N   1      28.887  53.119  58.994  0.00  0.00     0.217 HD
ENDBRANCH   7  29
TORSDOF 7
ENDMDL
MODEL 5
REMARK VINA RESULT:      -5.3     14.865     17.323
REMARK  7 active torsions:
REMARK  status: ('A' for Active; 'I' for Inactive)
REMARK    1  A    between atoms: O_3  and  C_10 
REMARK    2  A    between atoms: O_4  and  C_11 
REMARK    3  A    between atoms: O_5  and  C_12 
REMARK    4  A    between atoms: O_6  and  C_13 
REMARK    5  A    between atoms: C_15  and  C_16 
REMARK    6  A    between atoms: C_17  and  C_23 
REMARK    7  A    between atoms: C_24  and  C_25 
ROOT
HETATM    1  O   UNK N   1      28.318  42.368  57.958  0.00  0.00    -0.321 OA
HETATM    2  O   UNK N   1      30.446  42.275  54.597  0.00  0.00    -0.286 OA
HETATM    3  C   UNK N   1      29.596  42.725  58.014  0.00  0.00     0.094 A 
HETATM    4  C   UNK N   1      27.739  41.965  56.837  0.00  0.00     0.159 A 
HETATM    5  C   UNK N   1      29.801  42.316  55.630  0.00  0.00     0.200 A 
HETATM    6  C   UNK N   1      31.777  43.032  56.957  0.00  0.00     0.085 A 
HETATM    7  C   UNK N   1      31.487  43.455  59.341  0.00  0.00     0.071 A 
HETATM    8  C   UNK N   1      30.405  42.697  56.851  0.00  0.00     0.082 A 
HETATM    9  C   UNK N   1      28.446  41.937  55.628  0.00  0.00     0.048 A 
HETATM   10  C   UNK N   1      30.139  43.114  59.240  0.00  0.00     0.074 A 
HETATM   11  C   UNK N   1      32.306  43.407  58.205  0.00  0.00     0.074 A 
ENDROOT
BRANCH   9  12
HETATM   12  C   UNK N   1      27.756  41.485  54.398  0.00  0.00    -0.017 A 
HETATM   13  C   UNK N   1      27.592  40.129  54.112  0.00  0.00     0.052 A 
HETATM   14  C   UNK N   1      26.996  39.721  52.908  0.00  0.00     0.100 A 
HETATM   15  C   UNK N   1      26.508  40.695  51.988  0.00  0.00     0.111 A 
HETATM   16  C   UNK N   1      26.628  42.069  52.313  0.00  0.00     0.001 A 
HETATM   17  C   UNK N   1      27.278  42.441  53.503  0.00  0.00     0.027 A 
BRANCH  14  18
HETATM   18  O   UNK N   1      26.899  38.402  52.643  0.00  0.00    -0.358 OA
HETATM   19  H   UNK N   1      26.254  38.050  52.012  0.00  0.00     0.218 HD
ENDBRANCH  14  18
BRANCH  15  20
HETATM   20  O   UNK N   1      25.911  40.363  50.806  0.00  0.00    -0.352 OA
HETATM   21  C   UNK N   1      24.621  39.912  50.617  0.00  0.00     0.210 C 
ENDBRANCH  15  20
BRANCH  16  22
HETATM   22  C   UNK N   1      26.077  43.114  51.389  0.00  0.00     0.015 C 
HETATM   23  C   UNK N   1      24.872  43.699  51.588  0.00  0.00     0.007 C 
BRANCH  23  24
HETATM   24  C   UNK N   1      24.302  44.739  50.689  0.00  0.00    -0.071 C 
HETATM   25  C   UNK N   1      24.107  45.979  51.171  0.00  0.00     0.018 C 
HETATM   26  C   UNK N   1      23.963  44.434  49.252  0.00  0.00     0.047 C 
ENDBRANCH  23  24
ENDBRANCH  16  22
ENDBRANCH   9  12
BRANCH   6  27
HETATM   27  O   UNK N   1      32.587  42.979  55.878  0.00  0.00    -0.360 OA
HETATM   28  H   UNK N   1      33.551  42.973  55.962  0.00  0.00     0.217 HD
ENDBRANCH   6  27
BRANCH   7  29
HETATM   29  O   UNK N   1      31.991  43.820  60.536  0.00  0.00    -0.361 OA
HETATM   30  H   UNK N   1      31.666  43.439  61.364  0.00  0.00     0.217 HD
ENDBRANCH   7  29
TORSDOF 7
ENDMDL
MODEL 6
REMARK VINA RESULT:      -5.3     16.202     19.380
REMARK  7 active torsions:
REMARK  status: ('A' for Active; 'I' for Inactive)
REMARK    1  A    between atoms: O_3  and  C_10 
REMARK    2  A    between atoms: O_4  and  C_11 
REMARK    3  A    between atoms: O_5  and  C_12 
REMARK    4  A    between atoms: O_6  and  C_13 
REMARK    5  A    between atoms: C_15  and  C_16 
REMARK    6  A    between atoms: C_17  and  C_23 
REMARK    7  A    between atoms: C_24  and  C_25 
ROOT
HETATM    1  O   UNK N   1      37.801  47.918  63.027  0.00  0.00    -0.321 OA
HETATM    2  O   UNK N   1      37.793  44.072  64.049  0.00  0.00    -0.286 OA
HETATM    3  C   UNK N   1      38.702  47.501  63.909  0.00  0.00     0.094 A 
HETATM    4  C   UNK N   1      36.895  47.110  62.497  0.00  0.00     0.159 A 
HETATM    5  C   UNK N   1      37.810  45.250  63.736  0.00  0.00     0.200 A 
HETATM    6  C   UNK N   1      39.674  45.747  65.304  0.00  0.00     0.085 A 
HETATM    7  C   UNK N   1      40.538  48.024  65.399  0.00  0.00     0.071 A 
HETATM    8  C   UNK N   1      38.736  46.146  64.320  0.00  0.00     0.082 A 
HETATM    9  C   UNK N   1      36.870  45.746  62.814  0.00  0.00     0.048 A 
HETATM   10  C   UNK N   1      39.607  48.422  64.441  0.00  0.00     0.074 A 
HETATM   11  C   UNK N   1      40.566  46.694  65.836  0.00  0.00     0.074 A 
ENDROOT
BRANCH   9  12
HETATM   12  C   UNK N   1      35.843  44.878  62.192  0.00  0.00    -0.017 A 
HETATM   13  C   UNK N   1      36.011  44.355  60.909  0.00  0.00     0.052 A 
HETATM   14  C   UNK N   1      34.996  43.592  60.311  0.00  0.00     0.100 A 
HETATM   15  C   UNK N   1      33.800  43.305  61.034  0.00  0.00     0.111 A 
HETATM   16  C   UNK N   1      33.662  43.793  62.357  0.00  0.00     0.001 A 
HETATM   17  C   UNK N   1      34.677  44.598  62.904  0.00  0.00     0.027 A 
BRANCH  14  18
HETATM   18  O   UNK N   1      35.172  43.144  59.051  0.00  0.00    -0.358 OA
HETATM   19  H   UNK N   1      34.675  43.504  58.302  0.00  0.00     0.218 HD
ENDBRANCH  14  18
BRANCH  15  20
HETATM   20  O   UNK N   1      32.780  42.561  60.513  0.00  0.00    -0.352 OA
HETATM   21  C   UNK N   1      31.829  42.967  59.600  0.00  0.00     0.210 C 
ENDBRANCH  15  20
BRANCH  16  22
HETATM   22  C   UNK N   1      32.439  43.463  63.160  0.00  0.00     0.015 C 
HETATM   23  C   UNK N   1      32.448  43.416  64.513  0.00  0.00     0.007 C 
BRANCH  23  24
HETATM   24  C   UNK N   1      31.249  43.092  65.335  0.00  0.00    -0.071 C 
HETATM   25  C   UNK N   1      30.060  42.955  64.722  0.00  0.00     0.018 C 
HETATM   26  C   UNK N   1      31.350  42.897  66.826  0.00  0.00     0.047 C 
ENDBRANCH  23  24
ENDBRANCH  16  22
ENDBRANCH   9  12
BRANCH   6  27
HETATM   27  O   UNK N   1      39.710  44.472  65.749  0.00  0.00    -0.360 OA
HETATM   28  H   UNK N   1      40.111  44.237  66.597  0.00  0.00     0.217 HD
ENDBRANCH   6  27
BRANCH   7  29
HETATM   29  O   UNK N   1      41.397  48.932  65.904  0.00  0.00    -0.361 OA
HETATM   30  H   UNK N   1      41.226  49.385  66.742  0.00  0.00     0.217 HD
ENDBRANCH   7  29
TORSDOF 7
ENDMDL
MODEL 7
REMARK VINA RESULT:      -5.2     15.840     17.516
REMARK  7 active torsions:
REMARK  status: ('A' for Active; 'I' for Inactive)
REMARK    1  A    between atoms: O_3  and  C_10 
REMARK    2  A    between atoms: O_4  and  C_11 
REMARK    3  A    between atoms: O_5  and  C_12 
REMARK    4  A    between atoms: O_6  and  C_13 
REMARK    5  A    between atoms: C_15  and  C_16 
REMARK    6  A    between atoms: C_17  and  C_23 
REMARK    7  A    between atoms: C_24  and  C_25 
ROOT
HETATM    1  O   UNK N   1      30.558  42.902  61.036  0.00  0.00    -0.321 OA
HETATM    2  O   UNK N   1      32.541  42.537  57.605  0.00  0.00    -0.286 OA
HETATM    3  C   UNK N   1      31.863  43.150  61.035  0.00  0.00     0.094 A 
HETATM    4  C   UNK N   1      29.904  42.521  59.949  0.00  0.00     0.159 A 
HETATM    5  C   UNK N   1      31.941  42.660  58.659  0.00  0.00     0.200 A 
HETATM    6  C   UNK N   1      34.021  43.239  59.892  0.00  0.00     0.085 A 
HETATM    7  C   UNK N   1      33.858  43.750  62.271  0.00  0.00     0.071 A 
HETATM    8  C   UNK N   1      32.621  43.021  59.846  0.00  0.00     0.082 A 
HETATM    9  C   UNK N   1      30.560  42.400  58.717  0.00  0.00     0.048 A 
HETATM   10  C   UNK N   1      32.483  43.523  62.229  0.00  0.00     0.074 A 
HETATM   11  C   UNK N   1      34.626  43.600  61.109  0.00  0.00     0.074 A 
ENDROOT
BRANCH   9  12
HETATM   12  C   UNK N   1      29.787  41.976  57.526  0.00  0.00    -0.017 A 
HETATM   13  C   UNK N   1      29.050  42.891  56.773  0.00  0.00     0.052 A 
HETATM   14  C   UNK N   1      28.269  42.459  55.690  0.00  0.00     0.100 A 
HETATM   15  C   UNK N   1      28.264  41.081  55.321  0.00  0.00     0.111 A 
HETATM   16  C   UNK N   1      29.059  40.168  56.056  0.00  0.00     0.001 A 
HETATM   17  C   UNK N   1      29.787  40.629  57.168  0.00  0.00     0.027 A 
BRANCH  14  18
HETATM   18  O   UNK N   1      27.531  43.363  55.015  0.00  0.00    -0.358 OA
HETATM   19  H   UNK N   1      26.628  43.175  54.721  0.00  0.00     0.218 HD
ENDBRANCH  14  18
BRANCH  15  20
HETATM   20  O   UNK N   1      27.534  40.598  54.272  0.00  0.00    -0.352 OA
HETATM   21  C   UNK N   1      27.826  40.706  52.928  0.00  0.00     0.210 C 
ENDBRANCH  15  20
BRANCH  16  22
HETATM   22  C   UNK N   1      29.114  38.723  55.658  0.00  0.00     0.015 C 
HETATM   23  C   UNK N   1      29.700  37.777  56.429  0.00  0.00     0.007 C 
BRANCH  23  24
HETATM   24  C   UNK N   1      29.767  36.336  56.060  0.00  0.00    -0.071 C 
HETATM   25  C   UNK N   1      30.803  35.903  55.321  0.00  0.00     0.018 C 
HETATM   26  C   UNK N   1      28.713  35.360  56.515  0.00  0.00     0.047 C 
ENDBRANCH  23  24
ENDBRANCH  16  22
ENDBRANCH   9  12
BRANCH   6  27
HETATM   27  O   UNK N   1      34.781  43.088  58.787  0.00  0.00    -0.360 OA
HETATM   28  H   UNK N   1      34.707  42.309  58.218  0.00  0.00     0.217 HD
ENDBRANCH   6  27
BRANCH   7  29
HETATM   29  O   UNK N   1      34.437  44.102  63.436  0.00  0.00    -0.361 OA
HETATM   30  H   UNK N   1      34.053  44.780  64.011  0.00  0.00     0.217 HD
ENDBRANCH   7  29
TORSDOF 7
ENDMDL
MODEL 8
REMARK VINA RESULT:      -5.1     15.202     16.234
REMARK  7 active torsions:
REMARK  status: ('A' for Active; 'I' for Inactive)
REMARK    1  A    between atoms: O_3  and  C_10 
REMARK    2  A    between atoms: O_4  and  C_11 
REMARK    3  A    between atoms: O_5  and  C_12 
REMARK    4  A    between atoms: O_6  and  C_13 
REMARK    5  A    between atoms: C_15  and  C_16 
REMARK    6  A    between atoms: C_17  and  C_23 
REMARK    7  A    between atoms: C_24  and  C_25 
ROOT
HETATM    1  O   UNK N   1      26.208  42.257  50.308  0.00  0.00    -0.321 OA
HETATM    2  O   UNK N   1      25.790  43.761  53.968  0.00  0.00    -0.286 OA
HETATM    3  C   UNK N   1      25.392  43.292  50.472  0.00  0.00     0.094 A 
HETATM    4  C   UNK N   1      26.865  41.700  51.314  0.00  0.00     0.159 A 
HETATM    5  C   UNK N   1      25.918  43.313  52.841  0.00  0.00     0.200 A 
HETATM    6  C   UNK N   1      24.274  44.926  51.904  0.00  0.00     0.085 A 
HETATM    7  C   UNK N   1      23.821  44.864  49.509  0.00  0.00     0.071 A 
HETATM    8  C   UNK N   1      25.194  43.858  51.755  0.00  0.00     0.082 A 
HETATM    9  C   UNK N   1      26.762  42.211  52.614  0.00  0.00     0.048 A 
HETATM   10  C   UNK N   1      24.716  43.806  49.363  0.00  0.00     0.074 A 
HETATM   11  C   UNK N   1      23.594  45.417  50.776  0.00  0.00     0.074 A 
ENDROOT
BRANCH   9  12
HETATM   12  C   UNK N   1      27.520  41.560  53.708  0.00  0.00    -0.017 A 
HETATM   13  C   UNK N   1      27.173  40.293  54.180  0.00  0.00     0.052 A 
HETATM   14  C   UNK N   1      27.860  39.722  55.263  0.00  0.00     0.100 A 
HETATM   15  C   UNK N   1      28.954  40.417  55.858  0.00  0.00     0.111 A 
HETATM   16  C   UNK N   1      29.335  41.678  55.336  0.00  0.00     0.001 A 
HETATM   17  C   UNK N   1      28.590  42.242  54.285  0.00  0.00     0.027 A 
BRANCH  14  18
HETATM   18  O   UNK N   1      27.466  38.518  55.724  0.00  0.00    -0.358 OA
HETATM   19  H   UNK N   1      28.098  37.816  55.937  0.00  0.00     0.218 HD
ENDBRANCH  14  18
BRANCH  15  20
HETATM   20  O   UNK N   1      29.669  39.912  56.907  0.00  0.00    -0.352 OA
HETATM   21  C   UNK N   1      29.298  39.880  58.235  0.00  0.00     0.210 C 
ENDBRANCH  15  20
BRANCH  16  22
HETATM   22  C   UNK N   1      30.514  42.407  55.908  0.00  0.00     0.015 C 
HETATM   23  C   UNK N   1      30.421  43.197  57.004  0.00  0.00     0.007 C 
BRANCH  23  24
HETATM   24  C   UNK N   1      31.575  43.930  57.593  0.00  0.00    -0.071 C 
HETATM   25  C   UNK N   1      31.634  45.266  57.455  0.00  0.00     0.018 C 
HETATM   26  C   UNK N   1      32.657  43.208  58.353  0.00  0.00     0.047 C 
ENDBRANCH  23  24
ENDBRANCH  16  22
ENDBRANCH   9  12
BRANCH   6  27
HETATM   27  O   UNK N   1      24.031  45.465  53.118  0.00  0.00    -0.360 OA
HETATM   28  H   UNK N   1      24.445  45.121  53.922  0.00  0.00     0.217 HD
ENDBRANCH   6  27
BRANCH   7  29
HETATM   29  O   UNK N   1      23.174  45.339  48.426  0.00  0.00    -0.361 OA
HETATM   30  H   UNK N   1      22.492  44.823  47.973  0.00  0.00     0.217 HD
ENDBRANCH   7  29
TORSDOF 7
ENDMDL
MODEL 9
REMARK VINA RESULT:      -5.1     15.209     17.081
REMARK  7 active torsions:
REMARK  status: ('A' for Active; 'I' for Inactive)
REMARK    1  A    between atoms: O_3  and  C_10 
REMARK    2  A    between atoms: O_4  and  C_11 
REMARK    3  A    between atoms: O_5  and  C_12 
REMARK    4  A    between atoms: O_6  and  C_13 
REMARK    5  A    between atoms: C_15  and  C_16 
REMARK    6  A    between atoms: C_17  and  C_23 
REMARK    7  A    between atoms: C_24  and  C_25 
ROOT
HETATM    1  O   UNK N   1      27.173  47.039  58.106  0.00  0.00    -0.321 OA
HETATM    2  O   UNK N   1      31.011  47.861  57.451  0.00  0.00    -0.286 OA
HETATM    3  C   UNK N   1      27.483  48.222  57.589  0.00  0.00     0.094 A 
HETATM    4  C   UNK N   1      28.091  46.139  58.428  0.00  0.00     0.159 A 
HETATM    5  C   UNK N   1      29.832  47.615  57.639  0.00  0.00     0.200 A 
HETATM    6  C   UNK N   1      29.131  49.865  56.847  0.00  0.00     0.085 A 
HETATM    7  C   UNK N   1      26.751  50.391  56.795  0.00  0.00     0.071 A 
HETATM    8  C   UNK N   1      28.833  48.574  57.348  0.00  0.00     0.082 A 
HETATM    9  C   UNK N   1      29.451  46.380  58.195  0.00  0.00     0.048 A 
HETATM   10  C   UNK N   1      26.457  49.125  57.300  0.00  0.00     0.074 A 
HETATM   11  C   UNK N   1      28.084  50.763  56.578  0.00  0.00     0.074 A 
ENDROOT
BRANCH   9  12
HETATM   12  C   UNK N   1      30.442  45.343  58.565  0.00  0.00    -0.017 A 
HETATM   13  C   UNK N   1      31.175  44.658  57.596  0.00  0.00     0.052 A 
HETATM   14  C   UNK N   1      32.059  43.631  57.963  0.00  0.00     0.100 A 
HETATM   15  C   UNK N   1      32.249  43.314  59.341  0.00  0.00     0.111 A 
HETATM   16  C   UNK N   1      31.542  44.052  60.321  0.00  0.00     0.001 A 
HETATM   17  C   UNK N   1      30.626  45.038  59.913  0.00  0.00     0.027 A 
BRANCH  14  18
HETATM   18  O   UNK N   1      32.714  42.957  56.996  0.00  0.00    -0.358 OA
HETATM   19  H   UNK N   1      32.876  43.339  56.121  0.00  0.00     0.218 HD
ENDBRANCH  14  18
BRANCH  15  20
HETATM   20  O   UNK N   1      33.101  42.333  59.764  0.00  0.00    -0.352 OA
HETATM   21  C   UNK N   1      32.787  41.025  60.069  0.00  0.00     0.210 C 
ENDBRANCH  15  20
BRANCH  16  22
HETATM   22  C   UNK N   1      31.762  43.776  61.779  0.00  0.00     0.015 C 
HETATM   23  C   UNK N   1      32.790  44.316  62.475  0.00  0.00     0.007 C 
BRANCH  23  24
HETATM   24  C   UNK N   1      33.031  44.060  63.922  0.00  0.00    -0.071 C 
HETATM   25  C   UNK N   1      31.991  43.719  64.703  0.00  0.00     0.018 C 
HETATM   26  C   UNK N   1      34.413  44.155  64.516  0.00  0.00     0.047 C 
ENDBRANCH  23  24
ENDBRANCH  16  22
ENDBRANCH   9  12
BRANCH   6  27
HETATM   27  O   UNK N   1      30.410  50.249  56.642  0.00  0.00    -0.360 OA
HETATM   28  H   UNK N   1      30.857  50.108  55.796  0.00  0.00     0.217 HD
ENDBRANCH   6  27
BRANCH   7  29
HETATM   29  O   UNK N   1      25.746  51.249  56.531  0.00  0.00    -0.361 OA
HETATM   30  H   UNK N   1      25.054  51.440  57.181  0.00  0.00     0.217 HD
ENDBRANCH   7  29
TORSDOF 7
ENDMDL
