MODEL 1
REMARK VINA RESULT:      -6.4      0.000      0.000
REMARK  8 active torsions:
REMARK  status: ('A' for Active; 'I' for Inactive)
REMARK    1  A    between atoms: O_2  and  C_7 
REMARK    2  A    between atoms: O_3  and  C_8 
REMARK    3  A    between atoms: O_4  and  C_9 
REMARK    4  A    between atoms: C_10  and  C_18 
REMARK    5  A    between atoms: C_12  and  C_21 
REMARK    6  A    between atoms: C_13  and  C_22 
REMARK    7  A    between atoms: C_22  and  C_27 
REMARK    8  A    between atoms: C_25  and  C_26 
ROOT
HETATM    1  C   UNK N   1      48.985  31.865  45.642  0.00  0.00     0.085 A 
HETATM    2  C   UNK N   1      50.003  32.788  48.117  0.00  0.00    -0.027 A 
HETATM    3  C   UNK N   1      50.385  32.076  45.817  0.00  0.00    -0.002 A 
HETATM    4  C   UNK N   1      48.113  32.161  46.714  0.00  0.00    -0.020 A 
HETATM    5  C   UNK N   1      50.871  32.534  47.048  0.00  0.00     0.024 A 
HETATM    6  C   UNK N   1      48.625  32.605  47.943  0.00  0.00     0.020 A 
ENDROOT
BRANCH   2   7
HETATM    7  C   UNK N   1      50.580  33.217  49.447  0.00  0.00     0.169 C 
HETATM    8  O   UNK N   1      49.740  32.887  50.507  0.00  0.00    -0.340 OA
HETATM    9  C   UNK N   1      50.126  33.079  51.799  0.00  0.00     0.089 A 
HETATM   10  C   UNK N   1      51.495  33.206  52.118  0.00  0.00     0.076 A 
HETATM   11  C   UNK N   1      49.160  33.174  52.804  0.00  0.00     0.074 A 
HETATM   12  C   UNK N   1      51.882  33.475  53.447  0.00  0.00     0.085 A 
HETATM   13  C   UNK N   1      52.473  33.055  51.008  0.00  0.00     0.167 C 
HETATM   14  C   UNK N   1      50.899  33.589  54.443  0.00  0.00     0.074 A 
HETATM   15  C   UNK N   1      49.542  33.431  54.125  0.00  0.00     0.071 A 
HETATM   16  O   UNK N   1      53.658  33.306  51.162  0.00  0.00    -0.292 OA
HETATM   17  C   UNK N   1      51.964  32.593  49.669  0.00  0.00     0.121 C 
BRANCH  12  18
HETATM   18  O   UNK N   1      53.185  33.623  53.765  0.00  0.00    -0.360 OA
HETATM   19  H   UNK N   1      53.767  34.221  53.274  0.00  0.00     0.217 HD
ENDBRANCH  12  18
BRANCH  15  20
HETATM   20  O   UNK N   1      48.596  33.537  55.081  0.00  0.00    -0.361 OA
HETATM   21  H   UNK N   1      48.355  34.392  55.466  0.00  0.00     0.217 HD
ENDBRANCH  15  20
ENDBRANCH   2   7
BRANCH   3  22
HETATM   22  C   UNK N   1      51.370  31.809  44.756  0.00  0.00     0.015 C 
HETATM   23  C   UNK N   1      52.039  32.814  44.160  0.00  0.00     0.007 C 
BRANCH  23  24
HETATM   24  C   UNK N   1      53.003  32.577  43.046  0.00  0.00    -0.071 C 
HETATM   25  C   UNK N   1      54.026  31.729  43.227  0.00  0.00     0.018 C 
HETATM   26  C   UNK N   1      52.850  33.293  41.726  0.00  0.00     0.047 C 
ENDBRANCH  23  24
ENDBRANCH   3  22
BRANCH   4  27
HETATM   27  C   UNK N   1      46.625  31.956  46.568  0.00  0.00     0.068 C 
BRANCH  27  28
HETATM   28  C   UNK N   1      45.890  32.973  47.410  0.00  0.00    -0.020 C 
HETATM   29  C   UNK N   1      45.083  32.708  48.469  0.00  0.00    -0.091 C 
HETATM   30  C   UNK N   1      44.430  33.856  49.194  0.00  0.00     0.042 C 
HETATM   31  C   UNK N   1      44.785  31.320  48.989  0.00  0.00     0.042 C 
ENDBRANCH  27  28
ENDBRANCH   4  27
BRANCH   1  32
HETATM   32  O   UNK N   1      48.423  31.366  44.500  0.00  0.00    -0.355 OA
HETATM   33  C   UNK N   1      48.314  30.052  44.093  0.00  0.00     0.210 C 
ENDBRANCH   1  32
TORSDOF 8
ENDMDL
MODEL 2
REMARK VINA RESULT:      -6.0      2.422      7.741
REMARK  8 active torsions:
REMARK  status: ('A' for Active; 'I' for Inactive)
REMARK    1  A    between atoms: O_2  and  C_7 
REMARK    2  A    between atoms: O_3  and  C_8 
REMARK    3  A    between atoms: O_4  and  C_9 
REMARK    4  A    between atoms: C_10  and  C_18 
REMARK    5  A    between atoms: C_12  and  C_21 
REMARK    6  A    between atoms: C_13  and  C_22 
REMARK    7  A    between atoms: C_22  and  C_27 
REMARK    8  A    between atoms: C_25  and  C_26 
ROOT
HETATM    1  C   UNK N   1      48.659  33.116  48.644  0.00  0.00     0.085 A 
HETATM    2  C   UNK N   1      50.260  32.055  46.564  0.00  0.00    -0.027 A 
HETATM    3  C   UNK N   1      50.054  32.890  48.845  0.00  0.00    -0.002 A 
HETATM    4  C   UNK N   1      48.085  32.766  47.401  0.00  0.00    -0.020 A 
HETATM    5  C   UNK N   1      50.829  32.364  47.805  0.00  0.00     0.024 A 
HETATM    6  C   UNK N   1      48.887  32.253  46.369  0.00  0.00     0.020 A 
ENDROOT
BRANCH   2   7
HETATM    7  C   UNK N   1      51.149  31.552  45.451  0.00  0.00     0.169 C 
HETATM    8  O   UNK N   1      50.658  31.900  44.196  0.00  0.00    -0.340 OA
HETATM    9  C   UNK N   1      51.370  31.647  43.063  0.00  0.00     0.089 A 
HETATM   10  C   UNK N   1      52.762  31.426  43.136  0.00  0.00     0.076 A 
HETATM   11  C   UNK N   1      50.714  31.581  41.831  0.00  0.00     0.074 A 
HETATM   12  C   UNK N   1      53.481  31.094  41.969  0.00  0.00     0.085 A 
HETATM   13  C   UNK N   1      53.405  31.550  44.471  0.00  0.00     0.167 C 
HETATM   14  C   UNK N   1      52.804  31.011  40.742  0.00  0.00     0.074 A 
HETATM   15  C   UNK N   1      51.425  31.261  40.671  0.00  0.00     0.071 A 
HETATM   16  O   UNK N   1      54.568  31.222  44.653  0.00  0.00    -0.292 OA
HETATM   17  C   UNK N   1      52.580  32.083  45.612  0.00  0.00     0.121 C 
BRANCH  12  18
HETATM   18  O   UNK N   1      54.808  30.857  42.025  0.00  0.00    -0.360 OA
HETATM   19  H   UNK N   1      55.454  31.468  41.641  0.00  0.00     0.217 HD
ENDBRANCH  12  18
BRANCH  15  20
HETATM   20  O   UNK N   1      50.774  31.185  39.492  0.00  0.00    -0.361 OA
HETATM   21  H   UNK N   1      50.152  30.469  39.300  0.00  0.00     0.217 HD
ENDBRANCH  15  20
ENDBRANCH   2   7
BRANCH   3  22
HETATM   22  C   UNK N   1      50.740  33.211  50.108  0.00  0.00     0.015 C 
HETATM   23  C   UNK N   1      52.082  33.291  50.169  0.00  0.00     0.007 C 
BRANCH  23  24
HETATM   24  C   UNK N   1      52.805  33.561  51.445  0.00  0.00    -0.071 C 
HETATM   25  C   UNK N   1      54.127  33.789  51.419  0.00  0.00     0.018 C 
HETATM   26  C   UNK N   1      52.071  33.562  52.765  0.00  0.00     0.047 C 
ENDBRANCH  23  24
ENDBRANCH   3  22
BRANCH   4  27
HETATM   27  C   UNK N   1      46.613  32.984  47.150  0.00  0.00     0.068 C 
BRANCH  27  28
HETATM   28  C   UNK N   1      45.822  31.856  47.769  0.00  0.00    -0.020 C 
HETATM   29  C   UNK N   1      44.806  31.980  48.660  0.00  0.00    -0.091 C 
HETATM   30  C   UNK N   1      44.128  30.736  49.173  0.00  0.00     0.042 C 
HETATM   31  C   UNK N   1      44.289  33.300  49.188  0.00  0.00     0.042 C 
ENDBRANCH  27  28
ENDBRANCH   4  27
BRANCH   1  32
HETATM   32  O   UNK N   1      47.833  33.680  49.577  0.00  0.00    -0.355 OA
HETATM   33  C   UNK N   1      47.532  35.012  49.772  0.00  0.00     0.210 C 
ENDBRANCH   1  32
TORSDOF 8
ENDMDL
MODEL 3
REMARK VINA RESULT:      -5.9     26.147     29.962
REMARK  8 active torsions:
REMARK  status: ('A' for Active; 'I' for Inactive)
REMARK    1  A    between atoms: O_2  and  C_7 
REMARK    2  A    between atoms: O_3  and  C_8 
REMARK    3  A    between atoms: O_4  and  C_9 
REMARK    4  A    between atoms: C_10  and  C_18 
REMARK    5  A    between atoms: C_12  and  C_21 
REMARK    6  A    between atoms: C_13  and  C_22 
REMARK    7  A    between atoms: C_22  and  C_27 
REMARK    8  A    between atoms: C_25  and  C_26 
ROOT
HETATM    1  C   UNK N   1      27.038  53.322  38.720  0.00  0.00     0.085 A 
HETATM    2  C   UNK N   1      29.322  52.198  39.957  0.00  0.00    -0.027 A 
HETATM    3  C   UNK N   1      27.020  51.974  39.187  0.00  0.00    -0.002 A 
HETATM    4  C   UNK N   1      28.228  54.073  38.852  0.00  0.00    -0.020 A 
HETATM    5  C   UNK N   1      28.159  51.435  39.796  0.00  0.00     0.024 A 
HETATM    6  C   UNK N   1      29.353  53.514  39.479  0.00  0.00     0.020 A 
ENDROOT
BRANCH   2   7
HETATM    7  C   UNK N   1      30.505  51.594  40.680  0.00  0.00     0.169 C 
HETATM    8  O   UNK N   1      30.804  52.283  41.851  0.00  0.00    -0.340 OA
HETATM    9  C   UNK N   1      31.759  51.833  42.712  0.00  0.00     0.089 A 
HETATM   10  C   UNK N   1      32.163  50.480  42.675  0.00  0.00     0.076 A 
HETATM   11  C   UNK N   1      32.354  52.718  43.614  0.00  0.00     0.074 A 
HETATM   12  C   UNK N   1      33.203  50.038  43.520  0.00  0.00     0.085 A 
HETATM   13  C   UNK N   1      31.462  49.582  41.720  0.00  0.00     0.167 C 
HETATM   14  C   UNK N   1      33.805  50.944  44.407  0.00  0.00     0.074 A 
HETATM   15  C   UNK N   1      33.377  52.279  44.459  0.00  0.00     0.071 A 
HETATM   16  O   UNK N   1      31.853  48.444  41.509  0.00  0.00    -0.292 OA
HETATM   17  C   UNK N   1      30.253  50.115  40.999  0.00  0.00     0.121 C 
BRANCH  12  18
HETATM   18  O   UNK N   1      33.617  48.754  43.481  0.00  0.00    -0.360 OA
HETATM   19  H   UNK N   1      33.004  48.014  43.600  0.00  0.00     0.217 HD
ENDBRANCH  12  18
BRANCH  15  20
HETATM   20  O   UNK N   1      33.954  53.151  45.312  0.00  0.00    -0.361 OA
HETATM   21  H   UNK N   1      34.914  53.199  45.419  0.00  0.00     0.217 HD
ENDBRANCH  15  20
ENDBRANCH   2   7
BRANCH   3  22
HETATM   22  C   UNK N   1      25.833  51.110  39.083  0.00  0.00     0.015 C 
HETATM   23  C   UNK N   1      25.625  50.107  39.956  0.00  0.00     0.007 C 
BRANCH  23  24
HETATM   24  C   UNK N   1      24.460  49.182  39.842  0.00  0.00    -0.071 C 
HETATM   25  C   UNK N   1      23.352  49.424  40.558  0.00  0.00     0.018 C 
HETATM   26  C   UNK N   1      24.520  47.969  38.944  0.00  0.00     0.047 C 
ENDBRANCH  23  24
ENDBRANCH   3  22
BRANCH   4  27
HETATM   27  C   UNK N   1      28.290  55.500  38.365  0.00  0.00     0.068 C 
BRANCH  27  28
HETATM   28  C   UNK N   1      27.973  56.437  39.507  0.00  0.00    -0.020 C 
HETATM   29  C   UNK N   1      28.873  57.048  40.319  0.00  0.00    -0.091 C 
HETATM   30  C   UNK N   1      28.370  57.956  41.413  0.00  0.00     0.042 C 
HETATM   31  C   UNK N   1      30.372  56.886  40.208  0.00  0.00     0.042 C 
ENDBRANCH  27  28
ENDBRANCH   4  27
BRANCH   1  32
HETATM   32  O   UNK N   1      25.959  53.955  38.167  0.00  0.00    -0.355 OA
HETATM   33  C   UNK N   1      24.842  54.466  38.795  0.00  0.00     0.210 C 
ENDBRANCH   1  32
TORSDOF 8
ENDMDL
MODEL 4
REMARK VINA RESULT:      -5.8     22.442     26.085
REMARK  8 active torsions:
REMARK  status: ('A' for Active; 'I' for Inactive)
REMARK    1  A    between atoms: O_2  and  C_7 
REMARK    2  A    between atoms: O_3  and  C_8 
REMARK    3  A    between atoms: O_4  and  C_9 
REMARK    4  A    between atoms: C_10  and  C_18 
REMARK    5  A    between atoms: C_12  and  C_21 
REMARK    6  A    between atoms: C_13  and  C_22 
REMARK    7  A    between atoms: C_22  and  C_27 
REMARK    8  A    between atoms: C_25  and  C_26 
ROOT
HETATM    1  C   UNK N   1      31.425  42.484  59.491  0.00  0.00     0.085 A 
HETATM    2  C   UNK N   1      30.526  45.164  59.346  0.00  0.00    -0.027 A 
HETATM    3  C   UNK N   1      30.579  42.908  58.423  0.00  0.00    -0.002 A 
HETATM    4  C   UNK N   1      31.774  43.416  60.495  0.00  0.00    -0.020 A 
HETATM    5  C   UNK N   1      30.144  44.237  58.368  0.00  0.00     0.024 A 
HETATM    6  C   UNK N   1      31.337  44.747  60.409  0.00  0.00     0.020 A 
ENDROOT
BRANCH   2   7
HETATM    7  C   UNK N   1      30.086  46.603  59.208  0.00  0.00     0.169 C 
HETATM    8  O   UNK N   1      30.327  47.100  57.931  0.00  0.00    -0.340 OA
HETATM    9  C   UNK N   1      29.897  48.339  57.561  0.00  0.00     0.089 A 
HETATM   10  C   UNK N   1      28.858  48.970  58.279  0.00  0.00     0.076 A 
HETATM   11  C   UNK N   1      30.504  48.991  56.486  0.00  0.00     0.074 A 
HETATM   12  C   UNK N   1      28.467  50.282  57.935  0.00  0.00     0.085 A 
HETATM   13  C   UNK N   1      28.228  48.205  59.387  0.00  0.00     0.167 C 
HETATM   14  C   UNK N   1      29.100  50.933  56.865  0.00  0.00     0.074 A 
HETATM   15  C   UNK N   1      30.111  50.287  56.137  0.00  0.00     0.071 A 
HETATM   16  O   UNK N   1      27.438  48.729  60.157  0.00  0.00    -0.292 OA
HETATM   17  C   UNK N   1      28.597  46.755  59.550  0.00  0.00     0.121 C 
BRANCH  12  18
HETATM   18  O   UNK N   1      27.492  50.909  58.626  0.00  0.00    -0.360 OA
HETATM   19  H   UNK N   1      26.623  50.504  58.768  0.00  0.00     0.217 HD
ENDBRANCH  12  18
BRANCH  15  20
HETATM   20  O   UNK N   1      30.719  50.911  55.107  0.00  0.00    -0.361 OA
HETATM   21  H   UNK N   1      30.281  51.027  54.252  0.00  0.00     0.217 HD
ENDBRANCH  15  20
ENDBRANCH   2   7
BRANCH   3  22
HETATM   22  C   UNK N   1      30.151  42.009  57.340  0.00  0.00     0.015 C 
HETATM   23  C   UNK N   1      30.431  42.287  56.053  0.00  0.00     0.007 C 
BRANCH  23  24
HETATM   24  C   UNK N   1      29.963  41.422  54.932  0.00  0.00    -0.071 C 
HETATM   25  C   UNK N   1      29.881  41.933  53.694  0.00  0.00     0.018 C 
HETATM   26  C   UNK N   1      29.566  39.986  55.176  0.00  0.00     0.047 C 
ENDBRANCH  23  24
ENDBRANCH   3  22
BRANCH   4  27
HETATM   27  C   UNK N   1      32.663  43.005  61.643  0.00  0.00     0.068 C 
BRANCH  27  28
HETATM   28  C   UNK N   1      34.084  43.433  61.361  0.00  0.00    -0.020 C 
HETATM   29  C   UNK N   1      34.852  44.237  62.140  0.00  0.00    -0.091 C 
HETATM   30  C   UNK N   1      36.256  44.558  61.696  0.00  0.00     0.042 C 
HETATM   31  C   UNK N   1      34.397  44.848  63.446  0.00  0.00     0.042 C 
ENDBRANCH  27  28
ENDBRANCH   4  27
BRANCH   1  32
HETATM   32  O   UNK N   1      31.948  41.225  59.599  0.00  0.00    -0.355 OA
HETATM   33  C   UNK N   1      31.401  40.110  60.201  0.00  0.00     0.210 C 
ENDBRANCH   1  32
TORSDOF 8
ENDMDL
MODEL 5
REMARK VINA RESULT:      -5.8     22.870     25.557
REMARK  8 active torsions:
REMARK  status: ('A' for Active; 'I' for Inactive)
REMARK    1  A    between atoms: O_2  and  C_7 
REMARK    2  A    between atoms: O_3  and  C_8 
REMARK    3  A    between atoms: O_4  and  C_9 
REMARK    4  A    between atoms: C_10  and  C_18 
REMARK    5  A    between atoms: C_12  and  C_21 
REMARK    6  A    between atoms: C_13  and  C_22 
REMARK    7  A    between atoms: C_22  and  C_27 
REMARK    8  A    between atoms: C_25  and  C_26 
ROOT
HETATM    1  C   UNK N   1      30.730  41.865  58.677  0.00  0.00     0.085 A 
HETATM    2  C   UNK N   1      29.323  41.980  56.224  0.00  0.00    -0.027 A 
HETATM    3  C   UNK N   1      29.791  40.847  58.331  0.00  0.00    -0.002 A 
HETATM    4  C   UNK N   1      30.917  42.949  57.790  0.00  0.00    -0.020 A 
HETATM    5  C   UNK N   1      29.104  40.922  57.113  0.00  0.00     0.024 A 
HETATM    6  C   UNK N   1      30.226  42.994  56.569  0.00  0.00     0.020 A 
ENDROOT
BRANCH   2   7
HETATM    7  C   UNK N   1      28.607  41.983  54.892  0.00  0.00     0.169 C 
HETATM    8  O   UNK N   1      27.474  42.789  54.914  0.00  0.00    -0.340 OA
HETATM    9  C   UNK N   1      26.752  43.024  53.783  0.00  0.00     0.089 A 
HETATM   10  C   UNK N   1      27.339  42.826  52.514  0.00  0.00     0.076 A 
HETATM   11  C   UNK N   1      25.422  43.439  53.882  0.00  0.00     0.074 A 
HETATM   12  C   UNK N   1      26.564  43.002  51.349  0.00  0.00     0.085 A 
HETATM   13  C   UNK N   1      28.770  42.424  52.478  0.00  0.00     0.167 C 
HETATM   14  C   UNK N   1      25.222  43.399  51.465  0.00  0.00     0.074 A 
HETATM   15  C   UNK N   1      24.654  43.624  52.728  0.00  0.00     0.071 A 
HETATM   16  O   UNK N   1      29.310  42.077  51.439  0.00  0.00    -0.292 OA
HETATM   17  C   UNK N   1      29.546  42.439  53.767  0.00  0.00     0.121 C 
BRANCH  12  18
HETATM   18  O   UNK N   1      27.103  42.794  50.129  0.00  0.00    -0.360 OA
HETATM   19  H   UNK N   1      26.760  43.230  49.336  0.00  0.00     0.217 HD
ENDBRANCH  12  18
BRANCH  15  20
HETATM   20  O   UNK N   1      23.366  44.007  52.842  0.00  0.00    -0.361 OA
HETATM   21  H   UNK N   1      22.749  43.946  52.098  0.00  0.00     0.217 HD
ENDBRANCH  15  20
ENDBRANCH   2   7
BRANCH   3  22
HETATM   22  C   UNK N   1      29.519  39.686  59.194  0.00  0.00     0.015 C 
HETATM   23  C   UNK N   1      30.236  38.553  59.081  0.00  0.00     0.007 C 
BRANCH  23  24
HETATM   24  C   UNK N   1      29.947  37.343  59.904  0.00  0.00    -0.071 C 
HETATM   25  C   UNK N   1      30.593  37.166  61.066  0.00  0.00     0.018 C 
HETATM   26  C   UNK N   1      28.950  36.310  59.437  0.00  0.00     0.047 C 
ENDBRANCH  23  24
ENDBRANCH   3  22
BRANCH   4  27
HETATM   27  C   UNK N   1      31.897  44.048  58.122  0.00  0.00     0.068 C 
BRANCH  27  28
HETATM   28  C   UNK N   1      31.392  45.359  57.567  0.00  0.00    -0.020 C 
HETATM   29  C   UNK N   1      30.634  46.273  58.226  0.00  0.00    -0.091 C 
HETATM   30  C   UNK N   1      30.222  47.533  57.509  0.00  0.00     0.042 C 
HETATM   31  C   UNK N   1      30.164  46.121  59.655  0.00  0.00     0.042 C 
ENDBRANCH  27  28
ENDBRANCH   4  27
BRANCH   1  32
HETATM   32  O   UNK N   1      31.491  41.849  59.813  0.00  0.00    -0.355 OA
HETATM   33  C   UNK N   1      32.682  41.192  60.047  0.00  0.00     0.210 C 
ENDBRANCH   1  32
TORSDOF 8
ENDMDL
MODEL 6
REMARK VINA RESULT:      -5.7     22.407     24.112
REMARK  8 active torsions:
REMARK  status: ('A' for Active; 'I' for Inactive)
REMARK    1  A    between atoms: O_2  and  C_7 
REMARK    2  A    between atoms: O_3  and  C_8 
REMARK    3  A    between atoms: O_4  and  C_9 
REMARK    4  A    between atoms: C_10  and  C_18 
REMARK    5  A    between atoms: C_12  and  C_21 
REMARK    6  A    between atoms: C_13  and  C_22 
REMARK    7  A    between atoms: C_22  and  C_27 
REMARK    8  A    between atoms: C_25  and  C_26 
ROOT
HETATM    1  C   UNK N   1      30.694  41.809  58.586  0.00  0.00     0.085 A 
HETATM    2  C   UNK N   1      32.443  42.657  60.643  0.00  0.00    -0.027 A 
HETATM    3  C   UNK N   1      30.856  41.027  59.768  0.00  0.00    -0.002 A 
HETATM    4  C   UNK N   1      31.450  42.995  58.444  0.00  0.00    -0.020 A 
HETATM    5  C   UNK N   1      31.726  41.462  60.774  0.00  0.00     0.024 A 
HETATM    6  C   UNK N   1      32.305  43.417  59.474  0.00  0.00     0.020 A 
ENDROOT
BRANCH   2   7
HETATM    7  C   UNK N   1      33.319  43.120  61.784  0.00  0.00     0.169 C 
HETATM    8  O   UNK N   1      34.482  43.735  61.330  0.00  0.00    -0.340 OA
HETATM    9  C   UNK N   1      35.351  44.329  62.194  0.00  0.00     0.089 A 
HETATM   10  C   UNK N   1      34.918  44.711  63.483  0.00  0.00     0.076 A 
HETATM   11  C   UNK N   1      36.678  44.536  61.810  0.00  0.00     0.074 A 
HETATM   12  C   UNK N   1      35.841  45.260  64.397  0.00  0.00     0.085 A 
HETATM   13  C   UNK N   1      33.484  44.500  63.814  0.00  0.00     0.167 C 
HETATM   14  C   UNK N   1      37.177  45.443  64.004  0.00  0.00     0.074 A 
HETATM   15  C   UNK N   1      37.593  45.090  62.712  0.00  0.00     0.071 A 
HETATM   16  O   UNK N   1      33.061  44.651  64.949  0.00  0.00    -0.292 OA
HETATM   17  C   UNK N   1      32.554  44.076  62.708  0.00  0.00     0.121 C 
BRANCH  12  18
HETATM   18  O   UNK N   1      35.449  45.609  65.641  0.00  0.00    -0.360 OA
HETATM   19  H   UNK N   1      34.562  45.409  65.972  0.00  0.00     0.217 HD
ENDBRANCH  12  18
BRANCH  15  20
HETATM   20  O   UNK N   1      38.875  45.267  62.332  0.00  0.00    -0.361 OA
HETATM   21  H   UNK N   1      39.249  44.801  61.570  0.00  0.00     0.217 HD
ENDBRANCH  15  20
ENDBRANCH   2   7
BRANCH   3  22
HETATM   22  C   UNK N   1      30.123  39.772  60.000  0.00  0.00     0.015 C 
HETATM   23  C   UNK N   1      30.575  38.602  59.512  0.00  0.00     0.007 C 
BRANCH  23  24
HETATM   24  C   UNK N   1      29.825  37.324  59.686  0.00  0.00    -0.071 C 
HETATM   25  C   UNK N   1      29.204  36.774  58.633  0.00  0.00     0.018 C 
HETATM   26  C   UNK N   1      29.744  36.653  61.037  0.00  0.00     0.047 C 
ENDBRANCH  23  24
ENDBRANCH   3  22
BRANCH   4  27
HETATM   27  C   UNK N   1      31.311  43.847  57.207  0.00  0.00     0.068 C 
BRANCH  27  28
HETATM   28  C   UNK N   1      31.218  45.302  57.604  0.00  0.00    -0.020 C 
HETATM   29  C   UNK N   1      30.097  45.958  58.000  0.00  0.00    -0.091 C 
HETATM   30  C   UNK N   1      30.195  47.418  58.361  0.00  0.00     0.042 C 
HETATM   31  C   UNK N   1      28.730  45.322  58.112  0.00  0.00     0.042 C 
ENDBRANCH  27  28
ENDBRANCH   4  27
BRANCH   1  32
HETATM   32  O   UNK N   1      29.826  41.498  57.576  0.00  0.00    -0.355 OA
HETATM   33  C   UNK N   1      28.463  41.704  57.513  0.00  0.00     0.210 C 
ENDBRANCH   1  32
TORSDOF 8
ENDMDL
MODEL 7
REMARK VINA RESULT:      -5.7     22.730     25.597
REMARK  8 active torsions:
REMARK  status: ('A' for Active; 'I' for Inactive)
REMARK    1  A    between atoms: O_2  and  C_7 
REMARK    2  A    between atoms: O_3  and  C_8 
REMARK    3  A    between atoms: O_4  and  C_9 
REMARK    4  A    between atoms: C_10  and  C_18 
REMARK    5  A    between atoms: C_12  and  C_21 
REMARK    6  A    between atoms: C_13  and  C_22 
REMARK    7  A    between atoms: C_22  and  C_27 
REMARK    8  A    between atoms: C_25  and  C_26 
ROOT
HETATM    1  C   UNK N   1      30.632  44.337  59.611  0.00  0.00     0.085 A 
HETATM    2  C   UNK N   1      29.418  42.834  57.543  0.00  0.00    -0.027 A 
HETATM    3  C   UNK N   1      30.344  44.939  58.351  0.00  0.00    -0.002 A 
HETATM    4  C   UNK N   1      30.335  42.968  59.796  0.00  0.00    -0.020 A 
HETATM    5  C   UNK N   1      29.744  44.180  57.339  0.00  0.00     0.024 A 
HETATM    6  C   UNK N   1      29.720  42.231  58.770  0.00  0.00     0.020 A 
ENDROOT
BRANCH   2   7
HETATM    7  C   UNK N   1      28.711  42.073  56.444  0.00  0.00     0.169 C 
HETATM    8  O   UNK N   1      28.908  42.659  55.198  0.00  0.00    -0.340 OA
HETATM    9  C   UNK N   1      28.455  42.066  54.058  0.00  0.00     0.089 A 
HETATM   10  C   UNK N   1      28.165  40.684  54.048  0.00  0.00     0.076 A 
HETATM   11  C   UNK N   1      28.255  42.833  52.908  0.00  0.00     0.074 A 
HETATM   12  C   UNK N   1      27.629  40.090  52.885  0.00  0.00     0.085 A 
HETATM   13  C   UNK N   1      28.437  39.918  55.292  0.00  0.00     0.167 C 
HETATM   14  C   UNK N   1      27.414  40.879  51.744  0.00  0.00     0.074 A 
HETATM   15  C   UNK N   1      27.734  42.245  51.752  0.00  0.00     0.071 A 
HETATM   16  O   UNK N   1      28.070  38.760  55.423  0.00  0.00    -0.292 OA
HETATM   17  C   UNK N   1      29.174  40.610  56.407  0.00  0.00     0.121 C 
BRANCH  12  18
HETATM   18  O   UNK N   1      27.324  38.776  52.866  0.00  0.00    -0.360 OA
HETATM   19  H   UNK N   1      26.458  38.447  53.147  0.00  0.00     0.217 HD
ENDBRANCH  12  18
BRANCH  15  20
HETATM   20  O   UNK N   1      27.530  43.003  50.655  0.00  0.00    -0.361 OA
HETATM   21  H   UNK N   1      27.234  43.922  50.719  0.00  0.00     0.217 HD
ENDBRANCH  15  20
ENDBRANCH   2   7
BRANCH   3  22
HETATM   22  C   UNK N   1      30.628  46.354  58.059  0.00  0.00     0.015 C 
HETATM   23  C   UNK N   1      29.727  47.315  58.333  0.00  0.00     0.007 C 
BRANCH  23  24
HETATM   24  C   UNK N   1      29.966  48.749  57.999  0.00  0.00    -0.071 C 
HETATM   25  C   UNK N   1      29.663  49.696  58.899  0.00  0.00     0.018 C 
HETATM   26  C   UNK N   1      30.530  49.146  56.656  0.00  0.00     0.047 C 
ENDBRANCH  23  24
ENDBRANCH   3  22
BRANCH   4  27
HETATM   27  C   UNK N   1      30.628  42.292  61.113  0.00  0.00     0.068 C 
BRANCH  27  28
HETATM   28  C   UNK N   1      30.926  40.830  60.875  0.00  0.00    -0.020 C 
HETATM   29  C   UNK N   1      32.097  40.311  60.426  0.00  0.00    -0.091 C 
HETATM   30  C   UNK N   1      32.213  38.818  60.248  0.00  0.00     0.042 C 
HETATM   31  C   UNK N   1      33.320  41.131  60.085  0.00  0.00     0.042 C 
ENDBRANCH  27  28
ENDBRANCH   4  27
BRANCH   1  32
HETATM   32  O   UNK N   1      31.161  45.010  60.678  0.00  0.00    -0.355 OA
HETATM   33  C   UNK N   1      30.515  45.791  61.614  0.00  0.00     0.210 C 
ENDBRANCH   1  32
TORSDOF 8
ENDMDL
MODEL 8
REMARK VINA RESULT:      -5.7     20.977     24.500
REMARK  8 active torsions:
REMARK  status: ('A' for Active; 'I' for Inactive)
REMARK    1  A    between atoms: O_2  and  C_7 
REMARK    2  A    between atoms: O_3  and  C_8 
REMARK    3  A    between atoms: O_4  and  C_9 
REMARK    4  A    between atoms: C_10  and  C_18 
REMARK    5  A    between atoms: C_12  and  C_21 
REMARK    6  A    between atoms: C_13  and  C_22 
REMARK    7  A    between atoms: C_22  and  C_27 
REMARK    8  A    between atoms: C_25  and  C_26 
ROOT
HETATM    1  C   UNK N   1      26.542  39.604  52.685  0.00  0.00     0.085 A 
HETATM    2  C   UNK N   1      28.163  41.356  54.206  0.00  0.00    -0.027 A 
HETATM    3  C   UNK N   1      26.544  41.005  52.417  0.00  0.00    -0.002 A 
HETATM    4  C   UNK N   1      27.335  39.112  53.746  0.00  0.00    -0.020 A 
HETATM    5  C   UNK N   1      27.351  41.857  53.181  0.00  0.00     0.024 A 
HETATM    6  C   UNK N   1      28.147  39.984  54.488  0.00  0.00     0.020 A 
ENDROOT
BRANCH   2   7
HETATM    7  C   UNK N   1      29.068  42.305  54.958  0.00  0.00     0.169 C 
HETATM    8  O   UNK N   1      28.537  42.656  56.196  0.00  0.00    -0.340 OA
HETATM    9  C   UNK N   1      29.247  43.408  57.082  0.00  0.00     0.089 A 
HETATM   10  C   UNK N   1      30.653  43.493  56.971  0.00  0.00     0.076 A 
HETATM   11  C   UNK N   1      28.580  44.114  58.085  0.00  0.00     0.074 A 
HETATM   12  C   UNK N   1      31.375  44.329  57.848  0.00  0.00     0.085 A 
HETATM   13  C   UNK N   1      31.305  42.685  55.907  0.00  0.00     0.167 C 
HETATM   14  C   UNK N   1      30.687  45.049  58.838  0.00  0.00     0.074 A 
HETATM   15  C   UNK N   1      29.294  44.936  58.962  0.00  0.00     0.071 A 
HETATM   16  O   UNK N   1      32.489  42.820  55.637  0.00  0.00    -0.292 OA
HETATM   17  C   UNK N   1      30.463  41.694  55.149  0.00  0.00     0.121 C 
BRANCH  12  18
HETATM   18  O   UNK N   1      32.715  44.440  57.740  0.00  0.00    -0.360 OA
HETATM   19  H   UNK N   1      33.269  44.704  58.490  0.00  0.00     0.217 HD
ENDBRANCH  12  18
BRANCH  15  20
HETATM   20  O   UNK N   1      28.632  45.625  59.915  0.00  0.00    -0.361 OA
HETATM   21  H   UNK N   1      28.654  45.357  60.844  0.00  0.00     0.217 HD
ENDBRANCH  15  20
ENDBRANCH   2   7
BRANCH   3  22
HETATM   22  C   UNK N   1      25.743  41.614  51.343  0.00  0.00     0.015 C 
HETATM   23  C   UNK N   1      25.775  42.940  51.117  0.00  0.00     0.007 C 
BRANCH  23  24
HETATM   24  C   UNK N   1      24.933  43.590  50.071  0.00  0.00    -0.071 C 
HETATM   25  C   UNK N   1      24.909  43.079  48.831  0.00  0.00     0.018 C 
HETATM   26  C   UNK N   1      24.122  44.824  50.388  0.00  0.00     0.047 C 
ENDBRANCH  23  24
ENDBRANCH   3  22
BRANCH   4  27
HETATM   27  C   UNK N   1      27.356  37.637  54.064  0.00  0.00     0.068 C 
BRANCH  27  28
HETATM   28  C   UNK N   1      28.783  37.140  54.059  0.00  0.00    -0.020 C 
HETATM   29  C   UNK N   1      29.490  36.713  55.137  0.00  0.00    -0.091 C 
HETATM   30  C   UNK N   1      30.911  36.250  54.941  0.00  0.00     0.042 C 
HETATM   31  C   UNK N   1      28.949  36.665  56.548  0.00  0.00     0.042 C 
ENDBRANCH  27  28
ENDBRANCH   4  27
BRANCH   1  32
HETATM   32  O   UNK N   1      25.834  38.688  51.957  0.00  0.00    -0.355 OA
HETATM   33  C   UNK N   1      24.498  38.355  52.052  0.00  0.00     0.210 C 
ENDBRANCH   1  32
TORSDOF 8
ENDMDL
MODEL 9
REMARK VINA RESULT:      -5.7      2.067      7.581
REMARK  8 active torsions:
REMARK  status: ('A' for Active; 'I' for Inactive)
REMARK    1  A    between atoms: O_2  and  C_7 
REMARK    2  A    between atoms: O_3  and  C_8 
REMARK    3  A    between atoms: O_4  and  C_9 
REMARK    4  A    between atoms: C_10  and  C_18 
REMARK    5  A    between atoms: C_12  and  C_21 
REMARK    6  A    between atoms: C_13  and  C_22 
REMARK    7  A    between atoms: C_22  and  C_27 
REMARK    8  A    between atoms: C_25  and  C_26 
ROOT
HETATM    1  C   UNK N   1      49.120  33.286  52.601  0.00  0.00     0.085 A 
HETATM    2  C   UNK N   1      50.380  32.379  50.234  0.00  0.00    -0.027 A 
HETATM    3  C   UNK N   1      50.543  33.260  52.502  0.00  0.00    -0.002 A 
HETATM    4  C   UNK N   1      48.352  32.816  51.512  0.00  0.00    -0.020 A 
HETATM    5  C   UNK N   1      51.149  32.808  51.323  0.00  0.00     0.024 A 
HETATM    6  C   UNK N   1      48.983  32.381  50.335  0.00  0.00     0.020 A 
ENDROOT
BRANCH   2   7
HETATM    7  C   UNK N   1      51.077  31.963  48.959  0.00  0.00     0.169 C 
HETATM    8  O   UNK N   1      50.274  32.159  47.840  0.00  0.00    -0.340 OA
HETATM    9  C   UNK N   1      50.754  31.959  46.582  0.00  0.00     0.089 A 
HETATM   10  C   UNK N   1      52.146  31.966  46.346  0.00  0.00     0.076 A 
HETATM   11  C   UNK N   1      49.866  31.723  45.529  0.00  0.00     0.074 A 
HETATM   12  C   UNK N   1      52.639  31.688  45.054  0.00  0.00     0.085 A 
HETATM   13  C   UNK N   1      53.034  32.264  47.500  0.00  0.00     0.167 C 
HETATM   14  C   UNK N   1      51.735  31.431  44.011  0.00  0.00     0.074 A 
HETATM   15  C   UNK N   1      50.352  31.456  44.245  0.00  0.00     0.071 A 
HETATM   16  O   UNK N   1      54.246  32.134  47.425  0.00  0.00    -0.292 OA
HETATM   17  C   UNK N   1      52.400  32.722  48.787  0.00  0.00     0.121 C 
BRANCH  12  18
HETATM   18  O   UNK N   1      53.967  31.667  44.816  0.00  0.00    -0.360 OA
HETATM   19  H   UNK N   1      54.597  32.124  45.393  0.00  0.00     0.217 HD
ENDBRANCH  12  18
BRANCH  15  20
HETATM   20  O   UNK N   1      49.482  31.212  43.244  0.00  0.00    -0.361 OA
HETATM   21  H   UNK N   1      48.524  31.247  43.382  0.00  0.00     0.217 HD
ENDBRANCH  15  20
ENDBRANCH   2   7
BRANCH   3  22
HETATM   22  C   UNK N   1      51.427  33.716  53.587  0.00  0.00     0.015 C 
HETATM   23  C   UNK N   1      51.735  35.018  53.731  0.00  0.00     0.007 C 
BRANCH  23  24
HETATM   24  C   UNK N   1      52.671  35.502  54.788  0.00  0.00    -0.071 C 
HETATM   25  C   UNK N   1      53.349  36.643  54.597  0.00  0.00     0.018 C 
HETATM   26  C   UNK N   1      52.874  34.714  56.060  0.00  0.00     0.047 C 
ENDBRANCH  23  24
ENDBRANCH   3  22
BRANCH   4  27
HETATM   27  C   UNK N   1      46.844  32.822  51.579  0.00  0.00     0.068 C 
BRANCH  27  28
HETATM   28  C   UNK N   1      46.276  32.619  50.194  0.00  0.00    -0.020 C 
HETATM   29  C   UNK N   1      45.499  33.495  49.507  0.00  0.00    -0.091 C 
HETATM   30  C   UNK N   1      45.020  33.120  48.128  0.00  0.00     0.042 C 
HETATM   31  C   UNK N   1      45.069  34.847  50.030  0.00  0.00     0.042 C 
ENDBRANCH  27  28
ENDBRANCH   4  27
BRANCH   1  32
HETATM   32  O   UNK N   1      48.437  33.765  53.685  0.00  0.00    -0.355 OA
HETATM   33  C   UNK N   1      48.002  33.082  54.803  0.00  0.00     0.210 C 
ENDBRANCH   1  32
TORSDOF 8
ENDMDL
