MODEL 1
REMARK VINA RESULT:      -5.9      0.000      0.000
REMARK  7 active torsions:
REMARK  status: ('A' for Active; 'I' for Inactive)
REMARK    1  A    between atoms: O_3  and  C_12 
REMARK    2  A    between atoms: O_4  and  C_13 
REMARK    3  A    between atoms: O_5  and  C_14 
REMARK    4  A    between atoms: O_6  and  C_15 
REMARK    5  A    between atoms: O_7  and  C_16 
REMARK    6  A    between atoms: O_8  and  C_17 
REMARK    7  A    between atoms: C_10  and  C_19 
ROOT
HETATM    1  O   UNK N   1      30.914  53.383  42.138  0.00  0.00    -0.309 OA
HETATM    2  O   UNK N   1      32.886  50.015  42.824  0.00  0.00    -0.287 OA
HETATM    3  C   UNK N   1      31.790  53.366  43.134  0.00  0.00     0.095 A 
HETATM    4  C   UNK N   1      30.683  52.342  41.341  0.00  0.00     0.093 A 
HETATM    5  C   UNK N   1      32.295  51.061  42.621  0.00  0.00     0.190 A 
HETATM    6  C   UNK N   1      32.906  54.550  44.940  0.00  0.00     0.073 A 
HETATM    7  C   UNK N   1      33.443  52.211  44.502  0.00  0.00     0.085 A 
HETATM    8  C   UNK N   1      32.522  52.198  43.426  0.00  0.00     0.081 A 
HETATM    9  C   UNK N   1      31.377  51.138  41.571  0.00  0.00     0.094 A 
HETATM   10  C   UNK N   1      31.980  54.528  43.881  0.00  0.00     0.075 A 
HETATM   11  C   UNK N   1      33.624  53.390  45.246  0.00  0.00     0.074 A 
ENDROOT
BRANCH   4  12
HETATM   12  C   UNK N   1      29.666  52.521  40.254  0.00  0.00     0.037 A 
HETATM   13  C   UNK N   1      29.700  53.582  39.317  0.00  0.00     0.117 A 
HETATM   14  C   UNK N   1      28.700  53.662  38.304  0.00  0.00     0.139 A 
HETATM   15  C   UNK N   1      27.629  52.721  38.287  0.00  0.00     0.138 A 
HETATM   16  C   UNK N   1      27.601  51.678  39.245  0.00  0.00     0.105 A 
HETATM   17  C   UNK N   1      28.618  51.596  40.204  0.00  0.00     0.057 A 
BRANCH  13  18
HETATM   18  O   UNK N   1      30.674  54.527  39.455  0.00  0.00    -0.352 OA
HETATM   19  C   UNK N   1      30.567  55.785  40.016  0.00  0.00     0.210 C 
ENDBRANCH  13  18
BRANCH  14  20
HETATM   20  O   UNK N   1      28.806  54.654  37.374  0.00  0.00    -0.351 OA
HETATM   21  C   UNK N   1      28.199  55.896  37.375  0.00  0.00     0.210 C 
ENDBRANCH  14  20
BRANCH  15  22
HETATM   22  O   UNK N   1      26.641  52.879  37.361  0.00  0.00    -0.351 OA
HETATM   23  C   UNK N   1      25.423  53.510  37.521  0.00  0.00     0.210 C 
ENDBRANCH  15  22
BRANCH  16  24
HETATM   24  O   UNK N   1      26.600  50.755  39.218  0.00  0.00    -0.353 OA
HETATM   25  C   UNK N   1      25.612  50.598  40.171  0.00  0.00     0.210 C 
ENDBRANCH  16  24
ENDBRANCH   4  12
BRANCH   7  26
HETATM   26  O   UNK N   1      34.152  51.106  44.817  0.00  0.00    -0.360 OA
HETATM   27  H   UNK N   1      34.931  50.835  44.309  0.00  0.00     0.217 HD
ENDBRANCH   7  26
BRANCH   6  28
HETATM   28  O   UNK N   1      33.130  55.672  45.678  0.00  0.00    -0.356 OA
HETATM   29  C   UNK N   1      34.341  56.327  45.773  0.00  0.00     0.210 C 
ENDBRANCH   6  28
TORSDOF 7
ENDMDL
MODEL 2
REMARK VINA RESULT:      -5.6      2.753      4.164
REMARK  7 active torsions:
REMARK  status: ('A' for Active; 'I' for Inactive)
REMARK    1  A    between atoms: O_3  and  C_12 
REMARK    2  A    between atoms: O_4  and  C_13 
REMARK    3  A    between atoms: O_5  and  C_14 
REMARK    4  A    between atoms: O_6  and  C_15 
REMARK    5  A    between atoms: O_7  and  C_16 
REMARK    6  A    between atoms: O_8  and  C_17 
REMARK    7  A    between atoms: C_10  and  C_19 
ROOT
HETATM    1  O   UNK N   1      30.582  53.405  42.233  0.00  0.00    -0.309 OA
HETATM    2  O   UNK N   1      32.600  55.255  45.097  0.00  0.00    -0.287 OA
HETATM    3  C   UNK N   1      31.520  52.722  42.874  0.00  0.00     0.095 A 
HETATM    4  C   UNK N   1      30.262  54.665  42.517  0.00  0.00     0.093 A 
HETATM    5  C   UNK N   1      31.983  54.668  44.225  0.00  0.00     0.190 A 
HETATM    6  C   UNK N   1      32.726  50.633  43.182  0.00  0.00     0.073 A 
HETATM    7  C   UNK N   1      33.272  52.570  44.562  0.00  0.00     0.085 A 
HETATM    8  C   UNK N   1      32.271  53.325  43.903  0.00  0.00     0.081 A 
HETATM    9  C   UNK N   1      30.970  55.337  43.534  0.00  0.00     0.094 A 
HETATM   10  C   UNK N   1      31.744  51.392  42.519  0.00  0.00     0.075 A 
HETATM   11  C   UNK N   1      33.486  51.231  44.192  0.00  0.00     0.074 A 
ENDROOT
BRANCH   4  12
HETATM   12  C   UNK N   1      29.172  55.299  41.706  0.00  0.00     0.037 A 
HETATM   13  C   UNK N   1      29.342  55.734  40.370  0.00  0.00     0.117 A 
HETATM   14  C   UNK N   1      28.242  56.310  39.669  0.00  0.00     0.139 A 
HETATM   15  C   UNK N   1      27.001  56.515  40.340  0.00  0.00     0.138 A 
HETATM   16  C   UNK N   1      26.855  56.091  41.684  0.00  0.00     0.105 A 
HETATM   17  C   UNK N   1      27.938  55.490  42.338  0.00  0.00     0.057 A 
BRANCH  13  18
HETATM   18  O   UNK N   1      30.585  55.630  39.816  0.00  0.00    -0.352 OA
HETATM   19  C   UNK N   1      31.067  54.638  38.985  0.00  0.00     0.210 C 
ENDBRANCH  13  18
BRANCH  14  20
HETATM   20  O   UNK N   1      28.422  56.650  38.360  0.00  0.00    -0.351 OA
HETATM   21  C   UNK N   1      28.944  57.821  37.845  0.00  0.00     0.210 C 
ENDBRANCH  14  20
BRANCH  15  22
HETATM   22  O   UNK N   1      25.998  57.149  39.669  0.00  0.00    -0.351 OA
HETATM   23  C   UNK N   1      25.704  58.499  39.664  0.00  0.00     0.210 C 
ENDBRANCH  15  22
BRANCH  16  24
HETATM   24  O   UNK N   1      25.664  56.253  42.324  0.00  0.00    -0.353 OA
HETATM   25  C   UNK N   1      25.385  57.194  43.297  0.00  0.00     0.210 C 
ENDBRANCH  16  24
ENDBRANCH   4  12
BRANCH   7  26
HETATM   26  O   UNK N   1      34.018  53.120  45.543  0.00  0.00    -0.360 OA
HETATM   27  H   UNK N   1      34.580  52.583  46.120  0.00  0.00     0.217 HD
ENDBRANCH   7  26
BRANCH   6  28
HETATM   28  O   UNK N   1      32.958  49.328  42.874  0.00  0.00    -0.356 OA
HETATM   29  C   UNK N   1      34.041  48.592  43.311  0.00  0.00     0.210 C 
ENDBRANCH   6  28
TORSDOF 7
ENDMDL
MODEL 3
REMARK VINA RESULT:      -5.6      3.457      7.285
REMARK  7 active torsions:
REMARK  status: ('A' for Active; 'I' for Inactive)
REMARK    1  A    between atoms: O_3  and  C_12 
REMARK    2  A    between atoms: O_4  and  C_13 
REMARK    3  A    between atoms: O_5  and  C_14 
REMARK    4  A    between atoms: O_6  and  C_15 
REMARK    5  A    between atoms: O_7  and  C_16 
REMARK    6  A    between atoms: O_8  and  C_17 
REMARK    7  A    between atoms: C_10  and  C_19 
ROOT
HETATM    1  O   UNK N   1      28.577  55.013  42.273  0.00  0.00    -0.309 OA
HETATM    2  O   UNK N   1      29.813  58.018  40.005  0.00  0.00    -0.287 OA
HETATM    3  C   UNK N   1      27.746  56.027  42.075  0.00  0.00     0.095 A 
HETATM    4  C   UNK N   1      29.790  54.937  41.729  0.00  0.00     0.093 A 
HETATM    5  C   UNK N   1      29.414  57.099  40.698  0.00  0.00     0.190 A 
HETATM    6  C   UNK N   1      25.570  57.037  42.470  0.00  0.00     0.073 A 
HETATM    7  C   UNK N   1      27.219  58.195  41.094  0.00  0.00     0.085 A 
HETATM    8  C   UNK N   1      28.128  57.124  41.278  0.00  0.00     0.081 A 
HETATM    9  C   UNK N   1      30.244  55.997  40.920  0.00  0.00     0.094 A 
HETATM   10  C   UNK N   1      26.481  55.984  42.662  0.00  0.00     0.075 A 
HETATM   11  C   UNK N   1      25.949  58.137  41.693  0.00  0.00     0.074 A 
ENDROOT
BRANCH   4  12
HETATM   12  C   UNK N   1      30.609  53.721  42.042  0.00  0.00     0.037 A 
HETATM   13  C   UNK N   1      30.603  52.548  41.250  0.00  0.00     0.117 A 
HETATM   14  C   UNK N   1      31.429  51.444  41.615  0.00  0.00     0.139 A 
HETATM   15  C   UNK N   1      32.196  51.498  42.816  0.00  0.00     0.138 A 
HETATM   16  C   UNK N   1      32.174  52.673  43.606  0.00  0.00     0.105 A 
HETATM   17  C   UNK N   1      31.386  53.759  43.205  0.00  0.00     0.057 A 
BRANCH  13  18
HETATM   18  O   UNK N   1      29.756  52.501  40.181  0.00  0.00    -0.352 OA
HETATM   19  C   UNK N   1      28.482  51.969  40.127  0.00  0.00     0.210 C 
ENDBRANCH  13  18
BRANCH  14  20
HETATM   20  O   UNK N   1      31.455  50.360  40.788  0.00  0.00    -0.351 OA
HETATM   21  C   UNK N   1      30.771  49.167  40.922  0.00  0.00     0.210 C 
ENDBRANCH  14  20
BRANCH  15  22
HETATM   22  O   UNK N   1      32.906  50.393  43.182  0.00  0.00    -0.351 OA
HETATM   23  C   UNK N   1      32.608  49.490  44.184  0.00  0.00     0.210 C 
ENDBRANCH  15  22
BRANCH  16  24
HETATM   24  O   UNK N   1      32.927  52.747  44.739  0.00  0.00    -0.353 OA
HETATM   25  C   UNK N   1      33.651  53.844  45.165  0.00  0.00     0.210 C 
ENDBRANCH  16  24
ENDBRANCH   4  12
BRANCH   7  26
HETATM   26  O   UNK N   1      27.557  59.267  40.347  0.00  0.00    -0.360 OA
HETATM   27  H   UNK N   1      28.471  59.432  40.072  0.00  0.00     0.217 HD
ENDBRANCH   7  26
BRANCH   6  28
HETATM   28  O   UNK N   1      24.322  57.019  43.013  0.00  0.00    -0.356 OA
HETATM   29  C   UNK N   1      23.912  57.790  44.082  0.00  0.00     0.210 C 
ENDBRANCH   6  28
TORSDOF 7
ENDMDL
MODEL 4
REMARK VINA RESULT:      -5.1      3.173      7.256
REMARK  7 active torsions:
REMARK  status: ('A' for Active; 'I' for Inactive)
REMARK    1  A    between atoms: O_3  and  C_12 
REMARK    2  A    between atoms: O_4  and  C_13 
REMARK    3  A    between atoms: O_5  and  C_14 
REMARK    4  A    between atoms: O_6  and  C_15 
REMARK    5  A    between atoms: O_7  and  C_16 
REMARK    6  A    between atoms: O_8  and  C_17 
REMARK    7  A    between atoms: C_10  and  C_19 
ROOT
HETATM    1  O   UNK N   1      28.683  54.895  42.247  0.00  0.00    -0.309 OA
HETATM    2  O   UNK N   1      30.092  57.849  40.012  0.00  0.00    -0.287 OA
HETATM    3  C   UNK N   1      27.870  55.903  41.963  0.00  0.00     0.095 A 
HETATM    4  C   UNK N   1      29.934  54.807  41.799  0.00  0.00     0.093 A 
HETATM    5  C   UNK N   1      29.639  56.945  40.693  0.00  0.00     0.190 A 
HETATM    6  C   UNK N   1      25.671  56.920  42.166  0.00  0.00     0.073 A 
HETATM    7  C   UNK N   1      27.422  58.048  40.894  0.00  0.00     0.085 A 
HETATM    8  C   UNK N   1      28.313  56.983  41.172  0.00  0.00     0.081 A 
HETATM    9  C   UNK N   1      30.449  55.849  41.003  0.00  0.00     0.094 A 
HETATM   10  C   UNK N   1      26.564  55.872  42.452  0.00  0.00     0.075 A 
HETATM   11  C   UNK N   1      26.109  58.002  41.396  0.00  0.00     0.074 A 
ENDROOT
BRANCH   4  12
HETATM   12  C   UNK N   1      30.725  53.600  42.202  0.00  0.00     0.037 A 
HETATM   13  C   UNK N   1      31.491  53.526  43.391  0.00  0.00     0.117 A 
HETATM   14  C   UNK N   1      32.199  52.328  43.702  0.00  0.00     0.139 A 
HETATM   15  C   UNK N   1      32.196  51.241  42.779  0.00  0.00     0.138 A 
HETATM   16  C   UNK N   1      31.440  51.341  41.585  0.00  0.00     0.105 A 
HETATM   17  C   UNK N   1      30.719  52.512  41.322  0.00  0.00     0.057 A 
BRANCH  13  18
HETATM   18  O   UNK N   1      31.561  54.639  44.177  0.00  0.00    -0.352 OA
HETATM   19  C   UNK N   1      32.618  55.517  44.317  0.00  0.00     0.210 C 
ENDBRANCH  13  18
BRANCH  14  20
HETATM   20  O   UNK N   1      32.865  52.266  44.891  0.00  0.00    -0.351 OA
HETATM   21  C   UNK N   1      34.229  52.247  45.107  0.00  0.00     0.210 C 
ENDBRANCH  14  20
BRANCH  15  22
HETATM   22  O   UNK N   1      32.955  50.145  43.065  0.00  0.00    -0.351 OA
HETATM   23  C   UNK N   1      32.656  49.110  43.930  0.00  0.00     0.210 C 
ENDBRANCH  15  22
BRANCH  16  24
HETATM   24  O   UNK N   1      31.405  50.296  40.712  0.00  0.00    -0.353 OA
HETATM   25  C   UNK N   1      30.615  49.169  40.824  0.00  0.00     0.210 C 
ENDBRANCH  16  24
ENDBRANCH   4  12
BRANCH   7  26
HETATM   26  O   UNK N   1      27.817  59.103  40.151  0.00  0.00    -0.360 OA
HETATM   27  H   UNK N   1      27.277  59.903  40.071  0.00  0.00     0.217 HD
ENDBRANCH   7  26
BRANCH   6  28
HETATM   28  O   UNK N   1      24.385  56.913  42.612  0.00  0.00    -0.356 OA
HETATM   29  C   UNK N   1      23.267  56.911  41.804  0.00  0.00     0.210 C 
ENDBRANCH   6  28
TORSDOF 7
ENDMDL
MODEL 5
REMARK VINA RESULT:      -5.0     16.376     19.468
REMARK  7 active torsions:
REMARK  status: ('A' for Active; 'I' for Inactive)
REMARK    1  A    between atoms: O_3  and  C_12 
REMARK    2  A    between atoms: O_4  and  C_13 
REMARK    3  A    between atoms: O_5  and  C_14 
REMARK    4  A    between atoms: O_6  and  C_15 
REMARK    5  A    between atoms: O_7  and  C_16 
REMARK    6  A    between atoms: O_8  and  C_17 
REMARK    7  A    between atoms: C_10  and  C_19 
ROOT
HETATM    1  O   UNK N   1      30.479  45.224  59.744  0.00  0.00    -0.309 OA
HETATM    2  O   UNK N   1      32.861  43.178  57.327  0.00  0.00    -0.287 OA
HETATM    3  C   UNK N   1      31.238  44.275  60.275  0.00  0.00     0.095 A 
HETATM    4  C   UNK N   1      30.495  45.546  58.453  0.00  0.00     0.093 A 
HETATM    5  C   UNK N   1      32.141  43.803  58.086  0.00  0.00     0.190 A 
HETATM    6  C   UNK N   1      31.963  43.056  62.249  0.00  0.00     0.073 A 
HETATM    7  C   UNK N   1      32.896  42.501  60.063  0.00  0.00     0.085 A 
HETATM    8  C   UNK N   1      32.105  43.514  59.466  0.00  0.00     0.081 A 
HETATM    9  C   UNK N   1      31.337  44.828  57.580  0.00  0.00     0.094 A 
HETATM   10  C   UNK N   1      31.169  44.049  61.650  0.00  0.00     0.075 A 
HETATM   11  C   UNK N   1      32.815  42.285  61.451  0.00  0.00     0.074 A 
ENDROOT
BRANCH   4  12
HETATM   12  C   UNK N   1      29.583  46.649  58.007  0.00  0.00     0.037 A 
HETATM   13  C   UNK N   1      28.172  46.540  57.991  0.00  0.00     0.117 A 
HETATM   14  C   UNK N   1      27.383  47.649  57.567  0.00  0.00     0.139 A 
HETATM   15  C   UNK N   1      28.018  48.833  57.090  0.00  0.00     0.138 A 
HETATM   16  C   UNK N   1      29.432  48.916  57.095  0.00  0.00     0.105 A 
HETATM   17  C   UNK N   1      30.185  47.828  57.555  0.00  0.00     0.057 A 
BRANCH  13  18
HETATM   18  O   UNK N   1      27.618  45.342  58.338  0.00  0.00    -0.352 OA
HETATM   19  C   UNK N   1      27.235  44.308  57.506  0.00  0.00     0.210 C 
ENDBRANCH  13  18
BRANCH  14  20
HETATM   20  O   UNK N   1      26.025  47.534  57.635  0.00  0.00    -0.351 OA
HETATM   21  C   UNK N   1      25.195  47.817  58.703  0.00  0.00     0.210 C 
ENDBRANCH  14  20
BRANCH  15  22
HETATM   22  O   UNK N   1      27.236  49.840  56.608  0.00  0.00    -0.351 OA
HETATM   23  C   UNK N   1      26.714  50.913  57.305  0.00  0.00     0.210 C 
ENDBRANCH  15  22
BRANCH  16  24
HETATM   24  O   UNK N   1      30.049  50.054  56.670  0.00  0.00    -0.353 OA
HETATM   25  C   UNK N   1      31.053  50.131  55.724  0.00  0.00     0.210 C 
ENDBRANCH  16  24
ENDBRANCH   4  12
BRANCH   7  26
HETATM   26  O   UNK N   1      33.728  41.745  59.317  0.00  0.00    -0.360 OA
HETATM   27  H   UNK N   1      34.679  41.700  59.497  0.00  0.00     0.217 HD
ENDBRANCH   7  26
BRANCH   6  28
HETATM   28  O   UNK N   1      31.935  42.821  63.590  0.00  0.00    -0.356 OA
HETATM   29  C   UNK N   1      30.902  43.175  64.433  0.00  0.00     0.210 C 
ENDBRANCH   6  28
TORSDOF 7
ENDMDL
MODEL 6
REMARK VINA RESULT:      -4.9     16.176     19.494
REMARK  7 active torsions:
REMARK  status: ('A' for Active; 'I' for Inactive)
REMARK    1  A    between atoms: O_3  and  C_12 
REMARK    2  A    between atoms: O_4  and  C_13 
REMARK    3  A    between atoms: O_5  and  C_14 
REMARK    4  A    between atoms: O_6  and  C_15 
REMARK    5  A    between atoms: O_7  and  C_16 
REMARK    6  A    between atoms: O_8  and  C_17 
REMARK    7  A    between atoms: C_10  and  C_19 
ROOT
HETATM    1  O   UNK N   1      25.961  36.873  44.693  0.00  0.00    -0.309 OA
HETATM    2  O   UNK N   1      22.852  37.471  42.310  0.00  0.00    -0.287 OA
HETATM    3  C   UNK N   1      25.688  38.118  44.326  0.00  0.00     0.095 A 
HETATM    4  C   UNK N   1      25.233  35.820  44.329  0.00  0.00     0.093 A 
HETATM    5  C   UNK N   1      23.806  37.306  43.050  0.00  0.00     0.190 A 
HETATM    6  C   UNK N   1      26.233  40.485  44.438  0.00  0.00     0.073 A 
HETATM    7  C   UNK N   1      24.336  39.733  43.100  0.00  0.00     0.085 A 
HETATM    8  C   UNK N   1      24.595  38.393  43.480  0.00  0.00     0.081 A 
HETATM    9  C   UNK N   1      24.124  36.016  43.483  0.00  0.00     0.094 A 
HETATM   10  C   UNK N   1      26.496  39.151  44.800  0.00  0.00     0.075 A 
HETATM   11  C   UNK N   1      25.160  40.764  43.586  0.00  0.00     0.074 A 
ENDROOT
BRANCH   4  12
HETATM   12  C   UNK N   1      25.666  34.476  44.834  0.00  0.00     0.037 A 
HETATM   13  C   UNK N   1      24.861  33.314  44.757  0.00  0.00     0.117 A 
HETATM   14  C   UNK N   1      25.364  32.074  45.247  0.00  0.00     0.139 A 
HETATM   15  C   UNK N   1      26.640  32.024  45.881  0.00  0.00     0.138 A 
HETATM   16  C   UNK N   1      27.423  33.202  45.966  0.00  0.00     0.105 A 
HETATM   17  C   UNK N   1      26.925  34.400  45.440  0.00  0.00     0.057 A 
BRANCH  13  18
HETATM   18  O   UNK N   1      23.599  33.442  44.256  0.00  0.00    -0.352 OA
HETATM   19  C   UNK N   1      22.413  33.562  44.955  0.00  0.00     0.210 C 
ENDBRANCH  13  18
BRANCH  14  20
HETATM   20  O   UNK N   1      24.591  30.960  45.089  0.00  0.00    -0.351 OA
HETATM   21  C   UNK N   1      23.667  30.429  45.969  0.00  0.00     0.210 C 
ENDBRANCH  14  20
BRANCH  15  22
HETATM   22  O   UNK N   1      27.053  30.841  46.418  0.00  0.00    -0.351 OA
HETATM   23  C   UNK N   1      26.839  30.373  47.699  0.00  0.00     0.210 C 
ENDBRANCH  15  22
BRANCH  16  24
HETATM   24  O   UNK N   1      28.657  33.159  46.541  0.00  0.00    -0.353 OA
HETATM   25  C   UNK N   1      28.942  33.390  47.873  0.00  0.00     0.210 C 
ENDBRANCH  16  24
ENDBRANCH   4  12
BRANCH   7  26
HETATM   26  O   UNK N   1      23.306  40.032  42.281  0.00  0.00    -0.360 OA
HETATM   27  H   UNK N   1      23.353  40.758  41.642  0.00  0.00     0.217 HD
ENDBRANCH   7  26
BRANCH   6  28
HETATM   28  O   UNK N   1      26.990  41.519  44.897  0.00  0.00    -0.356 OA
HETATM   29  C   UNK N   1      28.225  41.879  44.397  0.00  0.00     0.210 C 
ENDBRANCH   6  28
TORSDOF 7
ENDMDL
MODEL 7
REMARK VINA RESULT:      -4.9     16.041     18.412
REMARK  7 active torsions:
REMARK  status: ('A' for Active; 'I' for Inactive)
REMARK    1  A    between atoms: O_3  and  C_12 
REMARK    2  A    between atoms: O_4  and  C_13 
REMARK    3  A    between atoms: O_5  and  C_14 
REMARK    4  A    between atoms: O_6  and  C_15 
REMARK    5  A    between atoms: O_7  and  C_16 
REMARK    6  A    between atoms: O_8  and  C_17 
REMARK    7  A    between atoms: C_10  and  C_19 
ROOT
HETATM    1  O   UNK N   1      28.818  42.405  56.193  0.00  0.00    -0.309 OA
HETATM    2  O   UNK N   1      32.713  42.921  55.681  0.00  0.00    -0.287 OA
HETATM    3  C   UNK N   1      29.424  43.334  56.920  0.00  0.00     0.095 A 
HETATM    4  C   UNK N   1      29.440  41.659  55.283  0.00  0.00     0.093 A 
HETATM    5  C   UNK N   1      31.514  42.782  55.844  0.00  0.00     0.190 A 
HETATM    6  C   UNK N   1      29.272  45.085  58.599  0.00  0.00     0.073 A 
HETATM    7  C   UNK N   1      31.426  44.558  57.580  0.00  0.00     0.085 A 
HETATM    8  C   UNK N   1      30.808  43.564  56.782  0.00  0.00     0.081 A 
HETATM    9  C   UNK N   1      30.825  41.830  55.088  0.00  0.00     0.094 A 
HETATM   10  C   UNK N   1      28.666  44.086  57.816  0.00  0.00     0.075 A 
HETATM   11  C   UNK N   1      30.648  45.308  58.480  0.00  0.00     0.074 A 
ENDROOT
BRANCH   4  12
HETATM   12  C   UNK N   1      28.614  40.655  54.536  0.00  0.00     0.037 A 
HETATM   13  C   UNK N   1      27.865  40.966  53.375  0.00  0.00     0.117 A 
HETATM   14  C   UNK N   1      27.121  39.941  52.719  0.00  0.00     0.139 A 
HETATM   15  C   UNK N   1      27.073  38.630  53.277  0.00  0.00     0.138 A 
HETATM   16  C   UNK N   1      27.814  38.343  54.450  0.00  0.00     0.105 A 
HETATM   17  C   UNK N   1      28.569  39.356  55.053  0.00  0.00     0.057 A 
BRANCH  13  18
HETATM   18  O   UNK N   1      27.844  42.264  52.955  0.00  0.00    -0.352 OA
HETATM   19  C   UNK N   1      28.619  42.855  51.977  0.00  0.00     0.210 C 
ENDBRANCH  13  18
BRANCH  14  20
HETATM   20  O   UNK N   1      26.472  40.260  51.562  0.00  0.00    -0.351 OA
HETATM   21  C   UNK N   1      25.212  40.807  51.412  0.00  0.00     0.210 C 
ENDBRANCH  14  20
BRANCH  15  22
HETATM   22  O   UNK N   1      26.282  37.697  52.675  0.00  0.00    -0.351 OA
HETATM   23  C   UNK N   1      24.963  37.397  52.956  0.00  0.00     0.210 C 
ENDBRANCH  15  22
BRANCH  16  24
HETATM   24  O   UNK N   1      27.800  37.086  54.974  0.00  0.00    -0.353 OA
HETATM   25  C   UNK N   1      27.118  36.683  56.106  0.00  0.00     0.210 C 
ENDBRANCH  16  24
ENDBRANCH   4  12
BRANCH   7  26
HETATM   26  O   UNK N   1      32.751  44.797  57.483  0.00  0.00    -0.360 OA
HETATM   27  H   UNK N   1      33.258  45.172  58.217  0.00  0.00     0.217 HD
ENDBRANCH   7  26
BRANCH   6  28
HETATM   28  O   UNK N   1      28.559  45.850  59.471  0.00  0.00    -0.356 OA
HETATM   29  C   UNK N   1      29.051  46.950  60.144  0.00  0.00     0.210 C 
ENDBRANCH   6  28
TORSDOF 7
ENDMDL
MODEL 8
REMARK VINA RESULT:      -4.9     15.702     18.105
REMARK  7 active torsions:
REMARK  status: ('A' for Active; 'I' for Inactive)
REMARK    1  A    between atoms: O_3  and  C_12 
REMARK    2  A    between atoms: O_4  and  C_13 
REMARK    3  A    between atoms: O_5  and  C_14 
REMARK    4  A    between atoms: O_6  and  C_15 
REMARK    5  A    between atoms: O_7  and  C_16 
REMARK    6  A    between atoms: O_8  and  C_17 
REMARK    7  A    between atoms: C_10  and  C_19 
ROOT
HETATM    1  O   UNK N   1      28.894  42.645  56.107  0.00  0.00    -0.309 OA
HETATM    2  O   UNK N   1      32.841  42.625  55.750  0.00  0.00    -0.287 OA
HETATM    3  C   UNK N   1      29.612  43.167  57.093  0.00  0.00     0.095 A 
HETATM    4  C   UNK N   1      29.425  42.143  54.995  0.00  0.00     0.093 A 
HETATM    5  C   UNK N   1      31.629  42.648  55.872  0.00  0.00     0.190 A 
HETATM    6  C   UNK N   1      29.674  44.272  59.258  0.00  0.00     0.073 A 
HETATM    7  C   UNK N   1      31.755  43.747  58.098  0.00  0.00     0.085 A 
HETATM    8  C   UNK N   1      31.019  43.189  57.023  0.00  0.00     0.081 A 
HETATM    9  C   UNK N   1      30.827  42.129  54.852  0.00  0.00     0.094 A 
HETATM   10  C   UNK N   1      28.947  43.703  58.196  0.00  0.00     0.075 A 
HETATM   11  C   UNK N   1      31.071  44.282  59.203  0.00  0.00     0.074 A 
ENDROOT
BRANCH   4  12
HETATM   12  C   UNK N   1      28.480  41.595  53.968  0.00  0.00     0.037 A 
HETATM   13  C   UNK N   1      28.179  40.218  53.836  0.00  0.00     0.117 A 
HETATM   14  C   UNK N   1      27.254  39.790  52.840  0.00  0.00     0.139 A 
HETATM   15  C   UNK N   1      26.695  40.738  51.933  0.00  0.00     0.138 A 
HETATM   16  C   UNK N   1      27.024  42.110  52.068  0.00  0.00     0.105 A 
HETATM   17  C   UNK N   1      27.904  42.511  53.081  0.00  0.00     0.057 A 
BRANCH  13  18
HETATM   18  O   UNK N   1      28.837  39.338  54.646  0.00  0.00    -0.352 OA
HETATM   19  C   UNK N   1      28.444  38.861  55.881  0.00  0.00     0.210 C 
ENDBRANCH  13  18
BRANCH  14  20
HETATM   20  O   UNK N   1      26.931  38.465  52.790  0.00  0.00    -0.351 OA
HETATM   21  C   UNK N   1      25.888  37.815  53.421  0.00  0.00     0.210 C 
ENDBRANCH  14  20
BRANCH  15  22
HETATM   22  O   UNK N   1      25.883  40.284  50.937  0.00  0.00    -0.351 OA
HETATM   23  C   UNK N   1      24.504  40.211  50.936  0.00  0.00     0.210 C 
ENDBRANCH  15  22
BRANCH  16  24
HETATM   24  O   UNK N   1      26.472  43.028  51.228  0.00  0.00    -0.353 OA
HETATM   25  C   UNK N   1      25.363  43.809  51.490  0.00  0.00     0.210 C 
ENDBRANCH  16  24
ENDBRANCH   4  12
BRANCH   7  26
HETATM   26  O   UNK N   1      33.104  43.773  58.070  0.00  0.00    -0.360 OA
HETATM   27  H   UNK N   1      33.628  44.020  58.847  0.00  0.00     0.217 HD
ENDBRANCH   7  26
BRANCH   6  28
HETATM   28  O   UNK N   1      29.058  44.820  60.341  0.00  0.00    -0.356 OA
HETATM   29  C   UNK N   1      29.666  45.648  61.262  0.00  0.00     0.210 C 
ENDBRANCH   6  28
TORSDOF 7
ENDMDL
MODEL 9
REMARK VINA RESULT:      -4.9     15.774     18.178
REMARK  7 active torsions:
REMARK  status: ('A' for Active; 'I' for Inactive)
REMARK    1  A    between atoms: O_3  and  C_12 
REMARK    2  A    between atoms: O_4  and  C_13 
REMARK    3  A    between atoms: O_5  and  C_14 
REMARK    4  A    between atoms: O_6  and  C_15 
REMARK    5  A    between atoms: O_7  and  C_16 
REMARK    6  A    between atoms: O_8  and  C_17 
REMARK    7  A    between atoms: C_10  and  C_19 
ROOT
HETATM    1  O   UNK N   1      29.451  42.606  55.780  0.00  0.00    -0.309 OA
HETATM    2  O   UNK N   1      27.144  44.145  58.611  0.00  0.00    -0.287 OA
HETATM    3  C   UNK N   1      30.038  43.102  56.861  0.00  0.00     0.095 A 
HETATM    4  C   UNK N   1      28.131  42.572  55.608  0.00  0.00     0.093 A 
HETATM    5  C   UNK N   1      27.867  43.668  57.754  0.00  0.00     0.190 A 
HETATM    6  C   UNK N   1      32.086  43.560  58.087  0.00  0.00     0.073 A 
HETATM    7  C   UNK N   1      29.929  44.191  59.039  0.00  0.00     0.085 A 
HETATM    8  C   UNK N   1      29.270  43.662  57.902  0.00  0.00     0.081 A 
HETATM    9  C   UNK N   1      27.297  43.114  56.605  0.00  0.00     0.094 A 
HETATM   10  C   UNK N   1      31.428  43.050  56.954  0.00  0.00     0.075 A 
HETATM   11  C   UNK N   1      31.332  44.132  59.117  0.00  0.00     0.074 A 
ENDROOT
BRANCH   4  12
HETATM   12  C   UNK N   1      27.619  41.971  54.333  0.00  0.00     0.037 A 
HETATM   13  C   UNK N   1      27.601  40.579  54.075  0.00  0.00     0.117 A 
HETATM   14  C   UNK N   1      27.079  40.097  52.839  0.00  0.00     0.139 A 
HETATM   15  C   UNK N   1      26.650  41.019  51.840  0.00  0.00     0.138 A 
HETATM   16  C   UNK N   1      26.694  42.409  52.109  0.00  0.00     0.105 A 
HETATM   17  C   UNK N   1      27.173  42.857  53.346  0.00  0.00     0.057 A 
BRANCH  13  18
HETATM   18  O   UNK N   1      28.139  39.747  55.013  0.00  0.00    -0.352 OA
HETATM   19  C   UNK N   1      29.392  39.166  55.017  0.00  0.00     0.210 C 
ENDBRANCH  13  18
BRANCH  14  20
HETATM   20  O   UNK N   1      27.008  38.746  52.656  0.00  0.00    -0.351 OA
HETATM   21  C   UNK N   1      25.988  37.887  53.016  0.00  0.00     0.210 C 
ENDBRANCH  14  20
BRANCH  15  22
HETATM   22  O   UNK N   1      26.239  40.528  50.637  0.00  0.00    -0.351 OA
HETATM   23  C   UNK N   1      24.948  40.253  50.230  0.00  0.00     0.210 C 
ENDBRANCH  15  22
BRANCH  16  24
HETATM   24  O   UNK N   1      26.258  43.298  51.174  0.00  0.00    -0.353 OA
HETATM   25  C   UNK N   1      25.031  43.935  51.166  0.00  0.00     0.210 C 
ENDBRANCH  16  24
ENDBRANCH   4  12
BRANCH   7  26
HETATM   26  O   UNK N   1      29.227  44.746  60.048  0.00  0.00    -0.360 OA
HETATM   27  H   UNK N   1      29.652  45.038  60.868  0.00  0.00     0.217 HD
ENDBRANCH   7  26
BRANCH   6  28
HETATM   28  O   UNK N   1      33.440  43.509  58.219  0.00  0.00    -0.356 OA
HETATM   29  C   UNK N   1      34.117  42.732  59.137  0.00  0.00     0.210 C 
ENDBRANCH   6  28
TORSDOF 7
ENDMDL
