MODEL 1
REMARK VINA RESULT:      -4.7      0.000      0.000
REMARK  10 active torsions:
REMARK  status: ('A' for Active; 'I' for Inactive)
REMARK    1  A    between atoms: O_2  and  C_9 
REMARK    2  A    between atoms: O_2  and  C_14 
REMARK    3  A    between atoms: O_3  and  C_10 
REMARK    4  A    between atoms: O_4  and  C_11 
REMARK    5  A    between atoms: O_5  and  C_12 
REMARK    6  A    between atoms: O_7  and  C_17 
REMARK    7  A    between atoms: O_8  and  C_18 
REMARK    8  A    between atoms: C_13  and  C_17 
REMARK    9  A    between atoms: C_15  and  C_19 
REMARK   10  A    between atoms: C_18  and  C_21 
ROOT
HETATM    1  O   UNK N   1      25.661  57.097  41.142  0.00  0.00    -0.348 OA
HETATM    2  C   UNK N   1      27.034  57.047  40.765  0.00  0.00     0.292 C 
HETATM    3  C   UNK N   1      27.704  58.422  40.957  0.00  0.00     0.204 C 
HETATM    4  C   UNK N   1      27.556  58.879  42.416  0.00  0.00     0.183 C 
HETATM    5  C   UNK N   1      26.064  58.876  42.787  0.00  0.00     0.180 C 
HETATM    6  C   UNK N   1      25.473  57.469  42.503  0.00  0.00     0.179 C 
ENDROOT
BRANCH   2   7
HETATM    7  O   UNK N   1      27.759  56.040  41.460  0.00  0.00    -0.345 OA
BRANCH   7   8
HETATM    8  C   UNK N   1      28.119  54.931  40.644  0.00  0.00     0.203 C 
HETATM    9  C   UNK N   1      29.614  54.510  40.721  0.00  0.00     0.029 C 
HETATM   10  C   UNK N   1      29.820  53.317  39.742  0.00  0.00     0.035 C 
HETATM   11  C   UNK N   1      28.819  52.198  39.904  0.00  0.00    -0.013 C 
HETATM   12  C   UNK N   1      27.631  52.384  40.512  0.00  0.00     0.010 C 
HETATM   13  C   UNK N   1      27.257  53.740  41.008  0.00  0.00     0.186 C 
HETATM   14  O   UNK N   1      26.271  53.884  41.717  0.00  0.00    -0.290 OA
BRANCH   9  15
HETATM   15  C   UNK N   1      30.167  54.314  42.184  0.00  0.00    -0.016 C 
HETATM   16  C   UNK N   1      31.150  53.151  42.403  0.00  0.00     0.010 C 
HETATM   17  C   UNK N   1      30.810  55.610  42.711  0.00  0.00     0.010 C 
ENDBRANCH   9  15
BRANCH  12  18
HETATM   18  C   UNK N   1      26.697  51.214  40.712  0.00  0.00     0.206 C 
BRANCH  18  19
HETATM   19  O   UNK N   1      25.391  51.575  40.356  0.00  0.00    -0.396 OA
HETATM   20  H   UNK N   1      25.184  52.406  40.862  0.00  0.00     0.209 HD
ENDBRANCH  18  19
ENDBRANCH  12  18
ENDBRANCH   7   8
ENDBRANCH   2   7
BRANCH   3  21
HETATM   21  O   UNK N   1      29.051  58.396  40.554  0.00  0.00    -0.388 OA
HETATM   22  H   UNK N   1      29.158  59.033  39.801  0.00  0.00     0.210 HD
ENDBRANCH   3  21
BRANCH   6  23
HETATM   23  C   UNK N   1      23.955  57.439  42.769  0.00  0.00     0.198 C 
BRANCH  23  24
HETATM   24  O   UNK N   1      23.654  57.054  44.083  0.00  0.00    -0.398 OA
HETATM   25  H   UNK N   1      24.318  57.497  44.671  0.00  0.00     0.209 HD
ENDBRANCH  23  24
ENDBRANCH   6  23
BRANCH   4  26
HETATM   26  O   UNK N   1      28.129  60.149  42.610  0.00  0.00    -0.390 OA
HETATM   27  H   UNK N   1      27.396  60.782  42.828  0.00  0.00     0.210 HD
ENDBRANCH   4  26
BRANCH   5  28
HETATM   28  O   UNK N   1      25.916  59.200  44.146  0.00  0.00    -0.390 OA
HETATM   29  H   UNK N   1      26.788  59.018  44.584  0.00  0.00     0.210 HD
ENDBRANCH   5  28
TORSDOF 10
ENDMDL
MODEL 2
REMARK VINA RESULT:      -4.6     16.558     19.354
REMARK  10 active torsions:
REMARK  status: ('A' for Active; 'I' for Inactive)
REMARK    1  A    between atoms: O_2  and  C_9 
REMARK    2  A    between atoms: O_2  and  C_14 
REMARK    3  A    between atoms: O_3  and  C_10 
REMARK    4  A    between atoms: O_4  and  C_11 
REMARK    5  A    between atoms: O_5  and  C_12 
REMARK    6  A    between atoms: O_7  and  C_17 
REMARK    7  A    between atoms: O_8  and  C_18 
REMARK    8  A    between atoms: C_13  and  C_17 
REMARK    9  A    between atoms: C_15  and  C_19 
REMARK   10  A    between atoms: C_18  and  C_21 
ROOT
HETATM    1  O   UNK N   1      25.335  41.753  52.564  0.00  0.00    -0.348 OA
HETATM    2  C   UNK N   1      25.539  40.362  52.341  0.00  0.00     0.292 C 
HETATM    3  C   UNK N   1      25.005  39.947  50.956  0.00  0.00     0.204 C 
HETATM    4  C   UNK N   1      25.687  40.779  49.860  0.00  0.00     0.183 C 
HETATM    5  C   UNK N   1      25.476  42.270  50.167  0.00  0.00     0.180 C 
HETATM    6  C   UNK N   1      25.990  42.571  51.600  0.00  0.00     0.179 C 
ENDROOT
BRANCH   2   7
HETATM    7  O   UNK N   1      26.899  39.974  52.485  0.00  0.00    -0.345 OA
BRANCH   7   8
HETATM    8  C   UNK N   1      27.386  40.087  53.818  0.00  0.00     0.203 C 
HETATM    9  C   UNK N   1      27.666  38.738  54.538  0.00  0.00     0.029 C 
HETATM   10  C   UNK N   1      28.151  39.064  55.981  0.00  0.00     0.035 C 
HETATM   11  C   UNK N   1      29.264  40.081  56.050  0.00  0.00    -0.013 C 
HETATM   12  C   UNK N   1      29.518  40.933  55.036  0.00  0.00     0.010 C 
HETATM   13  C   UNK N   1      28.655  40.915  53.820  0.00  0.00     0.186 C 
HETATM   14  O   UNK N   1      28.981  41.549  52.826  0.00  0.00    -0.290 OA
BRANCH   9  15
HETATM   15  C   UNK N   1      28.554  37.727  53.717  0.00  0.00    -0.016 C 
HETATM   16  C   UNK N   1      29.716  37.057  54.468  0.00  0.00     0.010 C 
HETATM   17  C   UNK N   1      27.688  36.631  53.068  0.00  0.00     0.010 C 
ENDBRANCH   9  15
BRANCH  12  18
HETATM   18  C   UNK N   1      30.689  41.882  55.128  0.00  0.00     0.206 C 
BRANCH  18  19
HETATM   19  O   UNK N   1      31.663  41.536  54.181  0.00  0.00    -0.396 OA
HETATM   20  H   UNK N   1      31.365  41.931  53.318  0.00  0.00     0.209 HD
ENDBRANCH  18  19
ENDBRANCH  12  18
ENDBRANCH   7   8
ENDBRANCH   2   7
BRANCH   3  21
HETATM   21  O   UNK N   1      25.166  38.566  50.737  0.00  0.00    -0.388 OA
HETATM   22  H   UNK N   1      26.014  38.431  50.241  0.00  0.00     0.210 HD
ENDBRANCH   3  21
BRANCH   6  23
HETATM   23  C   UNK N   1      25.715  44.035  51.994  0.00  0.00     0.198 C 
BRANCH  23  24
HETATM   24  O   UNK N   1      26.524  44.460  53.058  0.00  0.00    -0.398 OA
HETATM   25  H   UNK N   1      26.079  45.251  53.458  0.00  0.00     0.209 HD
ENDBRANCH  23  24
ENDBRANCH   6  23
BRANCH   4  26
HETATM   26  O   UNK N   1      25.192  40.443  48.587  0.00  0.00    -0.390 OA
HETATM   27  H   UNK N   1      25.324  39.468  48.457  0.00  0.00     0.210 HD
ENDBRANCH   4  26
BRANCH   5  28
HETATM   28  O   UNK N   1      26.173  43.048  49.227  0.00  0.00    -0.390 OA
HETATM   29  H   UNK N   1      27.138  42.972  49.447  0.00  0.00     0.210 HD
ENDBRANCH   5  28
TORSDOF 10
ENDMDL
MODEL 3
REMARK VINA RESULT:      -4.6     20.350     23.390
REMARK  10 active torsions:
REMARK  status: ('A' for Active; 'I' for Inactive)
REMARK    1  A    between atoms: O_2  and  C_9 
REMARK    2  A    between atoms: O_2  and  C_14 
REMARK    3  A    between atoms: O_3  and  C_10 
REMARK    4  A    between atoms: O_4  and  C_11 
REMARK    5  A    between atoms: O_5  and  C_12 
REMARK    6  A    between atoms: O_7  and  C_17 
REMARK    7  A    between atoms: O_8  and  C_18 
REMARK    8  A    between atoms: C_13  and  C_17 
REMARK    9  A    between atoms: C_15  and  C_19 
REMARK   10  A    between atoms: C_18  and  C_21 
ROOT
HETATM    1  O   UNK N   1      50.865  57.319  40.092  0.00  0.00    -0.348 OA
HETATM    2  C   UNK N   1      49.685  57.264  40.887  0.00  0.00     0.292 C 
HETATM    3  C   UNK N   1      48.473  56.835  40.036  0.00  0.00     0.204 C 
HETATM    4  C   UNK N   1      48.749  55.476  39.376  0.00  0.00     0.183 C 
HETATM    5  C   UNK N   1      50.052  55.574  38.567  0.00  0.00     0.180 C 
HETATM    6  C   UNK N   1      51.192  56.067  39.497  0.00  0.00     0.179 C 
ENDROOT
BRANCH   2   7
HETATM    7  O   UNK N   1      49.822  56.413  42.018  0.00  0.00    -0.345 OA
BRANCH   7   8
HETATM    8  C   UNK N   1      49.954  57.118  43.248  0.00  0.00     0.203 C 
HETATM    9  C   UNK N   1      48.700  57.088  44.166  0.00  0.00     0.029 C 
HETATM   10  C   UNK N   1      49.021  57.935  45.433  0.00  0.00     0.035 C 
HETATM   11  C   UNK N   1      50.327  57.583  46.104  0.00  0.00    -0.013 C 
HETATM   12  C   UNK N   1      51.309  56.927  45.455  0.00  0.00     0.010 C 
HETATM   13  C   UNK N   1      51.137  56.567  44.018  0.00  0.00     0.186 C 
HETATM   14  O   UNK N   1      51.935  55.819  43.472  0.00  0.00    -0.290 OA
BRANCH   9  15
HETATM   15  C   UNK N   1      48.107  55.650  44.423  0.00  0.00    -0.016 C 
HETATM   16  C   UNK N   1      49.115  54.494  44.533  0.00  0.00     0.010 C 
HETATM   17  C   UNK N   1      47.204  55.638  45.669  0.00  0.00     0.010 C 
ENDBRANCH   9  15
BRANCH  12  18
HETATM   18  C   UNK N   1      52.568  56.537  46.194  0.00  0.00     0.206 C 
BRANCH  18  19
HETATM   19  O   UNK N   1      52.425  56.810  47.562  0.00  0.00    -0.396 OA
HETATM   20  H   UNK N   1      52.395  55.928  48.020  0.00  0.00     0.209 HD
ENDBRANCH  18  19
ENDBRANCH  12  18
ENDBRANCH   7   8
ENDBRANCH   2   7
BRANCH   3  21
HETATM   21  O   UNK N   1      47.293  56.813  40.801  0.00  0.00    -0.388 OA
HETATM   22  H   UNK N   1      47.528  57.050  41.735  0.00  0.00     0.210 HD
ENDBRANCH   3  21
BRANCH   6  23
HETATM   23  C   UNK N   1      52.502  56.274  38.711  0.00  0.00     0.198 C 
BRANCH  23  24
HETATM   24  O   UNK N   1      53.152  55.063  38.434  0.00  0.00    -0.398 OA
HETATM   25  H   UNK N   1      54.074  55.146  38.790  0.00  0.00     0.209 HD
ENDBRANCH  23  24
ENDBRANCH   6  23
BRANCH   4  26
HETATM   26  O   UNK N   1      47.671  55.078  38.565  0.00  0.00    -0.390 OA
HETATM   27  H   UNK N   1      47.848  55.404  37.644  0.00  0.00     0.210 HD
ENDBRANCH   4  26
BRANCH   5  28
HETATM   28  O   UNK N   1      50.371  54.314  38.033  0.00  0.00    -0.390 OA
HETATM   29  H   UNK N   1      51.273  54.392  37.626  0.00  0.00     0.210 HD
ENDBRANCH   5  28
TORSDOF 10
ENDMDL
MODEL 4
REMARK VINA RESULT:      -4.6      3.193      6.353
REMARK  10 active torsions:
REMARK  status: ('A' for Active; 'I' for Inactive)
REMARK    1  A    between atoms: O_2  and  C_9 
REMARK    2  A    between atoms: O_2  and  C_14 
REMARK    3  A    between atoms: O_3  and  C_10 
REMARK    4  A    between atoms: O_4  and  C_11 
REMARK    5  A    between atoms: O_5  and  C_12 
REMARK    6  A    between atoms: O_7  and  C_17 
REMARK    7  A    between atoms: O_8  and  C_18 
REMARK    8  A    between atoms: C_13  and  C_17 
REMARK    9  A    between atoms: C_15  and  C_19 
REMARK   10  A    between atoms: C_18  and  C_21 
ROOT
HETATM    1  O   UNK N   1      28.972  55.254  41.421  0.00  0.00    -0.348 OA
HETATM    2  C   UNK N   1      29.333  53.877  41.480  0.00  0.00     0.292 C 
HETATM    3  C   UNK N   1      28.915  53.147  40.187  0.00  0.00     0.204 C 
HETATM    4  C   UNK N   1      29.557  53.827  38.969  0.00  0.00     0.183 C 
HETATM    5  C   UNK N   1      29.175  55.316  38.973  0.00  0.00     0.180 C 
HETATM    6  C   UNK N   1      29.583  55.941  40.334  0.00  0.00     0.179 C 
ENDROOT
BRANCH   2   7
HETATM    7  O   UNK N   1      30.718  53.681  41.733  0.00  0.00    -0.345 OA
BRANCH   7   8
HETATM    8  C   UNK N   1      31.063  53.774  43.111  0.00  0.00     0.203 C 
HETATM    9  C   UNK N   1      31.522  52.442  43.770  0.00  0.00     0.029 C 
HETATM   10  C   UNK N   1      31.817  52.734  45.271  0.00  0.00     0.035 C 
HETATM   11  C   UNK N   1      32.718  53.923  45.509  0.00  0.00    -0.013 C 
HETATM   12  C   UNK N   1      32.897  54.882  44.579  0.00  0.00     0.010 C 
HETATM   13  C   UNK N   1      32.157  54.808  43.287  0.00  0.00     0.186 C 
HETATM   14  O   UNK N   1      32.444  55.565  42.370  0.00  0.00    -0.290 OA
BRANCH   9  15
HETATM   15  C   UNK N   1      32.644  51.669  42.978  0.00  0.00    -0.016 C 
HETATM   16  C   UNK N   1      33.861  51.193  43.787  0.00  0.00     0.010 C 
HETATM   17  C   UNK N   1      32.055  50.467  42.217  0.00  0.00     0.010 C 
ENDBRANCH   9  15
BRANCH  12  18
HETATM   18  C   UNK N   1      33.864  56.011  44.841  0.00  0.00     0.206 C 
BRANCH  18  19
HETATM   19  O   UNK N   1      34.158  56.085  46.210  0.00  0.00    -0.396 OA
HETATM   20  H   UNK N   1      33.285  56.031  46.685  0.00  0.00     0.209 HD
ENDBRANCH  18  19
ENDBRANCH  12  18
ENDBRANCH   7   8
ENDBRANCH   2   7
BRANCH   3  21
HETATM   21  O   UNK N   1      29.232  51.778  40.247  0.00  0.00    -0.388 OA
HETATM   22  H   UNK N   1      29.427  51.468  39.325  0.00  0.00     0.210 HD
ENDBRANCH   3  21
BRANCH   6  23
HETATM   23  C   UNK N   1      29.135  57.413  40.427  0.00  0.00     0.198 C 
BRANCH  23  24
HETATM   24  O   UNK N   1      29.899  58.254  39.606  0.00  0.00    -0.398 OA
HETATM   25  H   UNK N   1      29.883  59.153  40.023  0.00  0.00     0.209 HD
ENDBRANCH  23  24
ENDBRANCH   6  23
BRANCH   4  26
HETATM   26  O   UNK N   1      29.163  53.200  37.773  0.00  0.00    -0.390 OA
HETATM   27  H   UNK N   1      28.358  52.653  37.969  0.00  0.00     0.210 HD
ENDBRANCH   4  26
BRANCH   5  28
HETATM   28  O   UNK N   1      29.830  55.974  37.919  0.00  0.00    -0.390 OA
HETATM   29  H   UNK N   1      29.931  55.314  37.184  0.00  0.00     0.210 HD
ENDBRANCH   5  28
TORSDOF 10
ENDMDL
MODEL 5
REMARK VINA RESULT:      -4.3     18.796     20.626
REMARK  10 active torsions:
REMARK  status: ('A' for Active; 'I' for Inactive)
REMARK    1  A    between atoms: O_2  and  C_9 
REMARK    2  A    between atoms: O_2  and  C_14 
REMARK    3  A    between atoms: O_3  and  C_10 
REMARK    4  A    between atoms: O_4  and  C_11 
REMARK    5  A    between atoms: O_5  and  C_12 
REMARK    6  A    between atoms: O_7  and  C_17 
REMARK    7  A    between atoms: O_8  and  C_18 
REMARK    8  A    between atoms: C_13  and  C_17 
REMARK    9  A    between atoms: C_15  and  C_19 
REMARK   10  A    between atoms: C_18  and  C_21 
ROOT
HETATM    1  O   UNK N   1      30.379  47.454  58.860  0.00  0.00    -0.348 OA
HETATM    2  C   UNK N   1      29.744  46.288  59.374  0.00  0.00     0.292 C 
HETATM    3  C   UNK N   1      28.218  46.492  59.463  0.00  0.00     0.204 C 
HETATM    4  C   UNK N   1      27.655  46.855  58.081  0.00  0.00     0.183 C 
HETATM    5  C   UNK N   1      28.400  48.090  57.551  0.00  0.00     0.180 C 
HETATM    6  C   UNK N   1      29.925  47.804  57.557  0.00  0.00     0.179 C 
ENDROOT
BRANCH   2   7
HETATM    7  O   UNK N   1      30.044  45.119  58.621  0.00  0.00    -0.345 OA
BRANCH   7   8
HETATM    8  C   UNK N   1      30.722  44.118  59.371  0.00  0.00     0.203 C 
HETATM    9  C   UNK N   1      29.932  42.794  59.574  0.00  0.00     0.029 C 
HETATM   10  C   UNK N   1      30.813  41.846  60.439  0.00  0.00     0.035 C 
HETATM   11  C   UNK N   1      32.231  41.688  59.945  0.00  0.00    -0.013 C 
HETATM   12  C   UNK N   1      32.804  42.585  59.118  0.00  0.00     0.010 C 
HETATM   13  C   UNK N   1      32.045  43.800  58.703  0.00  0.00     0.186 C 
HETATM   14  O   UNK N   1      32.479  44.522  57.818  0.00  0.00    -0.290 OA
BRANCH   9  15
HETATM   15  C   UNK N   1      29.335  42.176  58.252  0.00  0.00    -0.016 C 
HETATM   16  C   UNK N   1      29.546  40.668  58.035  0.00  0.00     0.010 C 
HETATM   17  C   UNK N   1      27.832  42.487  58.126  0.00  0.00     0.010 C 
ENDBRANCH   9  15
BRANCH  12  18
HETATM   18  C   UNK N   1      34.200  42.342  58.597  0.00  0.00     0.206 C 
BRANCH  18  19
HETATM   19  O   UNK N   1      35.044  43.396  58.974  0.00  0.00    -0.396 OA
HETATM   20  H   UNK N   1      35.013  43.437  59.967  0.00  0.00     0.209 HD
ENDBRANCH  18  19
ENDBRANCH  12  18
ENDBRANCH   7   8
ENDBRANCH   2   7
BRANCH   3  21
HETATM   21  O   UNK N   1      27.581  45.361  60.004  0.00  0.00    -0.388 OA
HETATM   22  H   UNK N   1      27.491  44.685  59.284  0.00  0.00     0.210 HD
ENDBRANCH   3  21
BRANCH   6  23
HETATM   23  C   UNK N   1      30.727  49.047  57.123  0.00  0.00     0.198 C 
BRANCH  23  24
HETATM   24  O   UNK N   1      30.914  49.101  55.734  0.00  0.00    -0.398 OA
HETATM   25  H   UNK N   1      30.203  49.690  55.372  0.00  0.00     0.209 HD
ENDBRANCH  23  24
ENDBRANCH   6  23
BRANCH   4  26
HETATM   26  O   UNK N   1      26.268  47.080  58.143  0.00  0.00    -0.390 OA
HETATM   27  H   UNK N   1      25.980  46.943  59.083  0.00  0.00     0.210 HD
ENDBRANCH   4  26
BRANCH   5  28
HETATM   28  O   UNK N   1      27.964  48.381  56.248  0.00  0.00    -0.390 OA
HETATM   29  H   UNK N   1      27.611  49.308  56.261  0.00  0.00     0.210 HD
ENDBRANCH   5  28
TORSDOF 10
ENDMDL
MODEL 6
REMARK VINA RESULT:      -4.3     20.171     23.064
REMARK  10 active torsions:
REMARK  status: ('A' for Active; 'I' for Inactive)
REMARK    1  A    between atoms: O_2  and  C_9 
REMARK    2  A    between atoms: O_2  and  C_14 
REMARK    3  A    between atoms: O_3  and  C_10 
REMARK    4  A    between atoms: O_4  and  C_11 
REMARK    5  A    between atoms: O_5  and  C_12 
REMARK    6  A    between atoms: O_7  and  C_17 
REMARK    7  A    between atoms: O_8  and  C_18 
REMARK    8  A    between atoms: C_13  and  C_17 
REMARK    9  A    between atoms: C_15  and  C_19 
REMARK   10  A    between atoms: C_18  and  C_21 
ROOT
HETATM    1  O   UNK N   1      47.998  56.563  40.693  0.00  0.00    -0.348 OA
HETATM    2  C   UNK N   1      48.961  55.746  41.350  0.00  0.00     0.292 C 
HETATM    3  C   UNK N   1      49.668  54.817  40.343  0.00  0.00     0.204 C 
HETATM    4  C   UNK N   1      50.327  55.651  39.234  0.00  0.00     0.183 C 
HETATM    5  C   UNK N   1      49.259  56.546  38.585  0.00  0.00     0.180 C 
HETATM    6  C   UNK N   1      48.569  57.393  39.687  0.00  0.00     0.179 C 
ENDROOT
BRANCH   2   7
HETATM    7  O   UNK N   1      49.917  56.501  42.083  0.00  0.00    -0.345 OA
BRANCH   7   8
HETATM    8  C   UNK N   1      49.865  56.276  43.487  0.00  0.00     0.203 C 
HETATM    9  C   UNK N   1      51.176  55.727  44.119  0.00  0.00     0.029 C 
HETATM   10  C   UNK N   1      50.914  55.513  45.639  0.00  0.00     0.035 C 
HETATM   11  C   UNK N   1      50.302  56.702  46.340  0.00  0.00    -0.013 C 
HETATM   12  C   UNK N   1      49.653  57.672  45.667  0.00  0.00     0.010 C 
HETATM   13  C   UNK N   1      49.487  57.565  44.189  0.00  0.00     0.186 C 
HETATM   14  O   UNK N   1      49.066  58.517  43.548  0.00  0.00    -0.290 OA
BRANCH   9  15
HETATM   15  C   UNK N   1      52.475  56.537  43.744  0.00  0.00    -0.016 C 
HETATM   16  C   UNK N   1      53.577  56.615  44.814  0.00  0.00     0.010 C 
HETATM   17  C   UNK N   1      53.095  56.013  42.436  0.00  0.00     0.010 C 
ENDBRANCH   9  15
BRANCH  12  18
HETATM   18  C   UNK N   1      49.122  58.875  46.410  0.00  0.00     0.206 C 
BRANCH  18  19
HETATM   19  O   UNK N   1      49.746  60.041  45.944  0.00  0.00    -0.396 OA
HETATM   20  H   UNK N   1      50.148  59.810  45.065  0.00  0.00     0.209 HD
ENDBRANCH  18  19
ENDBRANCH  12  18
ENDBRANCH   7   8
ENDBRANCH   2   7
BRANCH   3  21
HETATM   21  O   UNK N   1      50.596  53.977  40.984  0.00  0.00    -0.388 OA
HETATM   22  H   UNK N   1      50.101  53.412  41.631  0.00  0.00     0.210 HD
ENDBRANCH   3  21
BRANCH   6  23
HETATM   23  C   UNK N   1      47.423  58.240  39.102  0.00  0.00     0.198 C 
BRANCH  23  24
HETATM   24  O   UNK N   1      46.388  58.446  40.026  0.00  0.00    -0.398 OA
HETATM   25  H   UNK N   1      46.046  59.364  39.874  0.00  0.00     0.209 HD
ENDBRANCH  23  24
ENDBRANCH   6  23
BRANCH   4  26
HETATM   26  O   UNK N   1      50.951  54.824  38.281  0.00  0.00    -0.390 OA
HETATM   27  H   UNK N   1      51.864  54.618  38.611  0.00  0.00     0.210 HD
ENDBRANCH   4  26
BRANCH   5  28
HETATM   28  O   UNK N   1      49.862  57.384  37.632  0.00  0.00    -0.390 OA
HETATM   29  H   UNK N   1      49.136  57.920  37.218  0.00  0.00     0.210 HD
ENDBRANCH   5  28
TORSDOF 10
ENDMDL
MODEL 7
REMARK VINA RESULT:      -4.2     17.721     19.285
REMARK  10 active torsions:
REMARK  status: ('A' for Active; 'I' for Inactive)
REMARK    1  A    between atoms: O_2  and  C_9 
REMARK    2  A    between atoms: O_2  and  C_14 
REMARK    3  A    between atoms: O_3  and  C_10 
REMARK    4  A    between atoms: O_4  and  C_11 
REMARK    5  A    between atoms: O_5  and  C_12 
REMARK    6  A    between atoms: O_7  and  C_17 
REMARK    7  A    between atoms: O_8  and  C_18 
REMARK    8  A    between atoms: C_13  and  C_17 
REMARK    9  A    between atoms: C_15  and  C_19 
REMARK   10  A    between atoms: C_18  and  C_21 
ROOT
HETATM    1  O   UNK N   1      30.308  49.855  58.194  0.00  0.00    -0.348 OA
HETATM    2  C   UNK N   1      29.510  49.491  59.316  0.00  0.00     0.292 C 
HETATM    3  C   UNK N   1      28.390  50.524  59.548  0.00  0.00     0.204 C 
HETATM    4  C   UNK N   1      27.527  50.656  58.285  0.00  0.00     0.183 C 
HETATM    5  C   UNK N   1      28.437  51.008  57.097  0.00  0.00     0.180 C 
HETATM    6  C   UNK N   1      29.560  49.943  56.986  0.00  0.00     0.179 C 
ENDROOT
BRANCH   2   7
HETATM    7  O   UNK N   1      28.962  48.184  59.200  0.00  0.00    -0.345 OA
BRANCH   7   8
HETATM    8  C   UNK N   1      29.800  47.165  59.733  0.00  0.00     0.203 C 
HETATM    9  C   UNK N   1      29.145  46.270  60.823  0.00  0.00     0.029 C 
HETATM   10  C   UNK N   1      30.218  45.250  61.305  0.00  0.00     0.035 C 
HETATM   11  C   UNK N   1      30.920  44.511  60.192  0.00  0.00    -0.013 C 
HETATM   12  C   UNK N   1      30.941  44.976  58.927  0.00  0.00     0.010 C 
HETATM   13  C   UNK N   1      30.294  46.280  58.606  0.00  0.00     0.186 C 
HETATM   14  O   UNK N   1      30.147  46.623  57.442  0.00  0.00    -0.290 OA
BRANCH   9  15
HETATM   15  C   UNK N   1      27.743  45.670  60.424  0.00  0.00    -0.016 C 
HETATM   16  C   UNK N   1      27.514  44.180  60.731  0.00  0.00     0.010 C 
HETATM   17  C   UNK N   1      26.595  46.484  61.047  0.00  0.00     0.010 C 
ENDBRANCH   9  15
BRANCH  12  18
HETATM   18  C   UNK N   1      31.597  44.160  57.838  0.00  0.00     0.206 C 
BRANCH  18  19
HETATM   19  O   UNK N   1      32.431  44.977  57.062  0.00  0.00    -0.396 OA
HETATM   20  H   UNK N   1      32.573  44.496  56.204  0.00  0.00     0.209 HD
ENDBRANCH  18  19
ENDBRANCH  12  18
ENDBRANCH   7   8
ENDBRANCH   2   7
BRANCH   3  21
HETATM   21  O   UNK N   1      27.616  50.196  60.676  0.00  0.00    -0.388 OA
HETATM   22  H   UNK N   1      27.195  51.029  61.012  0.00  0.00     0.210 HD
ENDBRANCH   3  21
BRANCH   6  23
HETATM   23  C   UNK N   1      30.558  50.301  55.867  0.00  0.00     0.198 C 
BRANCH  23  24
HETATM   24  O   UNK N   1      29.995  50.169  54.590  0.00  0.00    -0.398 OA
HETATM   25  H   UNK N   1      29.120  49.716  54.708  0.00  0.00     0.209 HD
ENDBRANCH  23  24
ENDBRANCH   6  23
BRANCH   4  26
HETATM   26  O   UNK N   1      26.517  51.621  58.459  0.00  0.00    -0.390 OA
HETATM   27  H   UNK N   1      26.950  52.460  58.766  0.00  0.00     0.210 HD
ENDBRANCH   4  26
BRANCH   5  28
HETATM   28  O   UNK N   1      27.678  51.040  55.915  0.00  0.00    -0.390 OA
HETATM   29  H   UNK N   1      26.912  51.650  56.080  0.00  0.00     0.210 HD
ENDBRANCH   5  28
TORSDOF 10
ENDMDL
MODEL 8
REMARK VINA RESULT:      -4.2      1.530      2.040
REMARK  10 active torsions:
REMARK  status: ('A' for Active; 'I' for Inactive)
REMARK    1  A    between atoms: O_2  and  C_9 
REMARK    2  A    between atoms: O_2  and  C_14 
REMARK    3  A    between atoms: O_3  and  C_10 
REMARK    4  A    between atoms: O_4  and  C_11 
REMARK    5  A    between atoms: O_5  and  C_12 
REMARK    6  A    between atoms: O_7  and  C_17 
REMARK    7  A    between atoms: O_8  and  C_18 
REMARK    8  A    between atoms: C_13  and  C_17 
REMARK    9  A    between atoms: C_15  and  C_19 
REMARK   10  A    between atoms: C_18  and  C_21 
ROOT
HETATM    1  O   UNK N   1      25.648  56.420  39.833  0.00  0.00    -0.348 OA
HETATM    2  C   UNK N   1      26.802  56.739  40.605  0.00  0.00     0.292 C 
HETATM    3  C   UNK N   1      26.511  57.912  41.562  0.00  0.00     0.204 C 
HETATM    4  C   UNK N   1      25.325  57.565  42.474  0.00  0.00     0.183 C 
HETATM    5  C   UNK N   1      24.120  57.188  41.597  0.00  0.00     0.180 C 
HETATM    6  C   UNK N   1      24.532  56.043  40.633  0.00  0.00     0.179 C 
ENDROOT
BRANCH   2   7
HETATM    7  O   UNK N   1      27.306  55.623  41.328  0.00  0.00    -0.345 OA
BRANCH   7   8
HETATM    8  C   UNK N   1      27.866  54.612  40.497  0.00  0.00     0.203 C 
HETATM    9  C   UNK N   1      29.402  54.414  40.638  0.00  0.00     0.029 C 
HETATM   10  C   UNK N   1      29.829  53.303  39.634  0.00  0.00     0.035 C 
HETATM   11  C   UNK N   1      29.001  52.043  39.708  0.00  0.00    -0.013 C 
HETATM   12  C   UNK N   1      27.771  52.028  40.260  0.00  0.00     0.010 C 
HETATM   13  C   UNK N   1      27.176  53.293  40.778  0.00  0.00     0.186 C 
HETATM   14  O   UNK N   1      26.148  53.262  41.439  0.00  0.00    -0.290 OA
BRANCH   9  15
HETATM   15  C   UNK N   1      29.910  54.245  42.120  0.00  0.00    -0.016 C 
HETATM   16  C   UNK N   1      31.062  53.253  42.350  0.00  0.00     0.010 C 
HETATM   17  C   UNK N   1      30.299  55.604  42.730  0.00  0.00     0.010 C 
ENDBRANCH   9  15
BRANCH  12  18
HETATM   18  C   UNK N   1      27.015  50.725  40.374  0.00  0.00     0.206 C 
BRANCH  18  19
HETATM   19  O   UNK N   1      26.431  50.618  41.643  0.00  0.00    -0.396 OA
HETATM   20  H   UNK N   1      27.014  50.006  42.168  0.00  0.00     0.209 HD
ENDBRANCH  18  19
ENDBRANCH  12  18
ENDBRANCH   7   8
ENDBRANCH   2   7
BRANCH   3  21
HETATM   21  O   UNK N   1      27.653  58.262  42.305  0.00  0.00    -0.388 OA
HETATM   22  H   UNK N   1      28.203  58.875  41.751  0.00  0.00     0.210 HD
ENDBRANCH   3  21
BRANCH   6  23
HETATM   23  C   UNK N   1      23.387  55.691  39.665  0.00  0.00     0.198 C 
BRANCH  23  24
HETATM   24  O   UNK N   1      22.382  54.933  40.283  0.00  0.00    -0.398 OA
HETATM   25  H   UNK N   1      21.915  55.538  40.916  0.00  0.00     0.209 HD
ENDBRANCH  23  24
ENDBRANCH   6  23
BRANCH   4  26
HETATM   26  O   UNK N   1      25.017  58.635  43.334  0.00  0.00    -0.390 OA
HETATM   27  H   UNK N   1      24.689  59.388  42.775  0.00  0.00     0.210 HD
ENDBRANCH   4  26
BRANCH   5  28
HETATM   28  O   UNK N   1      23.053  56.776  42.413  0.00  0.00    -0.390 OA
HETATM   29  H   UNK N   1      23.444  56.504  43.284  0.00  0.00     0.210 HD
ENDBRANCH   5  28
TORSDOF 10
ENDMDL
MODEL 9
REMARK VINA RESULT:      -4.2     25.162     26.960
REMARK  10 active torsions:
REMARK  status: ('A' for Active; 'I' for Inactive)
REMARK    1  A    between atoms: O_2  and  C_9 
REMARK    2  A    between atoms: O_2  and  C_14 
REMARK    3  A    between atoms: O_3  and  C_10 
REMARK    4  A    between atoms: O_4  and  C_11 
REMARK    5  A    between atoms: O_5  and  C_12 
REMARK    6  A    between atoms: O_7  and  C_17 
REMARK    7  A    between atoms: O_8  and  C_18 
REMARK    8  A    between atoms: C_13  and  C_17 
REMARK    9  A    between atoms: C_15  and  C_19 
REMARK   10  A    between atoms: C_18  and  C_21 
ROOT
HETATM    1  O   UNK N   1      51.235  55.030  56.641  0.00  0.00    -0.348 OA
HETATM    2  C   UNK N   1      50.574  56.279  56.463  0.00  0.00     0.292 C 
HETATM    3  C   UNK N   1      50.857  56.853  55.061  0.00  0.00     0.204 C 
HETATM    4  C   UNK N   1      50.420  55.847  53.984  0.00  0.00     0.183 C 
HETATM    5  C   UNK N   1      51.126  54.507  54.243  0.00  0.00     0.180 C 
HETATM    6  C   UNK N   1      50.827  54.048  55.695  0.00  0.00     0.179 C 
ENDROOT
BRANCH   2   7
HETATM    7  O   UNK N   1      49.172  56.198  56.692  0.00  0.00    -0.345 OA
BRANCH   7   8
HETATM    8  C   UNK N   1      48.816  56.256  58.068  0.00  0.00     0.203 C 
HETATM    9  C   UNK N   1      48.085  57.556  58.509  0.00  0.00     0.029 C 
HETATM   10  C   UNK N   1      47.813  57.450  60.039  0.00  0.00     0.035 C 
HETATM   11  C   UNK N   1      47.159  56.158  60.467  0.00  0.00    -0.013 C 
HETATM   12  C   UNK N   1      47.198  55.049  59.703  0.00  0.00     0.010 C 
HETATM   13  C   UNK N   1      47.944  55.065  58.412  0.00  0.00     0.186 C 
HETATM   14  O   UNK N   1      47.836  54.132  57.629  0.00  0.00    -0.290 OA
BRANCH   9  15
HETATM   15  C   UNK N   1      46.854  57.955  57.609  0.00  0.00    -0.016 C 
HETATM   16  C   UNK N   1      45.515  58.186  58.329  0.00  0.00     0.010 C 
HETATM   17  C   UNK N   1      47.174  59.194  56.753  0.00  0.00     0.010 C 
ENDBRANCH   9  15
BRANCH  12  18
HETATM   18  C   UNK N   1      46.466  53.805  60.147  0.00  0.00     0.206 C 
BRANCH  18  19
HETATM   19  O   UNK N   1      45.315  53.621  59.368  0.00  0.00    -0.396 OA
HETATM   20  H   UNK N   1      45.293  52.656  59.127  0.00  0.00     0.209 HD
ENDBRANCH  18  19
ENDBRANCH  12  18
ENDBRANCH   7   8
ENDBRANCH   2   7
BRANCH   3  21
HETATM   21  O   UNK N   1      50.240  58.104  54.885  0.00  0.00    -0.388 OA
HETATM   22  H   UNK N   1      50.290  58.594  55.746  0.00  0.00     0.210 HD
ENDBRANCH   3  21
BRANCH   6  23
HETATM   23  C   UNK N   1      51.589  52.753  56.038  0.00  0.00     0.198 C 
BRANCH  23  24
HETATM   24  O   UNK N   1      50.797  51.608  55.870  0.00  0.00    -0.398 OA
HETATM   25  H   UNK N   1      51.261  50.868  56.338  0.00  0.00     0.209 HD
ENDBRANCH  23  24
ENDBRANCH   6  23
BRANCH   4  26
HETATM   26  O   UNK N   1      50.700  56.333  52.694  0.00  0.00    -0.390 OA
HETATM   27  H   UNK N   1      50.201  57.183  52.575  0.00  0.00     0.210 HD
ENDBRANCH   4  26
BRANCH   5  28
HETATM   28  O   UNK N   1      50.667  53.548  53.325  0.00  0.00    -0.390 OA
HETATM   29  H   UNK N   1      50.034  54.010  52.716  0.00  0.00     0.210 HD
ENDBRANCH   5  28
TORSDOF 10
ENDMDL
