MODEL 1
REMARK VINA RESULT:      -6.5      0.000      0.000
REMARK  4 active torsions:
REMARK  status: ('A' for Active; 'I' for Inactive)
REMARK    1  A    between atoms: O_4  and  C_11 
REMARK    2  A    between atoms: O_5  and  C_12 
REMARK    3  A    between atoms: O_6  and  C_13 
REMARK    4  A    between atoms: C_15  and  C_16 
ROOT
HETATM    1  O   UNK N   1      46.980  31.244  52.718  0.00  0.00    -0.320 OA
HETATM    2  O   UNK N   1      48.510  34.368  54.648  0.00  0.00    -0.286 OA
HETATM    3  O   UNK N   1      45.944  33.900  48.911  0.00  0.00    -0.333 OA
HETATM    4  C   UNK N   1      46.999  32.424  52.101  0.00  0.00     0.102 A 
HETATM    5  C   UNK N   1      47.473  31.068  53.939  0.00  0.00     0.159 A 
HETATM    6  C   UNK N   1      48.036  33.412  54.056  0.00  0.00     0.198 A 
HETATM    7  C   UNK N   1      46.496  33.778  50.145  0.00  0.00     0.116 A 
HETATM    8  C   UNK N   1      47.092  34.893  50.761  0.00  0.00     0.101 A 
HETATM    9  C   UNK N   1      47.552  33.553  52.743  0.00  0.00     0.052 A 
HETATM   10  C   UNK N   1      47.998  32.145  54.666  0.00  0.00     0.048 A 
HETATM   11  C   UNK N   1      46.455  32.546  50.812  0.00  0.00     0.035 A 
HETATM   12  C   UNK N   1      47.605  34.782  52.058  0.00  0.00     0.057 A 
HETATM   13  C   UNK N   1      45.236  32.909  48.231  0.00  0.00     0.078 A 
HETATM   14  C   UNK N   1      45.813  31.405  50.144  0.00  0.00     0.016 A 
HETATM   15  C   UNK N   1      45.234  31.567  48.950  0.00  0.00     0.012 A 
HETATM   16  C   UNK N   1      45.864  32.722  46.844  0.00  0.00     0.051 C 
HETATM   17  C   UNK N   1      43.787  33.390  48.087  0.00  0.00     0.051 C 
ENDROOT
BRANCH  10  18
HETATM   18  C   UNK N   1      48.503  31.918  56.041  0.00  0.00    -0.017 A 
HETATM   19  C   UNK N   1      47.645  32.015  57.147  0.00  0.00     0.052 A 
HETATM   20  C   UNK N   1      48.125  31.759  58.452  0.00  0.00     0.102 A 
HETATM   21  C   UNK N   1      49.485  31.456  58.642  0.00  0.00     0.101 A 
HETATM   22  C   UNK N   1      50.341  31.371  57.524  0.00  0.00     0.040 A 
HETATM   23  C   UNK N   1      49.846  31.579  56.239  0.00  0.00     0.015 A 
BRANCH  20  24
HETATM   24  O   UNK N   1      47.304  31.784  59.537  0.00  0.00    -0.353 OA
HETATM   25  C   UNK N   1      45.949  32.051  59.502  0.00  0.00     0.210 C 
ENDBRANCH  20  24
BRANCH  21  26
HETATM   26  O   UNK N   1      49.938  31.241  59.907  0.00  0.00    -0.353 OA
HETATM   27  C   UNK N   1      50.501  32.204  60.721  0.00  0.00     0.210 C 
ENDBRANCH  21  26
ENDBRANCH  10  18
BRANCH   8  28
HETATM   28  O   UNK N   1      47.165  36.081  50.125  0.00  0.00    -0.358 OA
HETATM   29  H   UNK N   1      48.006  36.463  49.837  0.00  0.00     0.218 HD
ENDBRANCH   8  28
TORSDOF 4
ENDMDL
MODEL 2
REMARK VINA RESULT:      -5.7     19.269     21.210
REMARK  4 active torsions:
REMARK  status: ('A' for Active; 'I' for Inactive)
REMARK    1  A    between atoms: O_4  and  C_11 
REMARK    2  A    between atoms: O_5  and  C_12 
REMARK    3  A    between atoms: O_6  and  C_13 
REMARK    4  A    between atoms: C_15  and  C_16 
ROOT
HETATM    1  O   UNK N   1      27.212  43.014  55.406  0.00  0.00    -0.320 OA
HETATM    2  O   UNK N   1      30.868  41.632  54.668  0.00  0.00    -0.286 OA
HETATM    3  O   UNK N   1      25.869  42.332  50.894  0.00  0.00    -0.333 OA
HETATM    4  C   UNK N   1      27.495  42.597  54.174  0.00  0.00     0.102 A 
HETATM    5  C   UNK N   1      28.093  42.964  56.398  0.00  0.00     0.159 A 
HETATM    6  C   UNK N   1      29.747  42.060  54.891  0.00  0.00     0.198 A 
HETATM    7  C   UNK N   1      26.802  42.220  51.873  0.00  0.00     0.116 A 
HETATM    8  C   UNK N   1      28.059  41.658  51.585  0.00  0.00     0.101 A 
HETATM    9  C   UNK N   1      28.774  42.080  53.875  0.00  0.00     0.052 A 
HETATM   10  C   UNK N   1      29.399  42.509  56.179  0.00  0.00     0.048 A 
HETATM   11  C   UNK N   1      26.520  42.683  53.166  0.00  0.00     0.035 A 
HETATM   12  C   UNK N   1      29.043  41.600  52.579  0.00  0.00     0.057 A 
HETATM   13  C   UNK N   1      24.629  42.957  51.015  0.00  0.00     0.078 A 
HETATM   14  C   UNK N   1      25.202  43.278  53.428  0.00  0.00     0.016 A 
HETATM   15  C   UNK N   1      24.321  43.419  52.434  0.00  0.00     0.012 A 
HETATM   16  C   UNK N   1      23.538  41.974  50.573  0.00  0.00     0.051 C 
HETATM   17  C   UNK N   1      24.633  44.181  50.092  0.00  0.00     0.051 C 
ENDROOT
BRANCH  10  18
HETATM   18  C   UNK N   1      30.367  42.504  57.302  0.00  0.00    -0.017 A 
HETATM   19  C   UNK N   1      30.254  41.572  58.344  0.00  0.00     0.052 A 
HETATM   20  C   UNK N   1      31.202  41.548  59.391  0.00  0.00     0.102 A 
HETATM   21  C   UNK N   1      32.237  42.500  59.410  0.00  0.00     0.101 A 
HETATM   22  C   UNK N   1      32.336  43.438  58.362  0.00  0.00     0.040 A 
HETATM   23  C   UNK N   1      31.422  43.423  57.311  0.00  0.00     0.015 A 
BRANCH  20  24
HETATM   24  O   UNK N   1      31.154  40.616  60.383  0.00  0.00    -0.353 OA
HETATM   25  C   UNK N   1      31.476  39.282  60.236  0.00  0.00     0.210 C 
ENDBRANCH  20  24
BRANCH  21  26
HETATM   26  O   UNK N   1      33.126  42.482  60.440  0.00  0.00    -0.353 OA
HETATM   27  C   UNK N   1      34.381  43.058  60.415  0.00  0.00     0.210 C 
ENDBRANCH  21  26
ENDBRANCH  10  18
BRANCH   8  28
HETATM   28  O   UNK N   1      28.341  41.183  50.353  0.00  0.00    -0.358 OA
HETATM   29  H   UNK N   1      27.655  41.040  49.685  0.00  0.00     0.218 HD
ENDBRANCH   8  28
TORSDOF 4
ENDMDL
MODEL 3
REMARK VINA RESULT:      -5.7     18.408     20.904
REMARK  4 active torsions:
REMARK  status: ('A' for Active; 'I' for Inactive)
REMARK    1  A    between atoms: O_4  and  C_11 
REMARK    2  A    between atoms: O_5  and  C_12 
REMARK    3  A    between atoms: O_6  and  C_13 
REMARK    4  A    between atoms: C_15  and  C_16 
ROOT
HETATM    1  O   UNK N   1      34.998  43.418  60.935  0.00  0.00    -0.320 OA
HETATM    2  O   UNK N   1      31.377  43.194  62.567  0.00  0.00    -0.286 OA
HETATM    3  O   UNK N   1      36.567  46.254  64.417  0.00  0.00    -0.333 OA
HETATM    4  C   UNK N   1      34.775  44.065  62.077  0.00  0.00     0.102 A 
HETATM    5  C   UNK N   1      34.066  42.685  60.336  0.00  0.00     0.159 A 
HETATM    6  C   UNK N   1      32.487  43.268  62.066  0.00  0.00     0.198 A 
HETATM    7  C   UNK N   1      35.583  45.492  63.874  0.00  0.00     0.116 A 
HETATM    8  C   UNK N   1      34.340  45.382  64.522  0.00  0.00     0.101 A 
HETATM    9  C   UNK N   1      33.511  43.994  62.700  0.00  0.00     0.052 A 
HETATM   10  C   UNK N   1      32.771  42.598  60.861  0.00  0.00     0.048 A 
HETATM   11  C   UNK N   1      35.801  44.830  62.658  0.00  0.00     0.035 A 
HETATM   12  C   UNK N   1      33.307  44.647  63.931  0.00  0.00     0.057 A 
HETATM   13  C   UNK N   1      37.802  46.531  63.833  0.00  0.00     0.078 A 
HETATM   14  C   UNK N   1      37.107  44.978  62.000  0.00  0.00     0.016 A 
HETATM   15  C   UNK N   1      38.039  45.774  62.533  0.00  0.00     0.012 A 
HETATM   16  C   UNK N   1      38.910  46.155  64.827  0.00  0.00     0.051 C 
HETATM   17  C   UNK N   1      37.852  48.035  63.541  0.00  0.00     0.051 C 
ENDROOT
BRANCH  10  18
HETATM   18  C   UNK N   1      31.746  41.801  60.144  0.00  0.00    -0.017 A 
HETATM   19  C   UNK N   1      30.976  42.375  59.121  0.00  0.00     0.052 A 
HETATM   20  C   UNK N   1      30.028  41.599  58.416  0.00  0.00     0.102 A 
HETATM   21  C   UNK N   1      29.824  40.256  58.780  0.00  0.00     0.101 A 
HETATM   22  C   UNK N   1      30.597  39.693  59.816  0.00  0.00     0.040 A 
HETATM   23  C   UNK N   1      31.560  40.454  60.474  0.00  0.00     0.015 A 
BRANCH  20  24
HETATM   24  O   UNK N   1      29.311  42.111  57.378  0.00  0.00    -0.353 OA
HETATM   25  C   UNK N   1      29.793  42.307  56.099  0.00  0.00     0.210 C 
ENDBRANCH  20  24
BRANCH  21  26
HETATM   26  O   UNK N   1      28.887  39.531  58.111  0.00  0.00    -0.353 OA
HETATM   27  C   UNK N   1      29.162  38.550  57.178  0.00  0.00     0.210 C 
ENDBRANCH  21  26
ENDBRANCH  10  18
BRANCH   8  28
HETATM   28  O   UNK N   1      34.120  45.990  65.708  0.00  0.00    -0.358 OA
HETATM   29  H   UNK N   1      34.842  46.292  66.276  0.00  0.00     0.218 HD
ENDBRANCH   8  28
TORSDOF 4
ENDMDL
MODEL 4
REMARK VINA RESULT:      -5.7     18.974     22.273
REMARK  4 active torsions:
REMARK  status: ('A' for Active; 'I' for Inactive)
REMARK    1  A    between atoms: O_4  and  C_11 
REMARK    2  A    between atoms: O_5  and  C_12 
REMARK    3  A    between atoms: O_6  and  C_13 
REMARK    4  A    between atoms: C_15  and  C_16 
ROOT
HETATM    1  O   UNK N   1      28.631  43.113  57.478  0.00  0.00    -0.320 OA
HETATM    2  O   UNK N   1      31.213  42.012  54.660  0.00  0.00    -0.286 OA
HETATM    3  O   UNK N   1      32.125  43.831  60.624  0.00  0.00    -0.333 OA
HETATM    4  C   UNK N   1      29.930  43.119  57.770  0.00  0.00     0.102 A 
HETATM    5  C   UNK N   1      28.170  42.777  56.278  0.00  0.00     0.159 A 
HETATM    6  C   UNK N   1      30.423  42.346  55.527  0.00  0.00     0.198 A 
HETATM    7  C   UNK N   1      31.720  43.513  59.369  0.00  0.00     0.116 A 
HETATM    8  C   UNK N   1      32.672  43.199  58.382  0.00  0.00     0.101 A 
HETATM    9  C   UNK N   1      30.880  42.755  56.792  0.00  0.00     0.052 A 
HETATM   10  C   UNK N   1      29.040  42.359  55.264  0.00  0.00     0.048 A 
HETATM   11  C   UNK N   1      30.353  43.477  59.061  0.00  0.00     0.035 A 
HETATM   12  C   UNK N   1      32.252  42.811  57.104  0.00  0.00     0.057 A 
HETATM   13  C   UNK N   1      31.291  44.061  61.718  0.00  0.00     0.078 A 
HETATM   14  C   UNK N   1      29.385  43.797  60.120  0.00  0.00     0.016 A 
HETATM   15  C   UNK N   1      29.810  44.058  61.360  0.00  0.00     0.012 A 
HETATM   16  C   UNK N   1      31.645  45.424  62.327  0.00  0.00     0.051 C 
HETATM   17  C   UNK N   1      31.549  42.949  62.741  0.00  0.00     0.051 C 
ENDROOT
BRANCH  10  18
HETATM   18  C   UNK N   1      28.486  41.954  53.949  0.00  0.00    -0.017 A 
HETATM   19  C   UNK N   1      27.902  40.691  53.773  0.00  0.00     0.052 A 
HETATM   20  C   UNK N   1      27.341  40.327  52.529  0.00  0.00     0.102 A 
HETATM   21  C   UNK N   1      27.417  41.223  51.447  0.00  0.00     0.101 A 
HETATM   22  C   UNK N   1      28.014  42.487  51.632  0.00  0.00     0.040 A 
HETATM   23  C   UNK N   1      28.523  42.852  52.876  0.00  0.00     0.015 A 
BRANCH  20  24
HETATM   24  O   UNK N   1      26.713  39.133  52.345  0.00  0.00    -0.353 OA
HETATM   25  C   UNK N   1      25.435  38.834  52.774  0.00  0.00     0.210 C 
ENDBRANCH  20  24
BRANCH  21  26
HETATM   26  O   UNK N   1      26.898  40.846  50.246  0.00  0.00    -0.353 OA
HETATM   27  C   UNK N   1      25.746  41.359  49.684  0.00  0.00     0.210 C 
ENDBRANCH  21  26
ENDBRANCH  10  18
BRANCH   8  28
HETATM   28  O   UNK N   1      33.994  43.253  58.651  0.00  0.00    -0.358 OA
HETATM   29  H   UNK N   1      34.619  43.721  58.079  0.00  0.00     0.218 HD
ENDBRANCH   8  28
TORSDOF 4
ENDMDL
MODEL 5
REMARK VINA RESULT:      -5.6     18.404     20.643
REMARK  4 active torsions:
REMARK  status: ('A' for Active; 'I' for Inactive)
REMARK    1  A    between atoms: O_4  and  C_11 
REMARK    2  A    between atoms: O_5  and  C_12 
REMARK    3  A    between atoms: O_6  and  C_13 
REMARK    4  A    between atoms: C_15  and  C_16 
ROOT
HETATM    1  O   UNK N   1      34.640  43.058  60.744  0.00  0.00    -0.320 OA
HETATM    2  O   UNK N   1      31.024  42.663  62.351  0.00  0.00    -0.286 OA
HETATM    3  O   UNK N   1      35.917  46.271  64.011  0.00  0.00    -0.333 OA
HETATM    4  C   UNK N   1      34.348  43.770  61.830  0.00  0.00     0.102 A 
HETATM    5  C   UNK N   1      33.781  42.208  60.194  0.00  0.00     0.159 A 
HETATM    6  C   UNK N   1      32.132  42.790  61.858  0.00  0.00     0.198 A 
HETATM    7  C   UNK N   1      35.008  45.392  63.519  0.00  0.00     0.116 A 
HETATM    8  C   UNK N   1      33.767  45.230  64.161  0.00  0.00     0.101 A 
HETATM    9  C   UNK N   1      33.083  43.644  62.444  0.00  0.00     0.052 A 
HETATM   10  C   UNK N   1      32.489  42.055  60.711  0.00  0.00     0.048 A 
HETATM   11  C   UNK N   1      35.299  44.659  62.359  0.00  0.00     0.035 A 
HETATM   12  C   UNK N   1      32.807  44.370  63.618  0.00  0.00     0.057 A 
HETATM   13  C   UNK N   1      37.136  46.603  63.420  0.00  0.00     0.078 A 
HETATM   14  C   UNK N   1      36.599  44.863  61.705  0.00  0.00     0.016 A 
HETATM   15  C   UNK N   1      37.455  45.771  62.184  0.00  0.00     0.012 A 
HETATM   16  C   UNK N   1      38.254  46.397  64.451  0.00  0.00     0.051 C 
HETATM   17  C   UNK N   1      37.068  48.079  63.013  0.00  0.00     0.051 C 
ENDROOT
BRANCH  10  18
HETATM   18  C   UNK N   1      31.544  41.125  60.048  0.00  0.00    -0.017 A 
HETATM   19  C   UNK N   1      31.489  39.772  60.415  0.00  0.00     0.052 A 
HETATM   20  C   UNK N   1      30.559  38.900  59.806  0.00  0.00     0.102 A 
HETATM   21  C   UNK N   1      29.719  39.385  58.788  0.00  0.00     0.101 A 
HETATM   22  C   UNK N   1      29.789  40.745  58.419  0.00  0.00     0.040 A 
HETATM   23  C   UNK N   1      30.678  41.605  59.059  0.00  0.00     0.015 A 
BRANCH  20  24
HETATM   24  O   UNK N   1      30.440  37.598  60.185  0.00  0.00    -0.353 OA
HETATM   25  C   UNK N   1      31.013  37.043  61.313  0.00  0.00     0.210 C 
ENDBRANCH  20  24
BRANCH  21  26
HETATM   26  O   UNK N   1      28.850  38.526  58.190  0.00  0.00    -0.353 OA
HETATM   27  C   UNK N   1      28.870  38.180  56.853  0.00  0.00     0.210 C 
ENDBRANCH  21  26
ENDBRANCH  10  18
BRANCH   8  28
HETATM   28  O   UNK N   1      33.479  45.907  65.293  0.00  0.00    -0.358 OA
HETATM   29  H   UNK N   1      32.586  46.222  65.494  0.00  0.00     0.218 HD
ENDBRANCH   8  28
TORSDOF 4
ENDMDL
MODEL 6
REMARK VINA RESULT:      -5.4     18.389     21.064
REMARK  4 active torsions:
REMARK  status: ('A' for Active; 'I' for Inactive)
REMARK    1  A    between atoms: O_4  and  C_11 
REMARK    2  A    between atoms: O_5  and  C_12 
REMARK    3  A    between atoms: O_6  and  C_13 
REMARK    4  A    between atoms: C_15  and  C_16 
ROOT
HETATM    1  O   UNK N   1      33.714  44.311  63.705  0.00  0.00    -0.320 OA
HETATM    2  O   UNK N   1      34.956  43.430  60.031  0.00  0.00    -0.286 OA
HETATM    3  O   UNK N   1      37.998  45.974  64.929  0.00  0.00    -0.333 OA
HETATM    4  C   UNK N   1      34.975  44.586  63.379  0.00  0.00     0.102 A 
HETATM    5  C   UNK N   1      32.853  43.777  62.846  0.00  0.00     0.159 A 
HETATM    6  C   UNK N   1      34.579  43.697  61.160  0.00  0.00     0.198 A 
HETATM    7  C   UNK N   1      37.159  45.463  63.993  0.00  0.00     0.116 A 
HETATM    8  C   UNK N   1      37.620  45.234  62.685  0.00  0.00     0.101 A 
HETATM    9  C   UNK N   1      35.450  44.309  62.079  0.00  0.00     0.052 A 
HETATM   10  C   UNK N   1      33.254  43.427  61.550  0.00  0.00     0.048 A 
HETATM   11  C   UNK N   1      35.838  45.144  64.337  0.00  0.00     0.035 A 
HETATM   12  C   UNK N   1      36.773  44.649  61.737  0.00  0.00     0.057 A 
HETATM   13  C   UNK N   1      37.704  46.154  66.280  0.00  0.00     0.078 A 
HETATM   14  C   UNK N   1      35.393  45.383  65.717  0.00  0.00     0.016 A 
HETATM   15  C   UNK N   1      36.255  45.842  66.630  0.00  0.00     0.012 A 
HETATM   16  C   UNK N   1      37.995  47.613  66.656  0.00  0.00     0.051 C 
HETATM   17  C   UNK N   1      38.615  45.218  67.082  0.00  0.00     0.051 C 
ENDROOT
BRANCH  10  18
HETATM   18  C   UNK N   1      32.276  42.798  60.630  0.00  0.00    -0.017 A 
HETATM   19  C   UNK N   1      31.516  43.578  59.745  0.00  0.00     0.052 A 
HETATM   20  C   UNK N   1      30.614  42.968  58.845  0.00  0.00     0.102 A 
HETATM   21  C   UNK N   1      30.444  41.572  58.875  0.00  0.00     0.101 A 
HETATM   22  C   UNK N   1      31.205  40.798  59.775  0.00  0.00     0.040 A 
HETATM   23  C   UNK N   1      32.125  41.406  60.626  0.00  0.00     0.015 A 
BRANCH  20  24
HETATM   24  O   UNK N   1      29.910  43.692  57.932  0.00  0.00    -0.353 OA
HETATM   25  C   UNK N   1      29.712  45.057  57.983  0.00  0.00     0.210 C 
ENDBRANCH  20  24
BRANCH  21  26
HETATM   26  O   UNK N   1      29.549  41.002  58.021  0.00  0.00    -0.353 OA
HETATM   27  C   UNK N   1      28.994  39.747  58.176  0.00  0.00     0.210 C 
ENDBRANCH  21  26
ENDBRANCH  10  18
BRANCH   8  28
HETATM   28  O   UNK N   1      38.881  45.559  62.327  0.00  0.00    -0.358 OA
HETATM   29  H   UNK N   1      39.227  45.386  61.440  0.00  0.00     0.218 HD
ENDBRANCH   8  28
TORSDOF 4
ENDMDL
MODEL 7
REMARK VINA RESULT:      -5.2     19.235     21.397
REMARK  4 active torsions:
REMARK  status: ('A' for Active; 'I' for Inactive)
REMARK    1  A    between atoms: O_4  and  C_11 
REMARK    2  A    between atoms: O_5  and  C_12 
REMARK    3  A    between atoms: O_6  and  C_13 
REMARK    4  A    between atoms: C_15  and  C_16 
ROOT
HETATM    1  O   UNK N   1      29.293  40.600  58.356  0.00  0.00    -0.320 OA
HETATM    2  O   UNK N   1      30.395  41.212  54.583  0.00  0.00    -0.286 OA
HETATM    3  O   UNK N   1      31.819  44.335  59.869  0.00  0.00    -0.333 OA
HETATM    4  C   UNK N   1      30.089  41.633  58.087  0.00  0.00     0.102 A 
HETATM    5  C   UNK N   1      28.837  39.785  57.412  0.00  0.00     0.159 A 
HETATM    6  C   UNK N   1      30.062  41.024  55.742  0.00  0.00     0.198 A 
HETATM    7  C   UNK N   1      31.358  43.561  58.855  0.00  0.00     0.116 A 
HETATM    8  C   UNK N   1      31.714  43.856  57.526  0.00  0.00     0.101 A 
HETATM    9  C   UNK N   1      30.486  41.898  56.759  0.00  0.00     0.052 A 
HETATM   10  C   UNK N   1      29.219  39.947  56.074  0.00  0.00     0.048 A 
HETATM   11  C   UNK N   1      30.543  42.455  59.132  0.00  0.00     0.035 A 
HETATM   12  C   UNK N   1      31.290  43.022  56.487  0.00  0.00     0.057 A 
HETATM   13  C   UNK N   1      31.629  44.098  61.230  0.00  0.00     0.078 A 
HETATM   14  C   UNK N   1      30.201  42.167  60.533  0.00  0.00     0.016 A 
HETATM   15  C   UNK N   1      30.710  42.917  61.514  0.00  0.00     0.012 A 
HETATM   16  C   UNK N   1      31.024  45.355  61.868  0.00  0.00     0.051 C 
HETATM   17  C   UNK N   1      33.002  43.810  61.847  0.00  0.00     0.051 C 
ENDROOT
BRANCH  10  18
HETATM   18  C   UNK N   1      28.721  38.994  55.053  0.00  0.00    -0.017 A 
HETATM   19  C   UNK N   1      27.643  39.330  54.221  0.00  0.00     0.052 A 
HETATM   20  C   UNK N   1      27.199  38.432  53.225  0.00  0.00     0.102 A 
HETATM   21  C   UNK N   1      27.813  37.173  53.104  0.00  0.00     0.101 A 
HETATM   22  C   UNK N   1      28.890  36.841  53.952  0.00  0.00     0.040 A 
HETATM   23  C   UNK N   1      29.349  37.752  54.900  0.00  0.00     0.015 A 
BRANCH  20  24
HETATM   24  O   UNK N   1      26.196  38.755  52.362  0.00  0.00    -0.353 OA
HETATM   25  C   UNK N   1      25.756  40.037  52.100  0.00  0.00     0.210 C 
ENDBRANCH  20  24
BRANCH  21  26
HETATM   26  O   UNK N   1      27.355  36.308  52.159  0.00  0.00    -0.353 OA
HETATM   27  C   UNK N   1      26.753  35.093  52.422  0.00  0.00     0.210 C 
ENDBRANCH  21  26
ENDBRANCH  10  18
BRANCH   8  28
HETATM   28  O   UNK N   1      32.477  44.932  57.236  0.00  0.00    -0.358 OA
HETATM   29  H   UNK N   1      32.098  45.813  57.103  0.00  0.00     0.218 HD
ENDBRANCH   8  28
TORSDOF 4
ENDMDL
MODEL 8
REMARK VINA RESULT:      -5.1     19.720     21.616
REMARK  4 active torsions:
REMARK  status: ('A' for Active; 'I' for Inactive)
REMARK    1  A    between atoms: O_4  and  C_11 
REMARK    2  A    between atoms: O_5  and  C_12 
REMARK    3  A    between atoms: O_6  and  C_13 
REMARK    4  A    between atoms: C_15  and  C_16 
ROOT
HETATM    1  O   UNK N   1      29.198  41.369  55.827  0.00  0.00    -0.320 OA
HETATM    2  O   UNK N   1      29.975  42.537  59.549  0.00  0.00    -0.286 OA
HETATM    3  O   UNK N   1      29.553  36.779  57.021  0.00  0.00    -0.333 OA
HETATM    4  C   UNK N   1      29.401  40.436  56.755  0.00  0.00     0.102 A 
HETATM    5  C   UNK N   1      29.222  42.668  56.102  0.00  0.00     0.159 A 
HETATM    6  C   UNK N   1      29.741  42.176  58.407  0.00  0.00     0.198 A 
HETATM    7  C   UNK N   1      29.555  38.089  57.374  0.00  0.00     0.116 A 
HETATM    8  C   UNK N   1      29.762  38.456  58.716  0.00  0.00     0.101 A 
HETATM    9  C   UNK N   1      29.659  40.808  58.092  0.00  0.00     0.052 A 
HETATM   10  C   UNK N   1      29.516  43.125  57.393  0.00  0.00     0.048 A 
HETATM   11  C   UNK N   1      29.369  39.078  56.398  0.00  0.00     0.035 A 
HETATM   12  C   UNK N   1      29.826  39.808  59.069  0.00  0.00     0.057 A 
HETATM   13  C   UNK N   1      29.462  36.283  55.721  0.00  0.00     0.078 A 
HETATM   14  C   UNK N   1      29.169  38.660  55.003  0.00  0.00     0.016 A 
HETATM   15  C   UNK N   1      29.222  37.365  54.677  0.00  0.00     0.012 A 
HETATM   16  C   UNK N   1      28.305  35.277  55.660  0.00  0.00     0.051 C 
HETATM   17  C   UNK N   1      30.785  35.577  55.400  0.00  0.00     0.051 C 
ENDROOT
BRANCH  10  18
HETATM   18  C   UNK N   1      29.572  44.584  57.654  0.00  0.00    -0.017 A 
HETATM   19  C   UNK N   1      28.417  45.295  58.011  0.00  0.00     0.052 A 
HETATM   20  C   UNK N   1      28.485  46.677  58.296  0.00  0.00     0.102 A 
HETATM   21  C   UNK N   1      29.714  47.350  58.170  0.00  0.00     0.101 A 
HETATM   22  C   UNK N   1      30.867  46.628  57.801  0.00  0.00     0.040 A 
HETATM   23  C   UNK N   1      30.797  45.257  57.567  0.00  0.00     0.015 A 
BRANCH  20  24
HETATM   24  O   UNK N   1      27.394  47.381  58.705  0.00  0.00    -0.353 OA
HETATM   25  C   UNK N   1      26.353  47.778  57.890  0.00  0.00     0.210 C 
ENDBRANCH  20  24
BRANCH  21  26
HETATM   26  O   UNK N   1      29.757  48.688  58.420  0.00  0.00    -0.353 OA
HETATM   27  C   UNK N   1      29.849  49.671  57.455  0.00  0.00     0.210 C 
ENDBRANCH  21  26
ENDBRANCH  10  18
BRANCH   8  28
HETATM   28  O   UNK N   1      29.916  37.518  59.675  0.00  0.00    -0.358 OA
HETATM   29  H   UNK N   1      30.783  37.155  59.909  0.00  0.00     0.218 HD
ENDBRANCH   8  28
TORSDOF 4
ENDMDL
MODEL 9
REMARK VINA RESULT:      -5.1     23.121     25.734
REMARK  4 active torsions:
REMARK  status: ('A' for Active; 'I' for Inactive)
REMARK    1  A    between atoms: O_4  and  C_11 
REMARK    2  A    between atoms: O_5  and  C_12 
REMARK    3  A    between atoms: O_6  and  C_13 
REMARK    4  A    between atoms: C_15  and  C_16 
ROOT
HETATM    1  O   UNK N   1      34.905  50.118  62.665  0.00  0.00    -0.320 OA
HETATM    2  O   UNK N   1      34.394  52.098  66.076  0.00  0.00    -0.286 OA
HETATM    3  O   UNK N   1      36.805  46.390  64.926  0.00  0.00    -0.333 OA
HETATM    4  C   UNK N   1      35.271  49.529  63.801  0.00  0.00     0.102 A 
HETATM    5  C   UNK N   1      34.356  51.327  62.630  0.00  0.00     0.159 A 
HETATM    6  C   UNK N   1      34.556  51.490  65.030  0.00  0.00     0.198 A 
HETATM    7  C   UNK N   1      36.216  47.612  64.962  0.00  0.00     0.116 A 
HETATM    8  C   UNK N   1      35.988  48.246  66.197  0.00  0.00     0.101 A 
HETATM    9  C   UNK N   1      35.087  50.188  65.035  0.00  0.00     0.052 A 
HETATM   10  C   UNK N   1      34.181  52.071  63.804  0.00  0.00     0.048 A 
HETATM   11  C   UNK N   1      35.853  48.250  63.768  0.00  0.00     0.035 A 
HETATM   12  C   UNK N   1      35.438  49.533  66.231  0.00  0.00     0.057 A 
HETATM   13  C   UNK N   1      37.180  45.697  63.776  0.00  0.00     0.078 A 
HETATM   14  C   UNK N   1      36.119  47.565  62.495  0.00  0.00     0.016 A 
HETATM   15  C   UNK N   1      36.745  46.384  62.488  0.00  0.00     0.012 A 
HETATM   16  C   UNK N   1      36.555  44.297  63.820  0.00  0.00     0.051 C 
HETATM   17  C   UNK N   1      38.709  45.586  63.779  0.00  0.00     0.051 C 
ENDROOT
BRANCH  10  18
HETATM   18  C   UNK N   1      33.600  53.433  63.723  0.00  0.00    -0.017 A 
HETATM   19  C   UNK N   1      34.417  54.550  63.495  0.00  0.00     0.052 A 
HETATM   20  C   UNK N   1      33.853  55.840  63.380  0.00  0.00     0.102 A 
HETATM   21  C   UNK N   1      32.466  56.007  63.548  0.00  0.00     0.101 A 
HETATM   22  C   UNK N   1      31.655  54.878  63.788  0.00  0.00     0.040 A 
HETATM   23  C   UNK N   1      32.217  53.605  63.853  0.00  0.00     0.015 A 
BRANCH  20  24
HETATM   24  O   UNK N   1      34.612  56.934  63.096  0.00  0.00    -0.353 OA
HETATM   25  C   UNK N   1      35.501  57.531  63.967  0.00  0.00     0.210 C 
ENDBRANCH  20  24
BRANCH  21  26
HETATM   26  O   UNK N   1      31.942  57.260  63.465  0.00  0.00    -0.353 OA
HETATM   27  C   UNK N   1      31.182  57.732  62.412  0.00  0.00     0.210 C 
ENDBRANCH  21  26
ENDBRANCH  10  18
BRANCH   8  28
HETATM   28  O   UNK N   1      36.306  47.637  67.359  0.00  0.00    -0.358 OA
HETATM   29  H   UNK N   1      35.714  47.003  67.789  0.00  0.00     0.218 HD
ENDBRANCH   8  28
TORSDOF 4
ENDMDL
