MODEL 1
REMARK VINA RESULT:      -7.2      0.000      0.000
REMARK  5 active torsions:
REMARK  status: ('A' for Active; 'I' for Inactive)
REMARK    1  A    between atoms: O_2  and  C_8 
REMARK    2  A    between atoms: O_3  and  C_9 
REMARK    3  A    between atoms: O_4  and  C_10 
REMARK    4  A    between atoms: O_5  and  C_11 
REMARK    5  A    between atoms: C_12  and  C_19 
ROOT
HETATM    1  O   UNK N   1      41.111  46.577  44.987  0.00  0.00    -0.340 OA
HETATM    2  O   UNK N   1      40.992  46.382  48.970  0.00  0.00    -0.292 OA
HETATM    3  C   UNK N   1      41.482  45.398  45.556  0.00  0.00     0.089 A 
HETATM    4  C   UNK N   1      41.771  44.003  47.548  0.00  0.00     0.120 A 
HETATM    5  C   UNK N   1      42.368  43.156  45.328  0.00  0.00     0.106 A 
HETATM    6  C   UNK N   1      42.261  42.956  46.720  0.00  0.00     0.134 A 
HETATM    7  C   UNK N   1      41.380  45.226  46.948  0.00  0.00     0.079 A 
HETATM    8  C   UNK N   1      41.978  44.369  44.756  0.00  0.00     0.077 A 
HETATM    9  C   UNK N   1      40.138  47.375  45.568  0.00  0.00     0.169 C 
HETATM   10  C   UNK N   1      40.912  46.387  47.752  0.00  0.00     0.168 C 
HETATM   11  C   UNK N   1      40.472  47.641  47.054  0.00  0.00     0.121 C 
ENDROOT
BRANCH   9  12
HETATM   12  C   UNK N   1      39.898  48.641  44.749  0.00  0.00    -0.028 A 
HETATM   13  C   UNK N   1      40.818  49.703  44.822  0.00  0.00     0.012 A 
HETATM   14  C   UNK N   1      40.620  50.872  44.076  0.00  0.00     0.037 A 
HETATM   15  C   UNK N   1      39.507  50.990  43.219  0.00  0.00     0.068 A 
HETATM   16  C   UNK N   1      38.600  49.931  43.135  0.00  0.00     0.037 A 
HETATM   17  C   UNK N   1      38.784  48.773  43.891  0.00  0.00     0.012 A 
BRANCH  15  18
HETATM   18  O   UNK N   1      39.279  52.094  42.461  0.00  0.00    -0.356 OA
HETATM   19  C   UNK N   1      39.952  53.292  42.570  0.00  0.00     0.210 C 
ENDBRANCH  15  18
ENDBRANCH   9  12
BRANCH   4  20
HETATM   20  O   UNK N   1      41.664  43.887  48.903  0.00  0.00    -0.352 OA
HETATM   21  C   UNK N   1      40.752  43.139  49.620  0.00  0.00     0.210 C 
ENDBRANCH   4  20
BRANCH   5  22
HETATM   22  O   UNK N   1      42.859  42.178  44.535  0.00  0.00    -0.353 OA
HETATM   23  C   UNK N   1      44.218  42.019  44.366  0.00  0.00     0.210 C 
ENDBRANCH   5  22
BRANCH   6  24
HETATM   24  O   UNK N   1      42.631  41.773  47.260  0.00  0.00    -0.356 OA
HETATM   25  H   UNK N   1      42.017  41.037  47.389  0.00  0.00     0.218 HD
ENDBRANCH   6  24
TORSDOF 5
ENDMDL
MODEL 2
REMARK VINA RESULT:      -5.6     14.111     17.455
REMARK  5 active torsions:
REMARK  status: ('A' for Active; 'I' for Inactive)
REMARK    1  A    between atoms: O_2  and  C_8 
REMARK    2  A    between atoms: O_3  and  C_9 
REMARK    3  A    between atoms: O_4  and  C_10 
REMARK    4  A    between atoms: O_5  and  C_11 
REMARK    5  A    between atoms: C_12  and  C_19 
ROOT
HETATM    1  O   UNK N   1      48.195  32.070  50.372  0.00  0.00    -0.340 OA
HETATM    2  O   UNK N   1      45.231  34.339  48.964  0.00  0.00    -0.292 OA
HETATM    3  C   UNK N   1      48.036  32.104  49.021  0.00  0.00     0.089 A 
HETATM    4  C   UNK N   1      46.894  32.988  47.042  0.00  0.00     0.120 A 
HETATM    5  C   UNK N   1      48.664  31.308  46.822  0.00  0.00     0.106 A 
HETATM    6  C   UNK N   1      47.711  32.160  46.225  0.00  0.00     0.134 A 
HETATM    7  C   UNK N   1      47.070  32.952  48.448  0.00  0.00     0.079 A 
HETATM    8  C   UNK N   1      48.821  31.287  48.211  0.00  0.00     0.077 A 
HETATM    9  C   UNK N   1      47.904  33.177  51.154  0.00  0.00     0.169 C 
HETATM   10  C   UNK N   1      46.216  33.745  49.372  0.00  0.00     0.168 C 
HETATM   11  C   UNK N   1      46.479  33.695  50.850  0.00  0.00     0.121 C 
ENDROOT
BRANCH   9  12
HETATM   12  C   UNK N   1      48.159  32.894  52.632  0.00  0.00    -0.028 A 
HETATM   13  C   UNK N   1      49.151  33.618  53.319  0.00  0.00     0.012 A 
HETATM   14  C   UNK N   1      49.400  33.377  54.677  0.00  0.00     0.037 A 
HETATM   15  C   UNK N   1      48.640  32.420  55.381  0.00  0.00     0.068 A 
HETATM   16  C   UNK N   1      47.646  31.711  54.704  0.00  0.00     0.037 A 
HETATM   17  C   UNK N   1      47.409  31.934  53.347  0.00  0.00     0.012 A 
BRANCH  15  18
HETATM   18  O   UNK N   1      48.829  32.162  56.701  0.00  0.00    -0.356 OA
HETATM   19  C   UNK N   1      47.838  31.823  57.599  0.00  0.00     0.210 C 
ENDBRANCH  15  18
ENDBRANCH   9  12
BRANCH   4  20
HETATM   20  O   UNK N   1      45.938  33.817  46.534  0.00  0.00    -0.352 OA
HETATM   21  C   UNK N   1      44.846  33.478  45.761  0.00  0.00     0.210 C 
ENDBRANCH   4  20
BRANCH   5  22
HETATM   22  O   UNK N   1      49.426  30.496  46.057  0.00  0.00    -0.353 OA
HETATM   23  C   UNK N   1      50.685  30.883  45.649  0.00  0.00     0.210 C 
ENDBRANCH   5  22
BRANCH   6  24
HETATM   24  O   UNK N   1      47.578  32.179  44.880  0.00  0.00    -0.356 OA
HETATM   25  H   UNK N   1      48.112  31.632  44.288  0.00  0.00     0.218 HD
ENDBRANCH   6  24
TORSDOF 5
ENDMDL
MODEL 3
REMARK VINA RESULT:      -5.4     12.286     16.315
REMARK  5 active torsions:
REMARK  status: ('A' for Active; 'I' for Inactive)
REMARK    1  A    between atoms: O_2  and  C_8 
REMARK    2  A    between atoms: O_3  and  C_9 
REMARK    3  A    between atoms: O_4  and  C_10 
REMARK    4  A    between atoms: O_5  and  C_11 
REMARK    5  A    between atoms: C_12  and  C_19 
ROOT
HETATM    1  O   UNK N   1      29.069  54.985  42.477  0.00  0.00    -0.340 OA
HETATM    2  O   UNK N   1      29.492  52.605  39.303  0.00  0.00    -0.292 OA
HETATM    3  C   UNK N   1      27.962  54.776  41.714  0.00  0.00     0.089 A 
HETATM    4  C   UNK N   1      26.866  53.660  39.830  0.00  0.00     0.120 A 
HETATM    5  C   UNK N   1      25.642  55.263  41.221  0.00  0.00     0.106 A 
HETATM    6  C   UNK N   1      25.666  54.357  40.140  0.00  0.00     0.134 A 
HETATM    7  C   UNK N   1      28.013  53.878  40.632  0.00  0.00     0.079 A 
HETATM    8  C   UNK N   1      26.785  55.464  42.000  0.00  0.00     0.077 A 
HETATM    9  C   UNK N   1      30.029  53.996  42.629  0.00  0.00     0.169 C 
HETATM   10  C   UNK N   1      29.319  53.230  40.337  0.00  0.00     0.168 C 
HETATM   11  C   UNK N   1      30.487  53.470  41.250  0.00  0.00     0.121 C 
ENDROOT
BRANCH   9  12
HETATM   12  C   UNK N   1      31.172  54.468  43.525  0.00  0.00    -0.028 A 
HETATM   13  C   UNK N   1      31.081  54.299  44.919  0.00  0.00     0.012 A 
HETATM   14  C   UNK N   1      32.119  54.721  45.760  0.00  0.00     0.037 A 
HETATM   15  C   UNK N   1      33.284  55.299  45.216  0.00  0.00     0.068 A 
HETATM   16  C   UNK N   1      33.383  55.454  43.832  0.00  0.00     0.037 A 
HETATM   17  C   UNK N   1      32.343  55.053  42.993  0.00  0.00     0.012 A 
BRANCH  15  18
HETATM   18  O   UNK N   1      34.327  55.708  45.985  0.00  0.00    -0.356 OA
HETATM   19  C   UNK N   1      34.403  56.909  46.657  0.00  0.00     0.210 C 
ENDBRANCH  15  18
ENDBRANCH   9  12
BRANCH   4  20
HETATM   20  O   UNK N   1      26.967  52.788  38.785  0.00  0.00    -0.352 OA
HETATM   21  C   UNK N   1      26.388  51.541  38.663  0.00  0.00     0.210 C 
ENDBRANCH   4  20
BRANCH   5  22
HETATM   22  O   UNK N   1      24.516  55.952  41.507  0.00  0.00    -0.353 OA
HETATM   23  C   UNK N   1      24.427  57.304  41.247  0.00  0.00     0.210 C 
ENDBRANCH   5  22
BRANCH   6  24
HETATM   24  O   UNK N   1      24.550  54.163  39.402  0.00  0.00    -0.356 OA
HETATM   25  H   UNK N   1      24.216  54.813  38.769  0.00  0.00     0.218 HD
ENDBRANCH   6  24
TORSDOF 5
ENDMDL
MODEL 4
REMARK VINA RESULT:      -5.2     14.396     17.787
REMARK  5 active torsions:
REMARK  status: ('A' for Active; 'I' for Inactive)
REMARK    1  A    between atoms: O_2  and  C_8 
REMARK    2  A    between atoms: O_3  and  C_9 
REMARK    3  A    between atoms: O_4  and  C_10 
REMARK    4  A    between atoms: O_5  and  C_11 
REMARK    5  A    between atoms: C_12  and  C_19 
ROOT
HETATM    1  O   UNK N   1      50.314  33.677  48.780  0.00  0.00    -0.340 OA
HETATM    2  O   UNK N   1      51.071  30.565  46.401  0.00  0.00    -0.292 OA
HETATM    3  C   UNK N   1      49.254  33.139  48.116  0.00  0.00     0.089 A 
HETATM    4  C   UNK N   1      48.333  31.423  46.631  0.00  0.00     0.120 A 
HETATM    5  C   UNK N   1      46.907  33.204  47.524  0.00  0.00     0.106 A 
HETATM    6  C   UNK N   1      47.057  32.040  46.742  0.00  0.00     0.134 A 
HETATM    7  C   UNK N   1      49.430  31.985  47.330  0.00  0.00     0.079 A 
HETATM    8  C   UNK N   1      48.002  33.743  48.206  0.00  0.00     0.077 A 
HETATM    9  C   UNK N   1      51.372  32.885  49.196  0.00  0.00     0.169 C 
HETATM   10  C   UNK N   1      50.806  31.431  47.219  0.00  0.00     0.168 C 
HETATM   11  C   UNK N   1      51.918  32.047  48.018  0.00  0.00     0.121 C 
ENDROOT
BRANCH   9  12
HETATM   12  C   UNK N   1      52.435  33.715  49.913  0.00  0.00    -0.028 A 
HETATM   13  C   UNK N   1      53.067  34.774  49.236  0.00  0.00     0.012 A 
HETATM   14  C   UNK N   1      54.042  35.551  49.876  0.00  0.00     0.037 A 
HETATM   15  C   UNK N   1      54.385  35.296  51.219  0.00  0.00     0.068 A 
HETATM   16  C   UNK N   1      53.749  34.255  51.897  0.00  0.00     0.037 A 
HETATM   17  C   UNK N   1      52.792  33.467  51.258  0.00  0.00     0.012 A 
BRANCH  15  18
HETATM   18  O   UNK N   1      55.310  36.031  51.891  0.00  0.00    -0.356 OA
HETATM   19  C   UNK N   1      55.175  36.500  53.181  0.00  0.00     0.210 C 
ENDBRANCH  15  18
ENDBRANCH   9  12
BRANCH   4  20
HETATM   20  O   UNK N   1      48.554  30.310  45.873  0.00  0.00    -0.352 OA
HETATM   21  C   UNK N   1      48.458  30.187  44.502  0.00  0.00     0.210 C 
ENDBRANCH   4  20
BRANCH   5  22
HETATM   22  O   UNK N   1      45.706  33.816  47.615  0.00  0.00    -0.353 OA
HETATM   23  C   UNK N   1      44.902  33.639  48.721  0.00  0.00     0.210 C 
ENDBRANCH   5  22
BRANCH   6  24
HETATM   24  O   UNK N   1      45.987  31.522  46.098  0.00  0.00    -0.356 OA
HETATM   25  H   UNK N   1      45.085  31.579  46.442  0.00  0.00     0.218 HD
ENDBRANCH   6  24
TORSDOF 5
ENDMDL
MODEL 5
REMARK VINA RESULT:      -5.1     14.611     18.149
REMARK  5 active torsions:
REMARK  status: ('A' for Active; 'I' for Inactive)
REMARK    1  A    between atoms: O_2  and  C_8 
REMARK    2  A    between atoms: O_3  and  C_9 
REMARK    3  A    between atoms: O_4  and  C_10 
REMARK    4  A    between atoms: O_5  and  C_11 
REMARK    5  A    between atoms: C_12  and  C_19 
ROOT
HETATM    1  O   UNK N   1      49.365  32.815  49.317  0.00  0.00    -0.340 OA
HETATM    2  O   UNK N   1      52.089  30.677  47.335  0.00  0.00    -0.292 OA
HETATM    3  C   UNK N   1      49.011  32.360  48.084  0.00  0.00     0.089 A 
HETATM    4  C   UNK N   1      49.526  31.052  46.079  0.00  0.00     0.120 A 
HETATM    5  C   UNK N   1      47.415  32.281  46.265  0.00  0.00     0.106 A 
HETATM    6  C   UNK N   1      48.270  31.432  45.532  0.00  0.00     0.134 A 
HETATM    7  C   UNK N   1      49.885  31.525  47.365  0.00  0.00     0.079 A 
HETATM    8  C   UNK N   1      47.788  32.737  47.532  0.00  0.00     0.077 A 
HETATM    9  C   UNK N   1      50.219  32.085  50.129  0.00  0.00     0.169 C 
HETATM   10  C   UNK N   1      51.205  31.219  47.980  0.00  0.00     0.168 C 
HETATM   11  C   UNK N   1      51.509  31.715  49.364  0.00  0.00     0.121 C 
ENDROOT
BRANCH   9  12
HETATM   12  C   UNK N   1      50.466  32.801  51.455  0.00  0.00    -0.028 A 
HETATM   13  C   UNK N   1      49.374  33.197  52.248  0.00  0.00     0.012 A 
HETATM   14  C   UNK N   1      49.577  33.851  53.470  0.00  0.00     0.037 A 
HETATM   15  C   UNK N   1      50.885  34.099  53.935  0.00  0.00     0.068 A 
HETATM   16  C   UNK N   1      51.971  33.694  53.156  0.00  0.00     0.037 A 
HETATM   17  C   UNK N   1      51.772  33.060  51.930  0.00  0.00     0.012 A 
BRANCH  15  18
HETATM   18  O   UNK N   1      51.138  34.713  55.121  0.00  0.00    -0.356 OA
HETATM   19  C   UNK N   1      52.325  35.322  55.469  0.00  0.00     0.210 C 
ENDBRANCH  15  18
ENDBRANCH   9  12
BRANCH   4  20
HETATM   20  O   UNK N   1      50.411  30.253  45.415  0.00  0.00    -0.352 OA
HETATM   21  C   UNK N   1      51.063  30.516  44.228  0.00  0.00     0.210 C 
ENDBRANCH   4  20
BRANCH   5  22
HETATM   22  O   UNK N   1      46.231  32.671  45.744  0.00  0.00    -0.353 OA
HETATM   23  C   UNK N   1      45.385  33.500  46.450  0.00  0.00     0.210 C 
ENDBRANCH   5  22
BRANCH   6  24
HETATM   24  O   UNK N   1      47.891  30.988  44.312  0.00  0.00    -0.356 OA
HETATM   25  H   UNK N   1      48.007  31.505  43.503  0.00  0.00     0.218 HD
ENDBRANCH   6  24
TORSDOF 5
ENDMDL
MODEL 6
REMARK VINA RESULT:      -5.1     14.912     17.320
REMARK  5 active torsions:
REMARK  status: ('A' for Active; 'I' for Inactive)
REMARK    1  A    between atoms: O_2  and  C_8 
REMARK    2  A    between atoms: O_3  and  C_9 
REMARK    3  A    between atoms: O_4  and  C_10 
REMARK    4  A    between atoms: O_5  and  C_11 
REMARK    5  A    between atoms: C_12  and  C_19 
ROOT
HETATM    1  O   UNK N   1      28.201  42.687  53.647  0.00  0.00    -0.340 OA
HETATM    2  O   UNK N   1      27.559  38.871  52.674  0.00  0.00    -0.292 OA
HETATM    3  C   UNK N   1      27.199  42.439  52.759  0.00  0.00     0.089 A 
HETATM    4  C   UNK N   1      25.819  40.848  51.511  0.00  0.00     0.120 A 
HETATM    5  C   UNK N   1      25.500  43.262  51.243  0.00  0.00     0.106 A 
HETATM    6  C   UNK N   1      25.131  41.941  50.916  0.00  0.00     0.134 A 
HETATM    7  C   UNK N   1      26.856  41.113  52.438  0.00  0.00     0.079 A 
HETATM    8  C   UNK N   1      26.527  43.503  52.160  0.00  0.00     0.077 A 
HETATM    9  C   UNK N   1      28.502  41.783  54.654  0.00  0.00     0.169 C 
HETATM   10  C   UNK N   1      27.660  40.026  53.058  0.00  0.00     0.168 C 
HETATM   11  C   UNK N   1      28.719  40.370  54.066  0.00  0.00     0.121 C 
ENDROOT
BRANCH   9  12
HETATM   12  C   UNK N   1      29.660  42.282  55.516  0.00  0.00    -0.028 A 
HETATM   13  C   UNK N   1      30.982  42.141  55.056  0.00  0.00     0.012 A 
HETATM   14  C   UNK N   1      32.059  42.595  55.829  0.00  0.00     0.037 A 
HETATM   15  C   UNK N   1      31.830  43.223  57.070  0.00  0.00     0.068 A 
HETATM   16  C   UNK N   1      30.518  43.376  57.521  0.00  0.00     0.037 A 
HETATM   17  C   UNK N   1      29.444  42.908  56.764  0.00  0.00     0.012 A 
BRANCH  15  18
HETATM   18  O   UNK N   1      32.837  43.697  57.849  0.00  0.00    -0.356 OA
HETATM   19  C   UNK N   1      33.391  43.040  58.927  0.00  0.00     0.210 C 
ENDBRANCH  15  18
ENDBRANCH   9  12
BRANCH   4  20
HETATM   20  O   UNK N   1      25.530  39.546  51.222  0.00  0.00    -0.352 OA
HETATM   21  C   UNK N   1      24.403  38.830  51.574  0.00  0.00     0.210 C 
ENDBRANCH   4  20
BRANCH   5  22
HETATM   22  O   UNK N   1      24.872  44.309  50.663  0.00  0.00    -0.353 OA
HETATM   23  C   UNK N   1      24.169  45.221  51.421  0.00  0.00     0.210 C 
ENDBRANCH   5  22
BRANCH   6  24
HETATM   24  O   UNK N   1      24.128  41.722  50.036  0.00  0.00    -0.356 OA
HETATM   25  H   UNK N   1      23.214  41.991  50.201  0.00  0.00     0.218 HD
ENDBRANCH   6  24
TORSDOF 5
ENDMDL
MODEL 7
REMARK VINA RESULT:      -4.7      2.958      7.866
REMARK  5 active torsions:
REMARK  status: ('A' for Active; 'I' for Inactive)
REMARK    1  A    between atoms: O_2  and  C_8 
REMARK    2  A    between atoms: O_3  and  C_9 
REMARK    3  A    between atoms: O_4  and  C_10 
REMARK    4  A    between atoms: O_5  and  C_11 
REMARK    5  A    between atoms: C_12  and  C_19 
ROOT
HETATM    1  O   UNK N   1      38.874  47.137  46.014  0.00  0.00    -0.340 OA
HETATM    2  O   UNK N   1      41.490  49.908  44.835  0.00  0.00    -0.292 OA
HETATM    3  C   UNK N   1      38.564  47.834  44.887  0.00  0.00     0.089 A 
HETATM    4  C   UNK N   1      39.162  49.497  43.192  0.00  0.00     0.120 A 
HETATM    5  C   UNK N   1      36.999  48.349  43.113  0.00  0.00     0.106 A 
HETATM    6  C   UNK N   1      37.907  49.275  42.560  0.00  0.00     0.134 A 
HETATM    7  C   UNK N   1      39.480  48.763  44.361  0.00  0.00     0.079 A 
HETATM    8  C   UNK N   1      37.332  47.635  44.267  0.00  0.00     0.077 A 
HETATM    9  C   UNK N   1      40.191  46.852  46.339  0.00  0.00     0.169 C 
HETATM   10  C   UNK N   1      40.746  48.981  45.111  0.00  0.00     0.168 C 
HETATM   11  C   UNK N   1      41.043  48.141  46.321  0.00  0.00     0.121 C 
ENDROOT
BRANCH   9  12
HETATM   12  C   UNK N   1      40.282  46.066  47.644  0.00  0.00    -0.028 A 
HETATM   13  C   UNK N   1      41.372  46.273  48.509  0.00  0.00     0.012 A 
HETATM   14  C   UNK N   1      41.475  45.565  49.713  0.00  0.00     0.037 A 
HETATM   15  C   UNK N   1      40.469  44.651  50.089  0.00  0.00     0.068 A 
HETATM   16  C   UNK N   1      39.378  44.454  49.239  0.00  0.00     0.037 A 
HETATM   17  C   UNK N   1      39.283  45.143  48.029  0.00  0.00     0.012 A 
BRANCH  15  18
HETATM   18  O   UNK N   1      40.510  43.953  51.254  0.00  0.00    -0.356 OA
HETATM   19  C   UNK N   1      41.305  44.255  52.339  0.00  0.00     0.210 C 
ENDBRANCH  15  18
ENDBRANCH   9  12
BRANCH   4  20
HETATM   20  O   UNK N   1      40.077  50.395  42.726  0.00  0.00    -0.352 OA
HETATM   21  C   UNK N   1      39.966  51.770  42.677  0.00  0.00     0.210 C 
ENDBRANCH   4  20
BRANCH   5  22
HETATM   22  O   UNK N   1      35.793  48.150  42.537  0.00  0.00    -0.353 OA
HETATM   23  C   UNK N   1      34.630  48.512  43.183  0.00  0.00     0.210 C 
ENDBRANCH   5  22
BRANCH   6  24
HETATM   24  O   UNK N   1      37.578  49.950  41.436  0.00  0.00    -0.356 OA
HETATM   25  H   UNK N   1      37.476  50.911  41.408  0.00  0.00     0.218 HD
ENDBRANCH   6  24
TORSDOF 5
ENDMDL
MODEL 8
REMARK VINA RESULT:      -4.7     14.957     18.168
REMARK  5 active torsions:
REMARK  status: ('A' for Active; 'I' for Inactive)
REMARK    1  A    between atoms: O_2  and  C_8 
REMARK    2  A    between atoms: O_3  and  C_9 
REMARK    3  A    between atoms: O_4  and  C_10 
REMARK    4  A    between atoms: O_5  and  C_11 
REMARK    5  A    between atoms: C_12  and  C_19 
ROOT
HETATM    1  O   UNK N   1      50.584  32.174  48.841  0.00  0.00    -0.340 OA
HETATM    2  O   UNK N   1      46.609  32.378  49.102  0.00  0.00    -0.292 OA
HETATM    3  C   UNK N   1      49.884  32.015  47.685  0.00  0.00     0.089 A 
HETATM    4  C   UNK N   1      47.749  31.993  46.486  0.00  0.00     0.120 A 
HETATM    5  C   UNK N   1      49.848  31.517  45.316  0.00  0.00     0.106 A 
HETATM    6  C   UNK N   1      48.447  31.674  45.289  0.00  0.00     0.134 A 
HETATM    7  C   UNK N   1      48.485  32.163  47.685  0.00  0.00     0.079 A 
HETATM    8  C   UNK N   1      50.556  31.689  46.508  0.00  0.00     0.077 A 
HETATM    9  C   UNK N   1      50.121  33.006  49.848  0.00  0.00     0.169 C 
HETATM   10  C   UNK N   1      47.823  32.440  48.987  0.00  0.00     0.168 C 
HETATM   11  C   UNK N   1      48.662  32.652  50.214  0.00  0.00     0.121 C 
ENDROOT
BRANCH   9  12
HETATM   12  C   UNK N   1      51.075  33.018  51.040  0.00  0.00    -0.028 A 
HETATM   13  C   UNK N   1      50.562  32.905  52.345  0.00  0.00     0.012 A 
HETATM   14  C   UNK N   1      51.420  32.910  53.453  0.00  0.00     0.037 A 
HETATM   15  C   UNK N   1      52.815  33.002  53.272  0.00  0.00     0.068 A 
HETATM   16  C   UNK N   1      53.327  33.099  51.977  0.00  0.00     0.037 A 
HETATM   17  C   UNK N   1      52.475  33.115  50.872  0.00  0.00     0.012 A 
BRANCH  15  18
HETATM   18  O   UNK N   1      53.691  32.992  54.311  0.00  0.00    -0.356 OA
HETATM   19  C   UNK N   1      53.675  33.864  55.379  0.00  0.00     0.210 C 
ENDBRANCH  15  18
ENDBRANCH   9  12
BRANCH   4  20
HETATM   20  O   UNK N   1      46.393  32.136  46.537  0.00  0.00    -0.352 OA
HETATM   21  C   UNK N   1      45.638  33.212  46.118  0.00  0.00     0.210 C 
ENDBRANCH   4  20
BRANCH   5  22
HETATM   22  O   UNK N   1      50.519  31.187  44.190  0.00  0.00    -0.353 OA
HETATM   23  C   UNK N   1      51.764  31.716  43.927  0.00  0.00     0.210 C 
ENDBRANCH   5  22
BRANCH   6  24
HETATM   24  O   UNK N   1      47.775  31.517  44.126  0.00  0.00    -0.356 OA
HETATM   25  H   UNK N   1      47.618  32.242  43.505  0.00  0.00     0.218 HD
ENDBRANCH   6  24
TORSDOF 5
ENDMDL
MODEL 9
REMARK VINA RESULT:      -4.7     15.594     18.982
REMARK  5 active torsions:
REMARK  status: ('A' for Active; 'I' for Inactive)
REMARK    1  A    between atoms: O_2  and  C_8 
REMARK    2  A    between atoms: O_3  and  C_9 
REMARK    3  A    between atoms: O_4  and  C_10 
REMARK    4  A    between atoms: O_5  and  C_11 
REMARK    5  A    between atoms: C_12  and  C_19 
ROOT
HETATM    1  O   UNK N   1      34.269  43.611  61.493  0.00  0.00    -0.340 OA
HETATM    2  O   UNK N   1      31.256  42.870  64.001  0.00  0.00    -0.292 OA
HETATM    3  C   UNK N   1      33.085  43.238  60.937  0.00  0.00     0.089 A 
HETATM    4  C   UNK N   1      30.719  42.653  61.181  0.00  0.00     0.120 A 
HETATM    5  C   UNK N   1      31.792  42.642  58.978  0.00  0.00     0.106 A 
HETATM    6  C   UNK N   1      30.643  42.459  59.774  0.00  0.00     0.134 A 
HETATM    7  C   UNK N   1      31.954  43.048  61.752  0.00  0.00     0.079 A 
HETATM    8  C   UNK N   1      33.001  43.031  59.561  0.00  0.00     0.077 A 
HETATM    9  C   UNK N   1      34.307  44.352  62.664  0.00  0.00     0.169 C 
HETATM   10  C   UNK N   1      32.129  43.215  63.220  0.00  0.00     0.168 C 
HETATM   11  C   UNK N   1      33.452  43.676  63.760  0.00  0.00     0.121 C 
ENDROOT
BRANCH   9  12
HETATM   12  C   UNK N   1      35.744  44.644  63.088  0.00  0.00    -0.028 A 
HETATM   13  C   UNK N   1      36.097  44.575  64.449  0.00  0.00     0.012 A 
HETATM   14  C   UNK N   1      37.410  44.836  64.861  0.00  0.00     0.037 A 
HETATM   15  C   UNK N   1      38.405  45.146  63.911  0.00  0.00     0.068 A 
HETATM   16  C   UNK N   1      38.060  45.201  62.560  0.00  0.00     0.037 A 
HETATM   17  C   UNK N   1      36.749  44.962  62.148  0.00  0.00     0.012 A 
BRANCH  15  18
HETATM   18  O   UNK N   1      39.697  45.389  64.256  0.00  0.00    -0.356 OA
HETATM   19  C   UNK N   1      40.113  46.005  65.417  0.00  0.00     0.210 C 
ENDBRANCH  15  18
ENDBRANCH   9  12
BRANCH   4  20
HETATM   20  O   UNK N   1      29.653  42.470  62.013  0.00  0.00    -0.352 OA
HETATM   21  C   UNK N   1      28.524  43.254  62.127  0.00  0.00     0.210 C 
ENDBRANCH   4  20
BRANCH   5  22
HETATM   22  O   UNK N   1      31.738  42.433  57.644  0.00  0.00    -0.353 OA
HETATM   23  C   UNK N   1      31.700  43.492  56.762  0.00  0.00     0.210 C 
ENDBRANCH   5  22
BRANCH   6  24
HETATM   24  O   UNK N   1      29.476  42.094  59.196  0.00  0.00    -0.356 OA
HETATM   25  H   UNK N   1      28.838  41.506  59.621  0.00  0.00     0.218 HD
ENDBRANCH   6  24
TORSDOF 5
ENDMDL
