MODEL 1
REMARK VINA RESULT:      -6.8      0.000      0.000
REMARK  5 active torsions:
REMARK  status: ('A' for Active; 'I' for Inactive)
REMARK    1  A    between atoms: O_1  and  C_4 
REMARK    2  A    between atoms: O_2  and  C_13 
REMARK    3  A    between atoms: O_3  and  C_14 
REMARK    4  A    between atoms: C_7  and  C_13 
REMARK    5  A    between atoms: C_11  and  C_14 
ROOT
HETATM    1  C   UNK N   1      45.419  32.838  49.911  0.00  0.00     0.124 C 
HETATM    2  C   UNK N   1      46.377  32.289  48.785  0.00  0.00     0.033 C 
HETATM    3  C   UNK N   1      47.628  31.586  49.488  0.00  0.00    -0.033 C 
HETATM    4  C   UNK N   1      49.129  33.775  53.146  0.00  0.00    -0.010 A 
HETATM    5  C   UNK N   1      49.845  32.532  52.644  0.00  0.00     0.002 A 
HETATM    6  C   UNK N   1      48.549  32.439  53.522  0.00  0.00     0.002 A 
HETATM    7  C   UNK N   1      48.339  32.570  50.525  0.00  0.00     0.003 C 
HETATM    8  C   UNK N   1      46.708  33.258  47.533  0.00  0.00    -0.016 C 
HETATM    9  C   UNK N   1      47.389  33.275  51.557  0.00  0.00    -0.033 C 
HETATM   10  C   UNK N   1      46.114  33.828  50.876  0.00  0.00     0.042 C 
HETATM   11  C   UNK N   1      48.155  34.451  52.198  0.00  0.00     0.022 C 
HETATM   12  C   UNK N   1      49.548  31.921  51.267  0.00  0.00     0.012 C 
HETATM   13  C   UNK N   1      47.171  32.411  52.816  0.00  0.00     0.016 C 
HETATM   14  C   UNK N   1      48.645  31.095  48.413  0.00  0.00     0.010 C 
HETATM   15  C   UNK N   1      47.793  32.588  46.640  0.00  0.00     0.012 C 
HETATM   16  C   UNK N   1      47.124  30.259  50.159  0.00  0.00     0.016 C 
HETATM   17  C   UNK N   1      47.179  34.694  47.884  0.00  0.00     0.018 C 
HETATM   18  C   UNK N   1      49.041  32.172  47.411  0.00  0.00     0.002 C 
ENDROOT
BRANCH   8  19
HETATM   19  C   UNK N   1      45.440  33.410  46.622  0.00  0.00     0.173 C 
BRANCH  19  20
HETATM   20  O   UNK N   1      45.761  33.343  45.254  0.00  0.00    -0.400 OA
HETATM   21  H   UNK N   1      46.699  33.027  45.185  0.00  0.00     0.209 HD
ENDBRANCH  19  20
ENDBRANCH   8  19
BRANCH   1  22
HETATM   22  O   UNK N   1      44.228  33.369  49.383  0.00  0.00    -0.395 OA
HETATM   23  H   UNK N   1      44.157  33.118  48.426  0.00  0.00     0.210 HD
ENDBRANCH   1  22
BRANCH   4  24
HETATM   24  C   UNK N   1      49.907  34.590  54.186  0.00  0.00     0.174 C 
BRANCH  24  25
HETATM   25  O   UNK N   1      49.191  35.736  54.555  0.00  0.00    -0.400 OA
HETATM   26  H   UNK N   1      49.843  36.358  54.970  0.00  0.00     0.209 HD
ENDBRANCH  24  25
ENDBRANCH   4  24
TORSDOF 5
ENDMDL
MODEL 2
REMARK VINA RESULT:      -6.1     20.543     22.966
REMARK  5 active torsions:
REMARK  status: ('A' for Active; 'I' for Inactive)
REMARK    1  A    between atoms: O_1  and  C_4 
REMARK    2  A    between atoms: O_2  and  C_13 
REMARK    3  A    between atoms: O_3  and  C_14 
REMARK    4  A    between atoms: C_7  and  C_13 
REMARK    5  A    between atoms: C_11  and  C_14 
ROOT
HETATM    1  C   UNK N   1      38.633  45.619  64.062  0.00  0.00     0.124 C 
HETATM    2  C   UNK N   1      37.547  44.520  64.384  0.00  0.00     0.033 C 
HETATM    3  C   UNK N   1      36.154  44.991  63.760  0.00  0.00    -0.033 C 
HETATM    4  C   UNK N   1      35.374  49.423  64.188  0.00  0.00    -0.010 A 
HETATM    5  C   UNK N   1      34.328  48.513  63.566  0.00  0.00     0.002 A 
HETATM    6  C   UNK N   1      35.551  49.048  62.742  0.00  0.00     0.002 A 
HETATM    7  C   UNK N   1      35.763  46.458  64.256  0.00  0.00     0.003 C 
HETATM    8  C   UNK N   1      37.497  43.923  65.886  0.00  0.00    -0.016 C 
HETATM    9  C   UNK N   1      36.884  47.548  64.113  0.00  0.00    -0.033 C 
HETATM   10  C   UNK N   1      38.258  47.023  64.594  0.00  0.00     0.042 C 
HETATM   11  C   UNK N   1      36.491  48.765  64.976  0.00  0.00     0.022 C 
HETATM   12  C   UNK N   1      34.426  46.983  63.649  0.00  0.00     0.012 C 
HETATM   13  C   UNK N   1      36.857  48.216  62.723  0.00  0.00     0.016 C 
HETATM   14  C   UNK N   1      35.030  43.974  64.120  0.00  0.00     0.010 C 
HETATM   15  C   UNK N   1      36.258  42.991  66.025  0.00  0.00     0.012 C 
HETATM   16  C   UNK N   1      36.264  44.890  62.197  0.00  0.00     0.016 C 
HETATM   17  C   UNK N   1      37.459  44.964  67.036  0.00  0.00     0.018 C 
HETATM   18  C   UNK N   1      34.949  43.655  65.607  0.00  0.00     0.002 C 
ENDROOT
BRANCH   8  19
HETATM   19  C   UNK N   1      38.746  43.012  66.144  0.00  0.00     0.173 C 
BRANCH  19  20
HETATM   20  O   UNK N   1      39.119  42.289  64.997  0.00  0.00    -0.400 OA
HETATM   21  H   UNK N   1      40.106  42.181  65.022  0.00  0.00     0.209 HD
ENDBRANCH  19  20
ENDBRANCH   8  19
BRANCH   1  22
HETATM   22  O   UNK N   1      39.921  45.229  64.470  0.00  0.00    -0.395 OA
HETATM   23  H   UNK N   1      40.566  45.944  64.236  0.00  0.00     0.210 HD
ENDBRANCH   1  22
BRANCH   4  24
HETATM   24  C   UNK N   1      34.870  50.823  64.558  0.00  0.00     0.174 C 
BRANCH  24  25
HETATM   25  O   UNK N   1      35.268  51.166  65.856  0.00  0.00    -0.400 OA
HETATM   26  H   UNK N   1      35.716  50.367  66.237  0.00  0.00     0.209 HD
ENDBRANCH  24  25
ENDBRANCH   4  24
TORSDOF 5
ENDMDL
MODEL 3
REMARK VINA RESULT:      -6.1      1.470      2.159
REMARK  5 active torsions:
REMARK  status: ('A' for Active; 'I' for Inactive)
REMARK    1  A    between atoms: O_1  and  C_4 
REMARK    2  A    between atoms: O_2  and  C_13 
REMARK    3  A    between atoms: O_3  and  C_14 
REMARK    4  A    between atoms: C_7  and  C_13 
REMARK    5  A    between atoms: C_11  and  C_14 
ROOT
HETATM    1  C   UNK N   1      46.600  31.214  51.047  0.00  0.00     0.124 C 
HETATM    2  C   UNK N   1      46.861  31.890  49.645  0.00  0.00     0.033 C 
HETATM    3  C   UNK N   1      48.434  32.113  49.480  0.00  0.00    -0.033 C 
HETATM    4  C   UNK N   1      50.494  33.444  53.278  0.00  0.00    -0.010 A 
HETATM    5  C   UNK N   1      51.276  33.315  51.981  0.00  0.00     0.002 A 
HETATM    6  C   UNK N   1      50.951  32.068  52.874  0.00  0.00     0.002 A 
HETATM    7  C   UNK N   1      49.039  32.923  50.716  0.00  0.00     0.003 C 
HETATM    8  C   UNK N   1      45.911  33.125  49.211  0.00  0.00    -0.016 C 
HETATM    9  C   UNK N   1      48.656  32.381  52.139  0.00  0.00    -0.033 C 
HETATM   10  C   UNK N   1      47.149  32.039  52.235  0.00  0.00     0.042 C 
HETATM   11  C   UNK N   1      48.980  33.474  53.178  0.00  0.00     0.022 C 
HETATM   12  C   UNK N   1      50.581  33.140  50.623  0.00  0.00     0.012 C 
HETATM   13  C   UNK N   1      49.636  31.291  52.618  0.00  0.00     0.016 C 
HETATM   14  C   UNK N   1      48.737  32.852  48.141  0.00  0.00     0.010 C 
HETATM   15  C   UNK N   1      46.447  33.742  47.886  0.00  0.00     0.012 C 
HETATM   16  C   UNK N   1      49.106  30.706  49.291  0.00  0.00     0.016 C 
HETATM   17  C   UNK N   1      45.749  34.263  50.253  0.00  0.00     0.018 C 
HETATM   18  C   UNK N   1      47.923  34.124  47.949  0.00  0.00     0.002 C 
ENDROOT
BRANCH   8  19
HETATM   19  C   UNK N   1      44.468  32.603  48.885  0.00  0.00     0.173 C 
BRANCH  19  20
HETATM   20  O   UNK N   1      44.486  31.310  48.334  0.00  0.00    -0.400 OA
HETATM   21  H   UNK N   1      44.847  31.385  47.412  0.00  0.00     0.209 HD
ENDBRANCH  19  20
ENDBRANCH   8  19
BRANCH   1  22
HETATM   22  O   UNK N   1      45.248  30.870  51.227  0.00  0.00    -0.395 OA
HETATM   23  H   UNK N   1      45.163  30.301  52.034  0.00  0.00     0.210 HD
ENDBRANCH   1  22
BRANCH   4  24
HETATM   24  C   UNK N   1      51.225  34.193  54.398  0.00  0.00     0.174 C 
BRANCH  24  25
HETATM   25  O   UNK N   1      50.547  35.374  54.727  0.00  0.00    -0.400 OA
HETATM   26  H   UNK N   1      50.735  36.022  54.000  0.00  0.00     0.209 HD
ENDBRANCH  24  25
ENDBRANCH   4  24
TORSDOF 5
ENDMDL
MODEL 4
REMARK VINA RESULT:      -6.0     22.889     25.120
REMARK  5 active torsions:
REMARK  status: ('A' for Active; 'I' for Inactive)
REMARK    1  A    between atoms: O_1  and  C_4 
REMARK    2  A    between atoms: O_2  and  C_13 
REMARK    3  A    between atoms: O_3  and  C_14 
REMARK    4  A    between atoms: C_7  and  C_13 
REMARK    5  A    between atoms: C_11  and  C_14 
ROOT
HETATM    1  C   UNK N   1      50.355  55.273  39.950  0.00  0.00     0.124 C 
HETATM    2  C   UNK N   1      49.711  56.697  39.730  0.00  0.00     0.033 C 
HETATM    3  C   UNK N   1      50.164  57.645  40.933  0.00  0.00    -0.033 C 
HETATM    4  C   UNK N   1      50.248  55.575  44.951  0.00  0.00    -0.010 A 
HETATM    5  C   UNK N   1      50.560  57.058  44.841  0.00  0.00     0.002 A 
HETATM    6  C   UNK N   1      51.636  55.964  44.520  0.00  0.00     0.002 A 
HETATM    7  C   UNK N   1      49.825  56.988  42.349  0.00  0.00     0.003 C 
HETATM    8  C   UNK N   1      48.151  56.765  39.309  0.00  0.00    -0.016 C 
HETATM    9  C   UNK N   1      50.298  55.504  42.543  0.00  0.00    -0.033 C 
HETATM   10  C   UNK N   1      49.974  54.633  41.307  0.00  0.00     0.042 C 
HETATM   11  C   UNK N   1      49.564  54.917  43.767  0.00  0.00     0.022 C 
HETATM   12  C   UNK N   1      50.278  57.859  43.562  0.00  0.00     0.012 C 
HETATM   13  C   UNK N   1      51.746  55.432  43.070  0.00  0.00     0.016 C 
HETATM   14  C   UNK N   1      49.488  59.043  40.803  0.00  0.00     0.010 C 
HETATM   15  C   UNK N   1      47.686  58.251  39.311  0.00  0.00     0.012 C 
HETATM   16  C   UNK N   1      51.694  57.951  40.759  0.00  0.00     0.016 C 
HETATM   17  C   UNK N   1      47.169  55.942  40.184  0.00  0.00     0.018 C 
HETATM   18  C   UNK N   1      47.978  58.977  40.621  0.00  0.00     0.002 C 
ENDROOT
BRANCH   8  19
HETATM   19  C   UNK N   1      47.970  56.264  37.834  0.00  0.00     0.173 C 
BRANCH  19  20
HETATM   20  O   UNK N   1      47.451  54.959  37.779  0.00  0.00    -0.400 OA
HETATM   21  H   UNK N   1      46.603  54.998  37.264  0.00  0.00     0.209 HD
ENDBRANCH  19  20
ENDBRANCH   8  19
BRANCH   1  22
HETATM   22  O   UNK N   1      50.107  54.405  38.871  0.00  0.00    -0.395 OA
HETATM   23  H   UNK N   1      50.310  54.876  38.023  0.00  0.00     0.210 HD
ENDBRANCH   1  22
BRANCH   4  24
HETATM   24  C   UNK N   1      50.004  55.073  46.379  0.00  0.00     0.174 C 
BRANCH  24  25
HETATM   25  O   UNK N   1      50.959  54.112  46.736  0.00  0.00    -0.400 OA
HETATM   26  H   UNK N   1      51.847  54.500  46.523  0.00  0.00     0.209 HD
ENDBRANCH  24  25
ENDBRANCH   4  24
TORSDOF 5
ENDMDL
MODEL 5
REMARK VINA RESULT:      -5.5     22.880     25.541
REMARK  5 active torsions:
REMARK  status: ('A' for Active; 'I' for Inactive)
REMARK    1  A    between atoms: O_1  and  C_4 
REMARK    2  A    between atoms: O_2  and  C_13 
REMARK    3  A    between atoms: O_3  and  C_14 
REMARK    4  A    between atoms: C_7  and  C_13 
REMARK    5  A    between atoms: C_11  and  C_14 
ROOT
HETATM    1  C   UNK N   1      52.101  55.837  44.116  0.00  0.00     0.124 C 
HETATM    2  C   UNK N   1      50.868  56.363  44.948  0.00  0.00     0.033 C 
HETATM    3  C   UNK N   1      49.532  55.998  44.151  0.00  0.00    -0.033 C 
HETATM    4  C   UNK N   1      49.883  56.513  39.674  0.00  0.00    -0.010 A 
HETATM    5  C   UNK N   1      48.562  56.101  40.301  0.00  0.00     0.002 A 
HETATM    6  C   UNK N   1      49.707  55.063  40.034  0.00  0.00     0.002 A 
HETATM    7  C   UNK N   1      49.585  56.541  42.651  0.00  0.00     0.003 C 
HETATM    8  C   UNK N   1      50.952  57.857  45.565  0.00  0.00    -0.016 C 
HETATM    9  C   UNK N   1      50.883  56.185  41.842  0.00  0.00    -0.033 C 
HETATM   10  C   UNK N   1      52.162  56.414  42.682  0.00  0.00     0.042 C 
HETATM   11  C   UNK N   1      50.942  57.092  40.595  0.00  0.00     0.022 C 
HETATM   12  C   UNK N   1      48.318  56.182  41.815  0.00  0.00     0.012 C 
HETATM   13  C   UNK N   1      50.761  54.816  41.142  0.00  0.00     0.016 C 
HETATM   14  C   UNK N   1      48.287  56.568  44.896  0.00  0.00     0.010 C 
HETATM   15  C   UNK N   1      49.577  58.228  46.193  0.00  0.00     0.012 C 
HETATM   16  C   UNK N   1      49.333  54.443  44.226  0.00  0.00     0.016 C 
HETATM   17  C   UNK N   1      51.362  58.982  44.579  0.00  0.00     0.018 C 
HETATM   18  C   UNK N   1      48.403  58.048  45.235  0.00  0.00     0.002 C 
ENDROOT
BRANCH   8  19
HETATM   19  C   UNK N   1      51.983  57.893  46.745  0.00  0.00     0.173 C 
BRANCH  19  20
HETATM   20  O   UNK N   1      51.957  56.711  47.507  0.00  0.00    -0.400 OA
HETATM   21  H   UNK N   1      52.897  56.472  47.717  0.00  0.00     0.209 HD
ENDBRANCH  19  20
ENDBRANCH   8  19
BRANCH   1  22
HETATM   22  O   UNK N   1      53.317  56.009  44.803  0.00  0.00    -0.395 OA
HETATM   23  H   UNK N   1      53.980  56.420  44.191  0.00  0.00     0.210 HD
ENDBRANCH   1  22
BRANCH   4  24
HETATM   24  C   UNK N   1      49.791  56.953  38.209  0.00  0.00     0.174 C 
BRANCH  24  25
HETATM   25  O   UNK N   1      48.771  56.257  37.546  0.00  0.00    -0.400 OA
HETATM   26  H   UNK N   1      49.214  55.559  36.997  0.00  0.00     0.209 HD
ENDBRANCH  24  25
ENDBRANCH   4  24
TORSDOF 5
ENDMDL
MODEL 6
REMARK VINA RESULT:      -5.5      2.494      4.550
REMARK  5 active torsions:
REMARK  status: ('A' for Active; 'I' for Inactive)
REMARK    1  A    between atoms: O_1  and  C_4 
REMARK    2  A    between atoms: O_2  and  C_13 
REMARK    3  A    between atoms: O_3  and  C_14 
REMARK    4  A    between atoms: C_7  and  C_13 
REMARK    5  A    between atoms: C_11  and  C_14 
ROOT
HETATM    1  C   UNK N   1      47.720  34.375  48.884  0.00  0.00     0.124 C 
HETATM    2  C   UNK N   1      46.859  33.376  49.750  0.00  0.00     0.033 C 
HETATM    3  C   UNK N   1      47.855  32.468  50.608  0.00  0.00    -0.033 C 
HETATM    4  C   UNK N   1      51.565  31.205  48.356  0.00  0.00    -0.010 A 
HETATM    5  C   UNK N   1      51.317  30.711  49.771  0.00  0.00     0.002 A 
HETATM    6  C   UNK N   1      51.916  32.132  49.489  0.00  0.00     0.002 A 
HETATM    7  C   UNK N   1      48.938  31.755  49.676  0.00  0.00     0.003 C 
HETATM    8  C   UNK N   1      45.631  32.612  49.027  0.00  0.00    -0.016 C 
HETATM    9  C   UNK N   1      49.696  32.693  48.671  0.00  0.00    -0.033 C 
HETATM   10  C   UNK N   1      48.729  33.662  47.951  0.00  0.00     0.042 C 
HETATM   11  C   UNK N   1      50.389  31.810  47.612  0.00  0.00     0.022 C 
HETATM   12  C   UNK N   1      49.959  30.881  50.468  0.00  0.00     0.012 C 
HETATM   13  C   UNK N   1      50.946  33.327  49.315  0.00  0.00     0.016 C 
HETATM   14  C   UNK N   1      47.052  31.410  51.424  0.00  0.00     0.010 C 
HETATM   15  C   UNK N   1      45.033  31.562  50.009  0.00  0.00     0.012 C 
HETATM   16  C   UNK N   1      48.508  33.374  51.712  0.00  0.00     0.016 C 
HETATM   17  C   UNK N   1      45.961  31.900  47.689  0.00  0.00     0.018 C 
HETATM   18  C   UNK N   1      46.073  30.603  50.580  0.00  0.00     0.002 C 
ENDROOT
BRANCH   8  19
HETATM   19  C   UNK N   1      44.471  33.623  48.726  0.00  0.00     0.173 C 
BRANCH  19  20
HETATM   20  O   UNK N   1      43.232  32.976  48.570  0.00  0.00    -0.400 OA
HETATM   21  H   UNK N   1      43.280  32.442  47.734  0.00  0.00     0.209 HD
ENDBRANCH  19  20
ENDBRANCH   8  19
BRANCH   1  22
HETATM   22  O   UNK N   1      46.920  35.298  48.185  0.00  0.00    -0.395 OA
HETATM   23  H   UNK N   1      47.449  35.687  47.442  0.00  0.00     0.210 HD
ENDBRANCH   1  22
BRANCH   4  24
HETATM   24  C   UNK N   1      52.677  30.467  47.602  0.00  0.00     0.174 C 
BRANCH  24  25
HETATM   25  O   UNK N   1      52.191  29.933  46.402  0.00  0.00    -0.400 OA
HETATM   26  H   UNK N   1      52.254  30.654  45.724  0.00  0.00     0.209 HD
ENDBRANCH  24  25
ENDBRANCH   4  24
TORSDOF 5
ENDMDL
MODEL 7
REMARK VINA RESULT:      -5.2     23.266     25.675
REMARK  5 active torsions:
REMARK  status: ('A' for Active; 'I' for Inactive)
REMARK    1  A    between atoms: O_1  and  C_4 
REMARK    2  A    between atoms: O_2  and  C_13 
REMARK    3  A    between atoms: O_3  and  C_14 
REMARK    4  A    between atoms: C_7  and  C_13 
REMARK    5  A    between atoms: C_11  and  C_14 
ROOT
HETATM    1  C   UNK N   1      50.386  55.588  44.909  0.00  0.00     0.124 C 
HETATM    2  C   UNK N   1      51.077  57.003  45.005  0.00  0.00     0.033 C 
HETATM    3  C   UNK N   1      50.472  57.937  43.859  0.00  0.00    -0.033 C 
HETATM    4  C   UNK N   1      49.781  55.796  39.938  0.00  0.00    -0.010 A 
HETATM    5  C   UNK N   1      49.511  57.286  40.061  0.00  0.00     0.002 A 
HETATM    6  C   UNK N   1      48.476  56.218  40.555  0.00  0.00     0.002 A 
HETATM    7  C   UNK N   1      50.595  57.248  42.424  0.00  0.00     0.003 C 
HETATM    8  C   UNK N   1      52.683  57.050  45.197  0.00  0.00    -0.016 C 
HETATM    9  C   UNK N   1      50.075  55.770  42.330  0.00  0.00    -0.033 C 
HETATM   10  C   UNK N   1      50.559  54.916  43.526  0.00  0.00     0.042 C 
HETATM   11  C   UNK N   1      50.617  55.147  41.027  0.00  0.00     0.022 C 
HETATM   12  C   UNK N   1      49.987  58.104  41.270  0.00  0.00     0.012 C 
HETATM   13  C   UNK N   1      48.566  55.715  42.017  0.00  0.00     0.016 C 
HETATM   14  C   UNK N   1      51.182  59.325  43.863  0.00  0.00     0.010 C 
HETATM   15  C   UNK N   1      53.167  58.526  45.098  0.00  0.00     0.012 C 
HETATM   16  C   UNK N   1      48.988  58.275  44.244  0.00  0.00     0.016 C 
HETATM   17  C   UNK N   1      53.516  56.192  44.209  0.00  0.00     0.018 C 
HETATM   18  C   UNK N   1      52.702  59.233  43.828  0.00  0.00     0.002 C 
ENDROOT
BRANCH   8  19
HETATM   19  C   UNK N   1      53.065  56.573  46.641  0.00  0.00     0.173 C 
BRANCH  19  20
HETATM   20  O   UNK N   1      52.056  56.860  47.577  0.00  0.00    -0.400 OA
HETATM   21  H   UNK N   1      52.226  57.774  47.926  0.00  0.00     0.209 HD
ENDBRANCH  19  20
ENDBRANCH   8  19
BRANCH   1  22
HETATM   22  O   UNK N   1      50.772  54.735  45.959  0.00  0.00    -0.395 OA
HETATM   23  H   UNK N   1      51.762  54.729  46.025  0.00  0.00     0.210 HD
ENDBRANCH   1  22
BRANCH   4  24
HETATM   24  C   UNK N   1      49.810  55.263  38.502  0.00  0.00     0.174 C 
BRANCH  24  25
HETATM   25  O   UNK N   1      48.538  54.828  38.109  0.00  0.00    -0.400 OA
HETATM   26  H   UNK N   1      48.517  53.846  38.247  0.00  0.00     0.209 HD
ENDBRANCH  24  25
ENDBRANCH   4  24
TORSDOF 5
ENDMDL
MODEL 8
REMARK VINA RESULT:      -5.2     23.292     25.866
REMARK  5 active torsions:
REMARK  status: ('A' for Active; 'I' for Inactive)
REMARK    1  A    between atoms: O_1  and  C_4 
REMARK    2  A    between atoms: O_2  and  C_13 
REMARK    3  A    between atoms: O_3  and  C_14 
REMARK    4  A    between atoms: C_7  and  C_13 
REMARK    5  A    between atoms: C_11  and  C_14 
ROOT
HETATM    1  C   UNK N   1      52.186  57.484  43.575  0.00  0.00     0.124 C 
HETATM    2  C   UNK N   1      51.457  56.281  44.290  0.00  0.00     0.033 C 
HETATM    3  C   UNK N   1      50.476  55.591  43.236  0.00  0.00    -0.033 C 
HETATM    4  C   UNK N   1      48.326  58.528  40.554  0.00  0.00    -0.010 A 
HETATM    5  C   UNK N   1      48.035  57.040  40.458  0.00  0.00     0.002 A 
HETATM    6  C   UNK N   1      49.285  57.681  39.762  0.00  0.00     0.002 A 
HETATM    7  C   UNK N   1      49.483  56.657  42.583  0.00  0.00     0.003 C 
HETATM    8  C   UNK N   1      50.861  56.530  45.773  0.00  0.00    -0.016 C 
HETATM    9  C   UNK N   1      50.157  57.957  42.014  0.00  0.00    -0.033 C 
HETATM   10  C   UNK N   1      51.208  58.532  42.993  0.00  0.00     0.042 C 
HETATM   11  C   UNK N   1      49.057  59.016  41.792  0.00  0.00     0.022 C 
HETATM   12  C   UNK N   1      48.523  56.042  41.519  0.00  0.00     0.012 C 
HETATM   13  C   UNK N   1      50.614  57.770  40.553  0.00  0.00     0.016 C 
HETATM   14  C   UNK N   1      49.672  54.442  43.918  0.00  0.00     0.010 C 
HETATM   15  C   UNK N   1      50.046  55.278  46.212  0.00  0.00     0.012 C 
HETATM   16  C   UNK N   1      51.355  54.848  42.168  0.00  0.00     0.016 C 
HETATM   17  C   UNK N   1      49.966  57.784  45.949  0.00  0.00     0.018 C 
HETATM   18  C   UNK N   1      48.977  54.865  45.205  0.00  0.00     0.002 C 
ENDROOT
BRANCH   8  19
HETATM   19  C   UNK N   1      52.031  56.661  46.808  0.00  0.00     0.173 C 
BRANCH  19  20
HETATM   20  O   UNK N   1      53.110  55.815  46.496  0.00  0.00    -0.400 OA
HETATM   21  H   UNK N   1      52.772  54.882  46.519  0.00  0.00     0.209 HD
ENDBRANCH  19  20
ENDBRANCH   8  19
BRANCH   1  22
HETATM   22  O   UNK N   1      53.163  58.077  44.397  0.00  0.00    -0.395 OA
HETATM   23  H   UNK N   1      53.139  59.060  44.271  0.00  0.00     0.210 HD
ENDBRANCH   1  22
BRANCH   4  24
HETATM   24  C   UNK N   1      47.322  59.429  39.827  0.00  0.00     0.174 C 
BRANCH  24  25
HETATM   25  O   UNK N   1      46.010  59.105  40.193  0.00  0.00    -0.400 OA
HETATM   26  H   UNK N   1      45.742  58.328  39.636  0.00  0.00     0.209 HD
ENDBRANCH  24  25
ENDBRANCH   4  24
TORSDOF 5
ENDMDL
MODEL 9
REMARK VINA RESULT:      -5.1     19.246     21.701
REMARK  5 active torsions:
REMARK  status: ('A' for Active; 'I' for Inactive)
REMARK    1  A    between atoms: O_1  and  C_4 
REMARK    2  A    between atoms: O_2  and  C_13 
REMARK    3  A    between atoms: O_3  and  C_14 
REMARK    4  A    between atoms: C_7  and  C_13 
REMARK    5  A    between atoms: C_11  and  C_14 
ROOT
HETATM    1  C   UNK N   1      29.640  43.406  59.880  0.00  0.00     0.124 C 
HETATM    2  C   UNK N   1      31.211  43.545  59.835  0.00  0.00     0.033 C 
HETATM    3  C   UNK N   1      31.662  43.649  58.306  0.00  0.00    -0.033 C 
HETATM    4  C   UNK N   1      29.350  40.927  55.535  0.00  0.00    -0.010 A 
HETATM    5  C   UNK N   1      30.490  41.780  55.004  0.00  0.00     0.002 A 
HETATM    6  C   UNK N   1      29.057  42.372  55.234  0.00  0.00     0.002 A 
HETATM    7  C   UNK N   1      31.091  42.429  57.448  0.00  0.00     0.003 C 
HETATM    8  C   UNK N   1      32.085  42.563  60.777  0.00  0.00    -0.016 C 
HETATM    9  C   UNK N   1      29.554  42.147  57.602  0.00  0.00    -0.033 C 
HETATM   10  C   UNK N   1      29.110  42.189  59.084  0.00  0.00     0.042 C 
HETATM   11  C   UNK N   1      29.260  40.742  57.038  0.00  0.00     0.022 C 
HETATM   12  C   UNK N   1      31.474  42.499  55.938  0.00  0.00     0.012 C 
HETATM   13  C   UNK N   1      28.719  42.986  56.615  0.00  0.00     0.016 C 
HETATM   14  C   UNK N   1      33.216  43.709  58.205  0.00  0.00     0.010 C 
HETATM   15  C   UNK N   1      33.596  42.753  60.451  0.00  0.00     0.012 C 
HETATM   16  C   UNK N   1      31.198  45.045  57.758  0.00  0.00     0.016 C 
HETATM   17  C   UNK N   1      31.750  41.051  60.689  0.00  0.00     0.018 C 
HETATM   18  C   UNK N   1      33.921  42.596  58.969  0.00  0.00     0.002 C 
ENDROOT
BRANCH   8  19
HETATM   19  C   UNK N   1      31.919  42.975  62.281  0.00  0.00     0.173 C 
BRANCH  19  20
HETATM   20  O   UNK N   1      31.047  42.115  62.972  0.00  0.00    -0.400 OA
HETATM   21  H   UNK N   1      31.605  41.471  63.480  0.00  0.00     0.209 HD
ENDBRANCH  19  20
ENDBRANCH   8  19
BRANCH   1  22
HETATM   22  O   UNK N   1      29.142  43.429  61.196  0.00  0.00    -0.395 OA
HETATM   23  H   UNK N   1      28.884  44.357  61.429  0.00  0.00     0.210 HD
ENDBRANCH   1  22
BRANCH   4  24
HETATM   24  C   UNK N   1      28.864  39.834  54.577  0.00  0.00     0.174 C 
BRANCH  24  25
HETATM   25  O   UNK N   1      29.506  38.618  54.845  0.00  0.00    -0.400 OA
HETATM   26  H   UNK N   1      29.575  38.136  53.981  0.00  0.00     0.209 HD
ENDBRANCH  24  25
ENDBRANCH   4  24
TORSDOF 5
ENDMDL
