MODEL 1
REMARK VINA RESULT:      -8.0      0.000      0.000
REMARK  5 active torsions:
REMARK  status: ('A' for Active; 'I' for Inactive)
REMARK    1  A    between atoms: O_3  and  C_8 
REMARK    2  A    between atoms: O_4  and  C_9 
REMARK    3  A    between atoms: C_11  and  C_12 
REMARK    4  A    between atoms: C_13  and  C_21 
REMARK    5  A    between atoms: C_21  and  C_23 
ROOT
HETATM    1  O   UNK N   1      38.922  45.553  48.025  0.00  0.00    -0.321 OA
HETATM    2  O   UNK N   1      41.960  48.026  47.321  0.00  0.00    -0.286 OA
HETATM    3  C   UNK N   1      39.995  45.481  48.805  0.00  0.00     0.091 A 
HETATM    4  C   UNK N   1      38.820  46.429  47.031  0.00  0.00     0.159 A 
HETATM    5  C   UNK N   1      41.033  47.261  47.529  0.00  0.00     0.197 A 
HETATM    6  C   UNK N   1      41.135  44.477  50.697  0.00  0.00     0.068 A 
HETATM    7  C   UNK N   1      41.091  46.347  48.597  0.00  0.00     0.049 A 
HETATM    8  C   UNK N   1      39.873  47.309  46.730  0.00  0.00     0.048 A 
HETATM    9  C   UNK N   1      40.029  44.545  49.844  0.00  0.00     0.074 A 
HETATM   10  C   UNK N   1      42.216  45.353  50.509  0.00  0.00     0.037 A 
HETATM   11  C   UNK N   1      42.200  46.279  49.462  0.00  0.00     0.021 A 
ENDROOT
BRANCH   8  12
HETATM   12  C   UNK N   1      39.731  48.258  45.591  0.00  0.00    -0.019 A 
HETATM   13  C   UNK N   1      38.657  48.153  44.693  0.00  0.00     0.022 A 
HETATM   14  C   UNK N   1      38.499  49.085  43.650  0.00  0.00    -0.021 A 
HETATM   15  C   UNK N   1      39.460  50.104  43.470  0.00  0.00     0.074 A 
HETATM   16  C   UNK N   1      40.546  50.190  44.365  0.00  0.00     0.038 A 
HETATM   17  C   UNK N   1      40.664  49.292  45.424  0.00  0.00     0.015 A 
BRANCH  14  18
HETATM   18  C   UNK N   1      37.283  48.998  42.762  0.00  0.00     0.068 C 
BRANCH  18  19
HETATM   19  C   UNK N   1      36.326  50.122  43.113  0.00  0.00    -0.020 C 
HETATM   20  C   UNK N   1      34.987  50.002  43.331  0.00  0.00    -0.091 C 
HETATM   21  C   UNK N   1      34.183  51.231  43.682  0.00  0.00     0.042 C 
HETATM   22  C   UNK N   1      34.217  48.701  43.255  0.00  0.00     0.042 C 
ENDBRANCH  18  19
ENDBRANCH  14  18
BRANCH  15  23
HETATM   23  O   UNK N   1      39.320  50.972  42.430  0.00  0.00    -0.355 OA
HETATM   24  C   UNK N   1      39.796  52.269  42.411  0.00  0.00     0.210 C 
ENDBRANCH  15  23
ENDBRANCH   8  12
BRANCH   6  25
HETATM   25  O   UNK N   1      41.148  43.574  51.697  0.00  0.00    -0.361 OA
HETATM   26  H   UNK N   1      41.636  42.742  51.626  0.00  0.00     0.217 HD
ENDBRANCH   6  25
TORSDOF 5
ENDMDL
MODEL 2
REMARK VINA RESULT:      -7.4     15.689     19.494
REMARK  5 active torsions:
REMARK  status: ('A' for Active; 'I' for Inactive)
REMARK    1  A    between atoms: O_3  and  C_8 
REMARK    2  A    between atoms: O_4  and  C_9 
REMARK    3  A    between atoms: C_11  and  C_12 
REMARK    4  A    between atoms: C_13  and  C_21 
REMARK    5  A    between atoms: C_21  and  C_23 
ROOT
HETATM    1  O   UNK N   1      45.167  34.205  49.688  0.00  0.00    -0.321 OA
HETATM    2  O   UNK N   1      48.573  32.148  49.779  0.00  0.00    -0.286 OA
HETATM    3  C   UNK N   1      45.643  33.712  48.550  0.00  0.00     0.091 A 
HETATM    4  C   UNK N   1      45.776  34.023  50.854  0.00  0.00     0.159 A 
HETATM    5  C   UNK N   1      47.535  32.788  49.751  0.00  0.00     0.197 A 
HETATM    6  C   UNK N   1      45.409  33.388  46.157  0.00  0.00     0.068 A 
HETATM    7  C   UNK N   1      46.843  32.967  48.539  0.00  0.00     0.049 A 
HETATM    8  C   UNK N   1      46.991  33.322  50.937  0.00  0.00     0.048 A 
HETATM    9  C   UNK N   1      44.941  33.928  47.360  0.00  0.00     0.074 A 
HETATM   10  C   UNK N   1      46.587  32.626  46.145  0.00  0.00     0.037 A 
HETATM   11  C   UNK N   1      47.306  32.420  47.327  0.00  0.00     0.021 A 
ENDROOT
BRANCH   8  12
HETATM   12  C   UNK N   1      47.657  33.162  52.259  0.00  0.00    -0.019 A 
HETATM   13  C   UNK N   1      48.717  34.000  52.639  0.00  0.00     0.022 A 
HETATM   14  C   UNK N   1      49.307  33.879  53.911  0.00  0.00    -0.021 A 
HETATM   15  C   UNK N   1      48.868  32.868  54.794  0.00  0.00     0.074 A 
HETATM   16  C   UNK N   1      47.816  32.018  54.396  0.00  0.00     0.038 A 
HETATM   17  C   UNK N   1      47.205  32.181  53.154  0.00  0.00     0.015 A 
BRANCH  14  18
HETATM   18  C   UNK N   1      50.380  34.856  54.322  0.00  0.00     0.068 C 
BRANCH  18  19
HETATM   19  C   UNK N   1      51.696  34.454  53.681  0.00  0.00    -0.020 C 
HETATM   20  C   UNK N   1      52.851  35.174  53.692  0.00  0.00    -0.091 C 
HETATM   21  C   UNK N   1      54.076  34.615  53.009  0.00  0.00     0.042 C 
HETATM   22  C   UNK N   1      53.016  36.524  54.357  0.00  0.00     0.042 C 
ENDBRANCH  18  19
ENDBRANCH  14  18
BRANCH  15  23
HETATM   23  O   UNK N   1      49.477  32.732  56.004  0.00  0.00    -0.355 OA
HETATM   24  C   UNK N   1      50.328  31.702  56.353  0.00  0.00     0.210 C 
ENDBRANCH  15  23
ENDBRANCH   8  12
BRANCH   6  25
HETATM   25  O   UNK N   1      44.716  33.601  45.020  0.00  0.00    -0.361 OA
HETATM   26  H   UNK N   1      44.737  32.971  44.286  0.00  0.00     0.217 HD
ENDBRANCH   6  25
TORSDOF 5
ENDMDL
MODEL 3
REMARK VINA RESULT:      -7.1      2.603      8.226
REMARK  5 active torsions:
REMARK  status: ('A' for Active; 'I' for Inactive)
REMARK    1  A    between atoms: O_3  and  C_8 
REMARK    2  A    between atoms: O_4  and  C_9 
REMARK    3  A    between atoms: C_11  and  C_12 
REMARK    4  A    between atoms: C_13  and  C_21 
REMARK    5  A    between atoms: C_21  and  C_23 
ROOT
HETATM    1  O   UNK N   1      38.047  47.736  44.285  0.00  0.00    -0.321 OA
HETATM    2  O   UNK N   1      41.137  48.287  46.732  0.00  0.00    -0.286 OA
HETATM    3  C   UNK N   1      38.817  48.806  44.107  0.00  0.00     0.091 A 
HETATM    4  C   UNK N   1      38.280  46.840  45.236  0.00  0.00     0.159 A 
HETATM    5  C   UNK N   1      40.183  48.123  45.989  0.00  0.00     0.197 A 
HETATM    6  C   UNK N   1      39.340  50.814  42.851  0.00  0.00     0.068 A 
HETATM    7  C   UNK N   1      39.929  49.033  44.946  0.00  0.00     0.049 A 
HETATM    8  C   UNK N   1      39.346  46.999  46.137  0.00  0.00     0.048 A 
HETATM    9  C   UNK N   1      38.522  49.701  43.074  0.00  0.00     0.074 A 
HETATM   10  C   UNK N   1      40.461  51.031  43.667  0.00  0.00     0.037 A 
HETATM   11  C   UNK N   1      40.754  50.151  44.713  0.00  0.00     0.021 A 
ENDROOT
BRANCH   8  12
HETATM   12  C   UNK N   1      39.559  45.985  47.207  0.00  0.00    -0.019 A 
HETATM   13  C   UNK N   1      40.548  44.997  47.079  0.00  0.00     0.022 A 
HETATM   14  C   UNK N   1      40.780  44.075  48.116  0.00  0.00    -0.021 A 
HETATM   15  C   UNK N   1      39.974  44.107  49.275  0.00  0.00     0.074 A 
HETATM   16  C   UNK N   1      38.970  45.091  49.387  0.00  0.00     0.038 A 
HETATM   17  C   UNK N   1      38.784  46.031  48.375  0.00  0.00     0.015 A 
BRANCH  14  18
HETATM   18  C   UNK N   1      41.912  43.087  47.984  0.00  0.00     0.068 C 
BRANCH  18  19
HETATM   19  C   UNK N   1      42.546  43.233  46.612  0.00  0.00    -0.020 C 
HETATM   20  C   UNK N   1      43.056  42.227  45.850  0.00  0.00    -0.091 C 
HETATM   21  C   UNK N   1      43.643  42.552  44.497  0.00  0.00     0.042 C 
HETATM   22  C   UNK N   1      43.079  40.769  46.253  0.00  0.00     0.042 C 
ENDBRANCH  18  19
ENDBRANCH  14  18
BRANCH  15  23
HETATM   23  O   UNK N   1      40.179  43.181  50.253  0.00  0.00    -0.355 OA
HETATM   24  C   UNK N   1      40.385  43.469  51.588  0.00  0.00     0.210 C 
ENDBRANCH  15  23
ENDBRANCH   8  12
BRANCH   6  25
HETATM   25  O   UNK N   1      39.045  51.663  41.847  0.00  0.00    -0.361 OA
HETATM   26  H   UNK N   1      38.668  52.538  42.014  0.00  0.00     0.217 HD
ENDBRANCH   6  25
TORSDOF 5
ENDMDL
MODEL 4
REMARK VINA RESULT:      -7.1      9.409     15.354
REMARK  5 active torsions:
REMARK  status: ('A' for Active; 'I' for Inactive)
REMARK    1  A    between atoms: O_3  and  C_8 
REMARK    2  A    between atoms: O_4  and  C_9 
REMARK    3  A    between atoms: C_11  and  C_12 
REMARK    4  A    between atoms: C_13  and  C_21 
REMARK    5  A    between atoms: C_21  and  C_23 
ROOT
HETATM    1  O   UNK N   1      28.366  58.411  41.460  0.00  0.00    -0.321 OA
HETATM    2  O   UNK N   1      26.838  54.985  42.790  0.00  0.00    -0.286 OA
HETATM    3  C   UNK N   1      27.055  58.336  41.666  0.00  0.00     0.091 A 
HETATM    4  C   UNK N   1      29.184  57.393  41.697  0.00  0.00     0.159 A 
HETATM    5  C   UNK N   1      27.306  56.031  42.372  0.00  0.00     0.197 A 
HETATM    6  C   UNK N   1      24.877  59.404  41.653  0.00  0.00     0.068 A 
HETATM    7  C   UNK N   1      26.473  57.143  42.147  0.00  0.00     0.049 A 
HETATM    8  C   UNK N   1      28.692  56.156  42.148  0.00  0.00     0.048 A 
HETATM    9  C   UNK N   1      26.254  59.454  41.410  0.00  0.00     0.074 A 
HETATM   10  C   UNK N   1      24.298  58.229  42.155  0.00  0.00     0.037 A 
HETATM   11  C   UNK N   1      25.088  57.101  42.396  0.00  0.00     0.021 A 
ENDROOT
BRANCH   8  12
HETATM   12  C   UNK N   1      29.639  55.030  42.377  0.00  0.00    -0.019 A 
HETATM   13  C   UNK N   1      30.293  54.875  43.609  0.00  0.00     0.022 A 
HETATM   14  C   UNK N   1      31.145  53.779  43.837  0.00  0.00    -0.021 A 
HETATM   15  C   UNK N   1      31.390  52.854  42.799  0.00  0.00     0.074 A 
HETATM   16  C   UNK N   1      30.744  53.028  41.558  0.00  0.00     0.038 A 
HETATM   17  C   UNK N   1      29.862  54.089  41.361  0.00  0.00     0.015 A 
BRANCH  14  18
HETATM   18  C   UNK N   1      31.758  53.594  45.203  0.00  0.00     0.068 C 
BRANCH  18  19
HETATM   19  C   UNK N   1      32.434  54.885  45.628  0.00  0.00    -0.020 C 
HETATM   20  C   UNK N   1      33.570  55.413  45.094  0.00  0.00    -0.091 C 
HETATM   21  C   UNK N   1      34.101  56.719  45.634  0.00  0.00     0.042 C 
HETATM   22  C   UNK N   1      34.363  54.785  43.968  0.00  0.00     0.042 C 
ENDBRANCH  18  19
ENDBRANCH  14  18
BRANCH  15  23
HETATM   23  O   UNK N   1      32.252  51.822  43.017  0.00  0.00    -0.355 OA
HETATM   24  C   UNK N   1      32.135  50.561  42.467  0.00  0.00     0.210 C 
ENDBRANCH  15  23
ENDBRANCH   8  12
BRANCH   6  25
HETATM   25  O   UNK N   1      24.120  60.493  41.407  0.00  0.00    -0.361 OA
HETATM   26  H   UNK N   1      24.085  61.238  42.024  0.00  0.00     0.217 HD
ENDBRANCH   6  25
TORSDOF 5
ENDMDL
MODEL 5
REMARK VINA RESULT:      -7.0      1.908      8.404
REMARK  5 active torsions:
REMARK  status: ('A' for Active; 'I' for Inactive)
REMARK    1  A    between atoms: O_3  and  C_8 
REMARK    2  A    between atoms: O_4  and  C_9 
REMARK    3  A    between atoms: C_11  and  C_12 
REMARK    4  A    between atoms: C_13  and  C_21 
REMARK    5  A    between atoms: C_21  and  C_23 
ROOT
HETATM    1  O   UNK N   1      38.381  47.238  45.116  0.00  0.00    -0.321 OA
HETATM    2  O   UNK N   1      41.630  49.197  46.318  0.00  0.00    -0.286 OA
HETATM    3  C   UNK N   1      38.773  48.303  44.425  0.00  0.00     0.091 A 
HETATM    4  C   UNK N   1      39.040  46.795  46.180  0.00  0.00     0.159 A 
HETATM    5  C   UNK N   1      40.628  48.603  45.957  0.00  0.00     0.197 A 
HETATM    6  C   UNK N   1      38.457  49.803  42.545  0.00  0.00     0.068 A 
HETATM    7  C   UNK N   1      39.926  49.021  44.811  0.00  0.00     0.049 A 
HETATM    8  C   UNK N   1      40.181  47.463  46.656  0.00  0.00     0.048 A 
HETATM    9  C   UNK N   1      38.040  48.705  43.304  0.00  0.00     0.074 A 
HETATM   10  C   UNK N   1      39.617  50.504  42.910  0.00  0.00     0.037 A 
HETATM   11  C   UNK N   1      40.346  50.122  44.039  0.00  0.00     0.021 A 
ENDROOT
BRANCH   8  12
HETATM   12  C   UNK N   1      40.877  46.951  47.869  0.00  0.00    -0.019 A 
HETATM   13  C   UNK N   1      40.607  45.667  48.369  0.00  0.00     0.022 A 
HETATM   14  C   UNK N   1      41.307  45.169  49.483  0.00  0.00    -0.021 A 
HETATM   15  C   UNK N   1      42.251  45.987  50.141  0.00  0.00     0.074 A 
HETATM   16  C   UNK N   1      42.503  47.282  49.643  0.00  0.00     0.038 A 
HETATM   17  C   UNK N   1      41.840  47.746  48.508  0.00  0.00     0.015 A 
BRANCH  14  18
HETATM   18  C   UNK N   1      41.058  43.752  49.936  0.00  0.00     0.068 C 
BRANCH  18  19
HETATM   19  C   UNK N   1      40.210  43.770  51.195  0.00  0.00    -0.020 C 
HETATM   20  C   UNK N   1      40.557  43.255  52.407  0.00  0.00    -0.091 C 
HETATM   21  C   UNK N   1      39.590  43.371  53.562  0.00  0.00     0.042 C 
HETATM   22  C   UNK N   1      41.869  42.562  52.703  0.00  0.00     0.042 C 
ENDBRANCH  18  19
ENDBRANCH  14  18
BRANCH  15  23
HETATM   23  O   UNK N   1      42.890  45.510  51.245  0.00  0.00    -0.355 OA
HETATM   24  C   UNK N   1      42.649  45.921  52.541  0.00  0.00     0.210 C 
ENDBRANCH  15  23
ENDBRANCH   8  12
BRANCH   6  25
HETATM   25  O   UNK N   1      37.742  50.172  41.463  0.00  0.00    -0.361 OA
HETATM   26  H   UNK N   1      36.846  50.528  41.542  0.00  0.00     0.217 HD
ENDBRANCH   6  25
TORSDOF 5
ENDMDL
MODEL 6
REMARK VINA RESULT:      -6.8      7.691     14.251
REMARK  5 active torsions:
REMARK  status: ('A' for Active; 'I' for Inactive)
REMARK    1  A    between atoms: O_3  and  C_8 
REMARK    2  A    between atoms: O_4  and  C_9 
REMARK    3  A    between atoms: C_11  and  C_12 
REMARK    4  A    between atoms: C_13  and  C_21 
REMARK    5  A    between atoms: C_21  and  C_23 
ROOT
HETATM    1  O   UNK N   1      27.916  55.955  41.897  0.00  0.00    -0.321 OA
HETATM    2  O   UNK N   1      31.685  56.117  40.630  0.00  0.00    -0.286 OA
HETATM    3  C   UNK N   1      28.182  56.616  40.775  0.00  0.00     0.091 A 
HETATM    4  C   UNK N   1      28.856  55.334  42.600  0.00  0.00     0.159 A 
HETATM    5  C   UNK N   1      30.532  56.076  41.025  0.00  0.00     0.197 A 
HETATM    6  C   UNK N   1      27.395  57.905  38.877  0.00  0.00     0.068 A 
HETATM    7  C   UNK N   1      29.504  56.690  40.285  0.00  0.00     0.049 A 
HETATM    8  C   UNK N   1      30.204  55.379  42.206  0.00  0.00     0.048 A 
HETATM    9  C   UNK N   1      27.139  57.233  40.077  0.00  0.00     0.074 A 
HETATM   10  C   UNK N   1      28.704  57.959  38.372  0.00  0.00     0.037 A 
HETATM   11  C   UNK N   1      29.755  57.361  39.073  0.00  0.00     0.021 A 
ENDROOT
BRANCH   8  12
HETATM   12  C   UNK N   1      31.233  54.693  43.035  0.00  0.00    -0.019 A 
HETATM   13  C   UNK N   1      32.304  55.409  43.595  0.00  0.00     0.022 A 
HETATM   14  C   UNK N   1      33.244  54.765  44.421  0.00  0.00    -0.021 A 
HETATM   15  C   UNK N   1      33.143  53.374  44.645  0.00  0.00     0.074 A 
HETATM   16  C   UNK N   1      32.075  52.660  44.063  0.00  0.00     0.038 A 
HETATM   17  C   UNK N   1      31.122  53.318  43.288  0.00  0.00     0.015 A 
BRANCH  14  18
HETATM   18  C   UNK N   1      34.326  55.582  45.081  0.00  0.00     0.068 C 
BRANCH  18  19
HETATM   19  C   UNK N   1      33.695  56.531  46.084  0.00  0.00    -0.020 C 
HETATM   20  C   UNK N   1      34.244  56.941  47.261  0.00  0.00    -0.091 C 
HETATM   21  C   UNK N   1      33.477  57.901  48.137  0.00  0.00     0.042 C 
HETATM   22  C   UNK N   1      35.599  56.506  47.775  0.00  0.00     0.042 C 
ENDBRANCH  18  19
ENDBRANCH  14  18
BRANCH  15  23
HETATM   23  O   UNK N   1      34.084  52.755  45.410  0.00  0.00    -0.355 OA
HETATM   24  C   UNK N   1      34.420  51.418  45.327  0.00  0.00     0.210 C 
ENDBRANCH  15  23
ENDBRANCH   8  12
BRANCH   6  25
HETATM   25  O   UNK N   1      26.377  58.488  38.213  0.00  0.00    -0.361 OA
HETATM   26  H   UNK N   1      26.468  59.362  37.808  0.00  0.00     0.217 HD
ENDBRANCH   6  25
TORSDOF 5
ENDMDL
MODEL 7
REMARK VINA RESULT:      -6.6     13.472     15.612
REMARK  5 active torsions:
REMARK  status: ('A' for Active; 'I' for Inactive)
REMARK    1  A    between atoms: O_3  and  C_8 
REMARK    2  A    between atoms: O_4  and  C_9 
REMARK    3  A    between atoms: C_11  and  C_12 
REMARK    4  A    between atoms: C_13  and  C_21 
REMARK    5  A    between atoms: C_21  and  C_23 
ROOT
HETATM    1  O   UNK N   1      32.231  44.462  57.441  0.00  0.00    -0.321 OA
HETATM    2  O   UNK N   1      29.581  44.838  60.386  0.00  0.00    -0.286 OA
HETATM    3  C   UNK N   1      32.361  43.692  58.516  0.00  0.00     0.091 A 
HETATM    4  C   UNK N   1      31.243  45.339  57.307  0.00  0.00     0.159 A 
HETATM    5  C   UNK N   1      30.399  44.732  59.488  0.00  0.00     0.197 A 
HETATM    6  C   UNK N   1      33.550  41.934  59.692  0.00  0.00     0.068 A 
HETATM    7  C   UNK N   1      31.437  43.785  59.579  0.00  0.00     0.049 A 
HETATM    8  C   UNK N   1      30.294  45.524  58.327  0.00  0.00     0.048 A 
HETATM    9  C   UNK N   1      33.417  42.777  58.584  0.00  0.00     0.074 A 
HETATM   10  C   UNK N   1      32.619  42.006  60.739  0.00  0.00     0.037 A 
HETATM   11  C   UNK N   1      31.571  42.929  60.689  0.00  0.00     0.021 A 
ENDROOT
BRANCH   8  12
HETATM   12  C   UNK N   1      29.216  46.536  58.151  0.00  0.00    -0.019 A 
HETATM   13  C   UNK N   1      29.518  47.905  58.068  0.00  0.00     0.022 A 
HETATM   14  C   UNK N   1      28.501  48.852  57.848  0.00  0.00    -0.021 A 
HETATM   15  C   UNK N   1      27.156  48.430  57.765  0.00  0.00     0.074 A 
HETATM   16  C   UNK N   1      26.860  47.055  57.869  0.00  0.00     0.038 A 
HETATM   17  C   UNK N   1      27.881  46.121  58.036  0.00  0.00     0.015 A 
BRANCH  14  18
HETATM   18  C   UNK N   1      28.871  50.304  57.670  0.00  0.00     0.068 C 
BRANCH  18  19
HETATM   19  C   UNK N   1      29.004  50.608  56.189  0.00  0.00    -0.020 C 
HETATM   20  C   UNK N   1      30.159  50.615  55.468  0.00  0.00    -0.091 C 
HETATM   21  C   UNK N   1      30.107  50.932  53.993  0.00  0.00     0.042 C 
HETATM   22  C   UNK N   1      31.529  50.316  56.038  0.00  0.00     0.042 C 
ENDBRANCH  18  19
ENDBRANCH  14  18
BRANCH  15  23
HETATM   23  O   UNK N   1      26.176  49.360  57.597  0.00  0.00    -0.355 OA
HETATM   24  C   UNK N   1      24.866  49.081  57.261  0.00  0.00     0.210 C 
ENDBRANCH  15  23
ENDBRANCH   8  12
BRANCH   6  25
HETATM   25  O   UNK N   1      34.570  41.054  59.737  0.00  0.00    -0.361 OA
HETATM   26  H   UNK N   1      35.398  41.257  60.196  0.00  0.00     0.217 HD
ENDBRANCH   6  25
TORSDOF 5
ENDMDL
MODEL 8
REMARK VINA RESULT:      -6.5      2.945      5.762
REMARK  5 active torsions:
REMARK  status: ('A' for Active; 'I' for Inactive)
REMARK    1  A    between atoms: O_3  and  C_8 
REMARK    2  A    between atoms: O_4  and  C_9 
REMARK    3  A    between atoms: C_11  and  C_12 
REMARK    4  A    between atoms: C_13  and  C_21 
REMARK    5  A    between atoms: C_21  and  C_23 
ROOT
HETATM    1  O   UNK N   1      42.588  45.872  51.457  0.00  0.00    -0.321 OA
HETATM    2  O   UNK N   1      39.452  44.374  49.519  0.00  0.00    -0.286 OA
HETATM    3  C   UNK N   1      41.833  44.968  52.072  0.00  0.00     0.091 A 
HETATM    4  C   UNK N   1      42.344  46.282  50.218  0.00  0.00     0.159 A 
HETATM    5  C   UNK N   1      40.406  44.842  50.116  0.00  0.00     0.197 A 
HETATM    6  C   UNK N   1      41.394  43.595  54.023  0.00  0.00     0.068 A 
HETATM    7  C   UNK N   1      40.717  44.403  51.417  0.00  0.00     0.049 A 
HETATM    8  C   UNK N   1      41.238  45.798  49.499  0.00  0.00     0.048 A 
HETATM    9  C   UNK N   1      42.157  44.570  53.373  0.00  0.00     0.074 A 
HETATM   10  C   UNK N   1      40.299  43.012  53.367  0.00  0.00     0.037 A 
HETATM   11  C   UNK N   1      39.956  43.416  52.073  0.00  0.00     0.021 A 
ENDROOT
BRANCH   8  12
HETATM   12  C   UNK N   1      40.982  46.301  48.121  0.00  0.00    -0.019 A 
HETATM   13  C   UNK N   1      41.426  45.586  46.997  0.00  0.00     0.022 A 
HETATM   14  C   UNK N   1      41.136  46.039  45.697  0.00  0.00    -0.021 A 
HETATM   15  C   UNK N   1      40.439  47.254  45.518  0.00  0.00     0.074 A 
HETATM   16  C   UNK N   1      40.014  47.976  46.652  0.00  0.00     0.038 A 
HETATM   17  C   UNK N   1      40.263  47.491  47.934  0.00  0.00     0.015 A 
BRANCH  14  18
HETATM   18  C   UNK N   1      41.546  45.197  44.515  0.00  0.00     0.068 C 
BRANCH  18  19
HETATM   19  C   UNK N   1      41.584  43.737  44.929  0.00  0.00    -0.020 C 
HETATM   20  C   UNK N   1      42.664  42.911  44.870  0.00  0.00    -0.091 C 
HETATM   21  C   UNK N   1      42.526  41.481  45.336  0.00  0.00     0.042 C 
HETATM   22  C   UNK N   1      44.033  43.319  44.370  0.00  0.00     0.042 C 
ENDBRANCH  18  19
ENDBRANCH  14  18
BRANCH  15  23
HETATM   23  O   UNK N   1      40.203  47.705  44.255  0.00  0.00    -0.355 OA
HETATM   24  C   UNK N   1      39.445  48.814  43.937  0.00  0.00     0.210 C 
ENDBRANCH  15  23
ENDBRANCH   8  12
BRANCH   6  25
HETATM   25  O   UNK N   1      41.725  43.219  55.275  0.00  0.00    -0.361 OA
HETATM   26  H   UNK N   1      42.567  42.784  55.470  0.00  0.00     0.217 HD
ENDBRANCH   6  25
TORSDOF 5
ENDMDL
MODEL 9
REMARK VINA RESULT:      -6.5      2.491      3.829
REMARK  5 active torsions:
REMARK  status: ('A' for Active; 'I' for Inactive)
REMARK    1  A    between atoms: O_3  and  C_8 
REMARK    2  A    between atoms: O_4  and  C_9 
REMARK    3  A    between atoms: C_11  and  C_12 
REMARK    4  A    between atoms: C_13  and  C_21 
REMARK    5  A    between atoms: C_21  and  C_23 
ROOT
HETATM    1  O   UNK N   1      42.495  46.404  50.445  0.00  0.00    -0.321 OA
HETATM    2  O   UNK N   1      39.101  45.239  48.724  0.00  0.00    -0.286 OA
HETATM    3  C   UNK N   1      41.813  45.405  50.995  0.00  0.00     0.091 A 
HETATM    4  C   UNK N   1      42.094  47.016  49.336  0.00  0.00     0.159 A 
HETATM    5  C   UNK N   1      40.135  45.604  49.257  0.00  0.00     0.197 A 
HETATM    6  C   UNK N   1      41.616  43.719  52.728  0.00  0.00     0.068 A 
HETATM    7  C   UNK N   1      40.610  44.953  50.411  0.00  0.00     0.049 A 
HETATM    8  C   UNK N   1      40.893  46.655  48.702  0.00  0.00     0.048 A 
HETATM    9  C   UNK N   1      42.302  44.795  52.154  0.00  0.00     0.074 A 
HETATM   10  C   UNK N   1      40.433  43.251  52.137  0.00  0.00     0.037 A 
HETATM   11  C   UNK N   1      39.927  43.865  50.988  0.00  0.00     0.021 A 
ENDROOT
BRANCH   8  12
HETATM   12  C   UNK N   1      40.464  47.383  47.476  0.00  0.00    -0.019 A 
HETATM   13  C   UNK N   1      39.604  48.490  47.556  0.00  0.00     0.022 A 
HETATM   14  C   UNK N   1      39.245  49.205  46.399  0.00  0.00    -0.021 A 
HETATM   15  C   UNK N   1      39.708  48.775  45.137  0.00  0.00     0.074 A 
HETATM   16  C   UNK N   1      40.556  47.650  45.063  0.00  0.00     0.038 A 
HETATM   17  C   UNK N   1      40.946  46.980  46.222  0.00  0.00     0.015 A 
BRANCH  14  18
HETATM   18  C   UNK N   1      38.396  50.445  46.534  0.00  0.00     0.068 C 
BRANCH  18  19
HETATM   19  C   UNK N   1      38.704  51.121  47.857  0.00  0.00    -0.020 C 
HETATM   20  C   UNK N   1      37.794  51.629  48.734  0.00  0.00    -0.091 C 
HETATM   21  C   UNK N   1      38.278  52.263  50.015  0.00  0.00     0.042 C 
HETATM   22  C   UNK N   1      36.295  51.604  48.527  0.00  0.00     0.042 C 
ENDBRANCH  18  19
ENDBRANCH  14  18
BRANCH  15  23
HETATM   23  O   UNK N   1      39.318  49.449  44.020  0.00  0.00    -0.355 OA
HETATM   24  C   UNK N   1      38.298  49.060  43.174  0.00  0.00     0.210 C 
ENDBRANCH  15  23
ENDBRANCH   8  12
BRANCH   6  25
HETATM   25  O   UNK N   1      42.105  43.139  53.842  0.00  0.00    -0.361 OA
HETATM   26  H   UNK N   1      42.692  43.613  54.448  0.00  0.00     0.217 HD
ENDBRANCH   6  25
TORSDOF 5
ENDMDL
