MODEL 1
REMARK VINA RESULT:      -7.2      0.000      0.000
REMARK  4 active torsions:
REMARK  status: ('A' for Active; 'I' for Inactive)
REMARK    1  A    between atoms: O_3  and  C_9 
REMARK    2  A    between atoms: O_4  and  C_10 
REMARK    3  A    between atoms: O_5  and  C_11 
REMARK    4  A    between atoms: C_13  and  C_14 
ROOT
HETATM    1  O   UNK N   1      38.570  46.999  45.333  0.00  0.00    -0.318 OA
HETATM    2  O   UNK N   1      41.614  48.326  47.512  0.00  0.00    -0.286 OA
HETATM    3  C   UNK N   1      39.160  48.129  44.957  0.00  0.00     0.125 A 
HETATM    4  C   UNK N   1      38.963  46.289  46.381  0.00  0.00     0.159 A 
HETATM    5  C   UNK N   1      40.672  47.923  46.850  0.00  0.00     0.198 A 
HETATM    6  C   UNK N   1      38.704  48.830  43.808  0.00  0.00     0.136 A 
HETATM    7  C   UNK N   1      39.386  49.996  43.403  0.00  0.00     0.101 A 
HETATM    8  C   UNK N   1      40.256  48.626  45.702  0.00  0.00     0.052 A 
HETATM    9  C   UNK N   1      40.017  46.724  47.195  0.00  0.00     0.048 A 
HETATM   10  C   UNK N   1      40.482  50.463  44.135  0.00  0.00     0.040 A 
HETATM   11  C   UNK N   1      40.910  49.795  45.279  0.00  0.00     0.021 A 
ENDROOT
BRANCH   9  12
HETATM   12  C   UNK N   1      40.420  45.901  48.370  0.00  0.00    -0.020 A 
HETATM   13  C   UNK N   1      41.648  46.107  49.025  0.00  0.00     0.015 A 
HETATM   14  C   UNK N   1      41.992  45.334  50.139  0.00  0.00     0.037 A 
HETATM   15  C   UNK N   1      41.136  44.325  50.600  0.00  0.00     0.068 A 
HETATM   16  C   UNK N   1      39.911  44.110  49.937  0.00  0.00     0.037 A 
HETATM   17  C   UNK N   1      39.554  44.901  48.846  0.00  0.00     0.015 A 
BRANCH  15  18
HETATM   18  O   UNK N   1      41.516  43.585  51.674  0.00  0.00    -0.356 OA
HETATM   19  C   UNK N   1      40.797  43.467  52.847  0.00  0.00     0.210 C 
ENDBRANCH  15  18
ENDBRANCH   9  12
BRANCH   6  20
HETATM   20  O   UNK N   1      37.626  48.431  43.071  0.00  0.00    -0.351 OA
HETATM   21  C   UNK N   1      36.374  49.015  43.037  0.00  0.00     0.210 C 
ENDBRANCH   6  20
BRANCH   7  22
HETATM   22  O   UNK N   1      38.997  50.683  42.307  0.00  0.00    -0.358 OA
HETATM   23  H   UNK N   1      38.338  51.391  42.344  0.00  0.00     0.218 HD
ENDBRANCH   7  22
TORSDOF 4
ENDMDL
MODEL 2
REMARK VINA RESULT:      -6.6      1.512      7.934
REMARK  4 active torsions:
REMARK  status: ('A' for Active; 'I' for Inactive)
REMARK    1  A    between atoms: O_3  and  C_9 
REMARK    2  A    between atoms: O_4  and  C_10 
REMARK    3  A    between atoms: O_5  and  C_11 
REMARK    4  A    between atoms: C_13  and  C_14 
ROOT
HETATM    1  O   UNK N   1      39.771  44.340  49.985  0.00  0.00    -0.318 OA
HETATM    2  O   UNK N   1      42.298  47.347  49.401  0.00  0.00    -0.286 OA
HETATM    3  C   UNK N   1      40.680  44.582  50.924  0.00  0.00     0.125 A 
HETATM    4  C   UNK N   1      39.657  45.065  48.882  0.00  0.00     0.159 A 
HETATM    5  C   UNK N   1      41.528  46.417  49.573  0.00  0.00     0.198 A 
HETATM    6  C   UNK N   1      40.733  43.780  52.096  0.00  0.00     0.136 A 
HETATM    7  C   UNK N   1      41.673  44.097  53.099  0.00  0.00     0.101 A 
HETATM    8  C   UNK N   1      41.589  45.653  50.756  0.00  0.00     0.052 A 
HETATM    9  C   UNK N   1      40.536  46.123  48.617  0.00  0.00     0.048 A 
HETATM   10  C   UNK N   1      42.550  45.172  52.931  0.00  0.00     0.040 A 
HETATM   11  C   UNK N   1      42.519  45.940  51.769  0.00  0.00     0.021 A 
ENDROOT
BRANCH   9  12
HETATM   12  C   UNK N   1      40.379  46.906  47.359  0.00  0.00    -0.020 A 
HETATM   13  C   UNK N   1      41.456  47.615  46.796  0.00  0.00     0.015 A 
HETATM   14  C   UNK N   1      41.286  48.326  45.603  0.00  0.00     0.037 A 
HETATM   15  C   UNK N   1      40.038  48.366  44.969  0.00  0.00     0.068 A 
HETATM   16  C   UNK N   1      38.956  47.666  45.538  0.00  0.00     0.037 A 
HETATM   17  C   UNK N   1      39.132  46.933  46.710  0.00  0.00     0.015 A 
BRANCH  15  18
HETATM   18  O   UNK N   1      39.911  49.083  43.821  0.00  0.00    -0.356 OA
HETATM   19  C   UNK N   1      38.709  49.467  43.258  0.00  0.00     0.210 C 
ENDBRANCH  15  18
ENDBRANCH   9  12
BRANCH   6  20
HETATM   20  O   UNK N   1      39.917  42.705  52.302  0.00  0.00    -0.351 OA
HETATM   21  C   UNK N   1      39.070  42.490  53.372  0.00  0.00     0.210 C 
ENDBRANCH   6  20
BRANCH   7  22
HETATM   22  O   UNK N   1      41.745  43.372  54.236  0.00  0.00    -0.358 OA
HETATM   23  H   UNK N   1      41.963  43.766  55.092  0.00  0.00     0.218 HD
ENDBRANCH   7  22
TORSDOF 4
ENDMDL
MODEL 3
REMARK VINA RESULT:      -6.5      1.707      7.914
REMARK  4 active torsions:
REMARK  status: ('A' for Active; 'I' for Inactive)
REMARK    1  A    between atoms: O_3  and  C_9 
REMARK    2  A    between atoms: O_4  and  C_10 
REMARK    3  A    between atoms: O_5  and  C_11 
REMARK    4  A    between atoms: C_13  and  C_14 
ROOT
HETATM    1  O   UNK N   1      41.978  46.952  49.860  0.00  0.00    -0.318 OA
HETATM    2  O   UNK N   1      39.885  45.601  46.768  0.00  0.00    -0.286 OA
HETATM    3  C   UNK N   1      41.541  45.698  49.903  0.00  0.00     0.125 A 
HETATM    4  C   UNK N   1      41.768  47.759  48.830  0.00  0.00     0.159 A 
HETATM    5  C   UNK N   1      40.519  46.021  47.721  0.00  0.00     0.198 A 
HETATM    6  C   UNK N   1      41.822  44.878  51.029  0.00  0.00     0.136 A 
HETATM    7  C   UNK N   1      41.392  43.534  51.021  0.00  0.00     0.101 A 
HETATM    8  C   UNK N   1      40.802  45.178  48.814  0.00  0.00     0.052 A 
HETATM    9  C   UNK N   1      41.017  47.339  47.724  0.00  0.00     0.048 A 
HETATM   10  C   UNK N   1      40.684  43.026  49.928  0.00  0.00     0.040 A 
HETATM   11  C   UNK N   1      40.380  43.838  48.838  0.00  0.00     0.021 A 
ENDROOT
BRANCH   9  12
HETATM   12  C   UNK N   1      40.795  48.281  46.591  0.00  0.00    -0.020 A 
HETATM   13  C   UNK N   1      41.868  48.796  45.842  0.00  0.00     0.015 A 
HETATM   14  C   UNK N   1      41.629  49.662  44.769  0.00  0.00     0.037 A 
HETATM   15  C   UNK N   1      40.324  50.052  44.445  0.00  0.00     0.068 A 
HETATM   16  C   UNK N   1      39.249  49.546  45.202  0.00  0.00     0.037 A 
HETATM   17  C   UNK N   1      39.484  48.659  46.251  0.00  0.00     0.015 A 
BRANCH  15  18
HETATM   18  O   UNK N   1      40.137  50.910  43.407  0.00  0.00    -0.356 OA
HETATM   19  C   UNK N   1      39.205  50.742  42.402  0.00  0.00     0.210 C 
ENDBRANCH  15  18
ENDBRANCH   9  12
BRANCH   6  20
HETATM   20  O   UNK N   1      42.490  45.328  52.131  0.00  0.00    -0.351 OA
HETATM   21  C   UNK N   1      41.943  45.730  53.335  0.00  0.00     0.210 C 
ENDBRANCH   6  20
BRANCH   7  22
HETATM   22  O   UNK N   1      41.654  42.716  52.062  0.00  0.00    -0.358 OA
HETATM   23  H   UNK N   1      41.077  42.659  52.837  0.00  0.00     0.218 HD
ENDBRANCH   7  22
TORSDOF 4
ENDMDL
MODEL 4
REMARK VINA RESULT:      -6.3      1.558      2.961
REMARK  4 active torsions:
REMARK  status: ('A' for Active; 'I' for Inactive)
REMARK    1  A    between atoms: O_3  and  C_9 
REMARK    2  A    between atoms: O_4  and  C_10 
REMARK    3  A    between atoms: O_5  and  C_11 
REMARK    4  A    between atoms: C_13  and  C_14 
ROOT
HETATM    1  O   UNK N   1      40.763  49.742  44.548  0.00  0.00    -0.318 OA
HETATM    2  O   UNK N   1      38.685  46.719  46.069  0.00  0.00    -0.286 OA
HETATM    3  C   UNK N   1      39.637  49.389  43.936  0.00  0.00     0.125 A 
HETATM    4  C   UNK N   1      41.208  49.150  45.647  0.00  0.00     0.159 A 
HETATM    5  C   UNK N   1      39.330  47.640  45.597  0.00  0.00     0.198 A 
HETATM    6  C   UNK N   1      39.205  50.083  42.774  0.00  0.00     0.136 A 
HETATM    7  C   UNK N   1      37.977  49.720  42.179  0.00  0.00     0.101 A 
HETATM    8  C   UNK N   1      38.864  48.325  44.456  0.00  0.00     0.052 A 
HETATM    9  C   UNK N   1      40.525  48.065  46.212  0.00  0.00     0.048 A 
HETATM   10  C   UNK N   1      37.211  48.682  42.717  0.00  0.00     0.040 A 
HETATM   11  C   UNK N   1      37.650  47.982  43.838  0.00  0.00     0.021 A 
ENDROOT
BRANCH   9  12
HETATM   12  C   UNK N   1      41.065  47.421  47.442  0.00  0.00    -0.020 A 
HETATM   13  C   UNK N   1      40.541  46.209  47.927  0.00  0.00     0.015 A 
HETATM   14  C   UNK N   1      41.082  45.615  49.073  0.00  0.00     0.037 A 
HETATM   15  C   UNK N   1      42.129  46.232  49.770  0.00  0.00     0.068 A 
HETATM   16  C   UNK N   1      42.645  47.452  49.291  0.00  0.00     0.037 A 
HETATM   17  C   UNK N   1      42.128  48.029  48.132  0.00  0.00     0.015 A 
BRANCH  15  18
HETATM   18  O   UNK N   1      42.613  45.631  50.889  0.00  0.00    -0.356 OA
HETATM   19  C   UNK N   1      41.837  45.150  51.925  0.00  0.00     0.210 C 
ENDBRANCH  15  18
ENDBRANCH   9  12
BRANCH   6  20
HETATM   20  O   UNK N   1      39.923  51.087  42.194  0.00  0.00    -0.351 OA
HETATM   21  C   UNK N   1      39.967  52.414  42.577  0.00  0.00     0.210 C 
ENDBRANCH   6  20
BRANCH   7  22
HETATM   22  O   UNK N   1      37.520  50.365  41.084  0.00  0.00    -0.358 OA
HETATM   23  H   UNK N   1      36.598  50.644  40.992  0.00  0.00     0.218 HD
ENDBRANCH   7  22
TORSDOF 4
ENDMDL
MODEL 5
REMARK VINA RESULT:      -6.3     14.567     17.378
REMARK  4 active torsions:
REMARK  status: ('A' for Active; 'I' for Inactive)
REMARK    1  A    between atoms: O_3  and  C_9 
REMARK    2  A    between atoms: O_4  and  C_10 
REMARK    3  A    between atoms: O_5  and  C_11 
REMARK    4  A    between atoms: C_13  and  C_14 
ROOT
HETATM    1  O   UNK N   1      46.833  31.271  50.933  0.00  0.00    -0.318 OA
HETATM    2  O   UNK N   1      47.649  34.978  52.099  0.00  0.00    -0.286 OA
HETATM    3  C   UNK N   1      46.062  32.252  50.476  0.00  0.00     0.125 A 
HETATM    4  C   UNK N   1      47.867  31.474  51.736  0.00  0.00     0.159 A 
HETATM    5  C   UNK N   1      47.394  33.838  51.751  0.00  0.00     0.198 A 
HETATM    6  C   UNK N   1      44.982  31.967  49.598  0.00  0.00     0.136 A 
HETATM    7  C   UNK N   1      44.216  33.037  49.087  0.00  0.00     0.101 A 
HETATM    8  C   UNK N   1      46.330  33.587  50.860  0.00  0.00     0.052 A 
HETATM    9  C   UNK N   1      48.185  32.759  52.194  0.00  0.00     0.048 A 
HETATM   10  C   UNK N   1      44.507  34.353  49.456  0.00  0.00     0.040 A 
HETATM   11  C   UNK N   1      45.546  34.630  50.341  0.00  0.00     0.021 A 
ENDROOT
BRANCH   9  12
HETATM   12  C   UNK N   1      49.350  32.943  53.104  0.00  0.00    -0.020 A 
HETATM   13  C   UNK N   1      50.617  33.308  52.613  0.00  0.00     0.015 A 
HETATM   14  C   UNK N   1      51.689  33.495  53.493  0.00  0.00     0.037 A 
HETATM   15  C   UNK N   1      51.525  33.293  54.869  0.00  0.00     0.068 A 
HETATM   16  C   UNK N   1      50.260  32.916  55.361  0.00  0.00     0.037 A 
HETATM   17  C   UNK N   1      49.184  32.760  54.489  0.00  0.00     0.015 A 
BRANCH  15  18
HETATM   18  O   UNK N   1      52.596  33.467  55.687  0.00  0.00    -0.356 OA
HETATM   19  C   UNK N   1      53.138  34.690  56.030  0.00  0.00     0.210 C 
ENDBRANCH  15  18
ENDBRANCH   9  12
BRANCH   6  20
HETATM   20  O   UNK N   1      44.640  30.700  49.223  0.00  0.00    -0.351 OA
HETATM   21  C   UNK N   1      45.226  29.933  48.234  0.00  0.00     0.210 C 
ENDBRANCH   6  20
BRANCH   7  22
HETATM   22  O   UNK N   1      43.192  32.812  48.235  0.00  0.00    -0.358 OA
HETATM   23  H   UNK N   1      42.922  33.455  47.565  0.00  0.00     0.218 HD
ENDBRANCH   7  22
TORSDOF 4
ENDMDL
MODEL 6
REMARK VINA RESULT:      -6.2     14.518     17.334
REMARK  4 active torsions:
REMARK  status: ('A' for Active; 'I' for Inactive)
REMARK    1  A    between atoms: O_3  and  C_9 
REMARK    2  A    between atoms: O_4  and  C_10 
REMARK    3  A    between atoms: O_5  and  C_11 
REMARK    4  A    between atoms: C_13  and  C_14 
ROOT
HETATM    1  O   UNK N   1      47.706  31.653  50.498  0.00  0.00    -0.318 OA
HETATM    2  O   UNK N   1      47.773  34.879  52.812  0.00  0.00    -0.286 OA
HETATM    3  C   UNK N   1      47.429  32.826  49.939  0.00  0.00     0.125 A 
HETATM    4  C   UNK N   1      48.022  31.514  51.777  0.00  0.00     0.159 A 
HETATM    5  C   UNK N   1      47.743  33.886  52.105  0.00  0.00     0.198 A 
HETATM    6  C   UNK N   1      47.121  32.908  48.555  0.00  0.00     0.136 A 
HETATM    7  C   UNK N   1      46.886  34.175  47.980  0.00  0.00     0.101 A 
HETATM    8  C   UNK N   1      47.456  33.999  50.730  0.00  0.00     0.052 A 
HETATM    9  C   UNK N   1      48.040  32.617  52.641  0.00  0.00     0.048 A 
HETATM   10  C   UNK N   1      46.939  35.328  48.768  0.00  0.00     0.040 A 
HETATM   11  C   UNK N   1      47.210  35.246  50.131  0.00  0.00     0.021 A 
ENDROOT
BRANCH   9  12
HETATM   12  C   UNK N   1      48.390  32.416  54.076  0.00  0.00    -0.020 A 
HETATM   13  C   UNK N   1      47.400  32.341  55.071  0.00  0.00     0.015 A 
HETATM   14  C   UNK N   1      47.757  32.131  56.408  0.00  0.00     0.037 A 
HETATM   15  C   UNK N   1      49.103  32.023  56.778  0.00  0.00     0.068 A 
HETATM   16  C   UNK N   1      50.097  32.110  55.783  0.00  0.00     0.037 A 
HETATM   17  C   UNK N   1      49.741  32.288  54.447  0.00  0.00     0.015 A 
BRANCH  15  18
HETATM   18  O   UNK N   1      49.408  31.838  58.089  0.00  0.00    -0.356 OA
HETATM   19  C   UNK N   1      48.482  31.730  59.108  0.00  0.00     0.210 C 
ENDBRANCH  15  18
ENDBRANCH   9  12
BRANCH   6  20
HETATM   20  O   UNK N   1      47.034  31.813  47.744  0.00  0.00    -0.351 OA
HETATM   21  C   UNK N   1      45.953  30.966  47.595  0.00  0.00     0.210 C 
ENDBRANCH   6  20
BRANCH   7  22
HETATM   22  O   UNK N   1      46.607  34.299  46.665  0.00  0.00    -0.358 OA
HETATM   23  H   UNK N   1      45.829  33.893  46.257  0.00  0.00     0.218 HD
ENDBRANCH   7  22
TORSDOF 4
ENDMDL
MODEL 7
REMARK VINA RESULT:      -6.1      1.430      7.753
REMARK  4 active torsions:
REMARK  status: ('A' for Active; 'I' for Inactive)
REMARK    1  A    between atoms: O_3  and  C_9 
REMARK    2  A    between atoms: O_4  and  C_10 
REMARK    3  A    between atoms: O_5  and  C_11 
REMARK    4  A    between atoms: C_13  and  C_14 
ROOT
HETATM    1  O   UNK N   1      41.646  46.960  47.901  0.00  0.00    -0.318 OA
HETATM    2  O   UNK N   1      38.294  46.668  45.792  0.00  0.00    -0.286 OA
HETATM    3  C   UNK N   1      40.823  45.954  48.176  0.00  0.00     0.125 A 
HETATM    4  C   UNK N   1      41.412  47.850  46.948  0.00  0.00     0.159 A 
HETATM    5  C   UNK N   1      39.319  46.766  46.446  0.00  0.00     0.198 A 
HETATM    6  C   UNK N   1      41.146  45.020  49.196  0.00  0.00     0.136 A 
HETATM    7  C   UNK N   1      40.277  43.931  49.426  0.00  0.00     0.101 A 
HETATM    8  C   UNK N   1      39.625  45.811  47.437  0.00  0.00     0.052 A 
HETATM    9  C   UNK N   1      40.235  47.805  46.189  0.00  0.00     0.048 A 
HETATM   10  C   UNK N   1      39.109  43.789  48.673  0.00  0.00     0.040 A 
HETATM   11  C   UNK N   1      38.776  44.722  47.694  0.00  0.00     0.021 A 
ENDROOT
BRANCH   9  12
HETATM   12  C   UNK N   1      40.006  48.832  45.134  0.00  0.00    -0.020 A 
HETATM   13  C   UNK N   1      40.829  49.966  45.020  0.00  0.00     0.015 A 
HETATM   14  C   UNK N   1      40.604  50.903  44.006  0.00  0.00     0.037 A 
HETATM   15  C   UNK N   1      39.539  50.742  43.110  0.00  0.00     0.068 A 
HETATM   16  C   UNK N   1      38.706  49.613  43.230  0.00  0.00     0.037 A 
HETATM   17  C   UNK N   1      38.949  48.662  44.221  0.00  0.00     0.015 A 
BRANCH  15  18
HETATM   18  O   UNK N   1      39.344  51.685  42.151  0.00  0.00    -0.356 OA
HETATM   19  C   UNK N   1      39.703  53.014  42.264  0.00  0.00     0.210 C 
ENDBRANCH  15  18
ENDBRANCH   9  12
BRANCH   6  20
HETATM   20  O   UNK N   1      42.261  45.124  49.977  0.00  0.00    -0.351 OA
HETATM   21  C   UNK N   1      42.352  45.690  51.234  0.00  0.00     0.210 C 
ENDBRANCH   6  20
BRANCH   7  22
HETATM   22  O   UNK N   1      40.556  43.011  50.374  0.00  0.00    -0.358 OA
HETATM   23  H   UNK N   1      41.085  42.221  50.193  0.00  0.00     0.218 HD
ENDBRANCH   7  22
TORSDOF 4
ENDMDL
MODEL 8
REMARK VINA RESULT:      -6.1     11.303     14.181
REMARK  4 active torsions:
REMARK  status: ('A' for Active; 'I' for Inactive)
REMARK    1  A    between atoms: O_3  and  C_9 
REMARK    2  A    between atoms: O_4  and  C_10 
REMARK    3  A    between atoms: O_5  and  C_11 
REMARK    4  A    between atoms: C_13  and  C_14 
ROOT
HETATM    1  O   UNK N   1      27.469  54.929  41.664  0.00  0.00    -0.318 OA
HETATM    2  O   UNK N   1      30.712  52.685  41.196  0.00  0.00    -0.286 OA
HETATM    3  C   UNK N   1      27.452  53.999  40.714  0.00  0.00     0.125 A 
HETATM    4  C   UNK N   1      28.503  55.125  42.469  0.00  0.00     0.159 A 
HETATM    5  C   UNK N   1      29.721  53.382  41.334  0.00  0.00     0.198 A 
HETATM    6  C   UNK N   1      26.300  53.826  39.900  0.00  0.00     0.136 A 
HETATM    7  C   UNK N   1      26.293  52.793  38.938  0.00  0.00     0.101 A 
HETATM    8  C   UNK N   1      28.584  53.172  40.527  0.00  0.00     0.052 A 
HETATM    9  C   UNK N   1      29.679  54.376  42.332  0.00  0.00     0.048 A 
HETATM   10  C   UNK N   1      27.410  51.968  38.779  0.00  0.00     0.040 A 
HETATM   11  C   UNK N   1      28.550  52.158  39.556  0.00  0.00     0.021 A 
ENDROOT
BRANCH   9  12
HETATM   12  C   UNK N   1      30.822  54.634  43.252  0.00  0.00    -0.020 A 
HETATM   13  C   UNK N   1      32.024  55.199  42.789  0.00  0.00     0.015 A 
HETATM   14  C   UNK N   1      33.074  55.451  43.679  0.00  0.00     0.037 A 
HETATM   15  C   UNK N   1      32.956  55.118  45.035  0.00  0.00     0.068 A 
HETATM   16  C   UNK N   1      31.757  54.542  45.497  0.00  0.00     0.037 A 
HETATM   17  C   UNK N   1      30.698  54.319  44.617  0.00  0.00     0.015 A 
BRANCH  15  18
HETATM   18  O   UNK N   1      34.006  55.362  45.862  0.00  0.00    -0.356 OA
HETATM   19  C   UNK N   1      34.435  56.618  46.244  0.00  0.00     0.210 C 
ENDBRANCH  15  18
ENDBRANCH   9  12
BRANCH   6  20
HETATM   20  O   UNK N   1      25.192  54.617  39.997  0.00  0.00    -0.351 OA
HETATM   21  C   UNK N   1      24.986  55.845  39.399  0.00  0.00     0.210 C 
ENDBRANCH   6  20
BRANCH   7  22
HETATM   22  O   UNK N   1      25.213  52.582  38.156  0.00  0.00    -0.358 OA
HETATM   23  H   UNK N   1      24.643  53.302  37.850  0.00  0.00     0.218 HD
ENDBRANCH   7  22
TORSDOF 4
ENDMDL
MODEL 9
REMARK VINA RESULT:      -6.0     15.371     17.431
REMARK  4 active torsions:
REMARK  status: ('A' for Active; 'I' for Inactive)
REMARK    1  A    between atoms: O_3  and  C_9 
REMARK    2  A    between atoms: O_4  and  C_10 
REMARK    3  A    between atoms: O_5  and  C_11 
REMARK    4  A    between atoms: C_13  and  C_14 
ROOT
HETATM    1  O   UNK N   1      46.172  32.450  48.792  0.00  0.00    -0.318 OA
HETATM    2  O   UNK N   1      49.725  31.758  50.426  0.00  0.00    -0.286 OA
HETATM    3  C   UNK N   1      47.184  32.156  47.982  0.00  0.00     0.125 A 
HETATM    4  C   UNK N   1      46.290  32.500  50.111  0.00  0.00     0.159 A 
HETATM    5  C   UNK N   1      48.636  31.981  49.925  0.00  0.00     0.198 A 
HETATM    6  C   UNK N   1      46.985  32.095  46.577  0.00  0.00     0.136 A 
HETATM    7  C   UNK N   1      48.066  31.725  45.749  0.00  0.00     0.101 A 
HETATM    8  C   UNK N   1      48.462  31.891  48.530  0.00  0.00     0.052 A 
HETATM    9  C   UNK N   1      47.525  32.286  50.737  0.00  0.00     0.048 A 
HETATM   10  C   UNK N   1      49.317  31.443  46.304  0.00  0.00     0.040 A 
HETATM   11  C   UNK N   1      49.521  31.533  47.679  0.00  0.00     0.021 A 
ENDROOT
BRANCH   9  12
HETATM   12  C   UNK N   1      47.615  32.362  52.222  0.00  0.00    -0.020 A 
HETATM   13  C   UNK N   1      47.307  31.257  53.035  0.00  0.00     0.015 A 
HETATM   14  C   UNK N   1      47.421  31.350  54.426  0.00  0.00     0.037 A 
HETATM   15  C   UNK N   1      47.814  32.551  55.031  0.00  0.00     0.068 A 
HETATM   16  C   UNK N   1      48.112  33.662  54.218  0.00  0.00     0.037 A 
HETATM   17  C   UNK N   1      48.029  33.561  52.830  0.00  0.00     0.015 A 
BRANCH  15  18
HETATM   18  O   UNK N   1      47.895  32.604  56.387  0.00  0.00    -0.356 OA
HETATM   19  C   UNK N   1      48.621  31.729  57.170  0.00  0.00     0.210 C 
ENDBRANCH  15  18
ENDBRANCH   9  12
BRANCH   6  20
HETATM   20  O   UNK N   1      45.791  32.382  45.980  0.00  0.00    -0.351 OA
HETATM   21  C   UNK N   1      45.238  33.631  45.775  0.00  0.00     0.210 C 
ENDBRANCH   6  20
BRANCH   7  22
HETATM   22  O   UNK N   1      47.915  31.638  44.410  0.00  0.00    -0.358 OA
HETATM   23  H   UNK N   1      48.476  32.125  43.790  0.00  0.00     0.218 HD
ENDBRANCH   7  22
TORSDOF 4
ENDMDL
