MODEL 1
REMARK VINA RESULT:      -7.7      0.000      0.000
REMARK  9 active torsions:
REMARK  status: ('A' for Active; 'I' for Inactive)
REMARK    1  A    between atoms: O_3  and  C_10 
REMARK    2  A    between atoms: O_4  and  C_11 
REMARK    3  A    between atoms: O_5  and  C_12 
REMARK    4  A    between atoms: O_6  and  C_13 
REMARK    5  A    between atoms: C_15  and  C_16 
REMARK    6  A    between atoms: C_17  and  C_22 
REMARK    7  A    between atoms: C_18  and  C_23 
REMARK    8  A    between atoms: C_22  and  C_26 
REMARK    9  A    between atoms: C_23  and  C_27 
ROOT
HETATM    1  O   UNK N   1      40.857  46.995  48.380  0.00  0.00    -0.320 OA
HETATM    2  O   UNK N   1      40.985  46.124  44.509  0.00  0.00    -0.286 OA
HETATM    3  C   UNK N   1      41.213  45.758  48.035  0.00  0.00     0.101 A 
HETATM    4  C   UNK N   1      40.553  47.935  47.496  0.00  0.00     0.159 A 
HETATM    5  C   UNK N   1      40.953  46.377  45.701  0.00  0.00     0.200 A 
HETATM    6  C   UNK N   1      41.667  44.064  46.324  0.00  0.00     0.092 A 
HETATM    7  C   UNK N   1      41.872  43.512  48.710  0.00  0.00     0.084 A 
HETATM    8  C   UNK N   1      41.281  45.389  46.672  0.00  0.00     0.083 A 
HETATM    9  C   UNK N   1      40.585  47.666  46.129  0.00  0.00     0.050 A 
HETATM   10  C   UNK N   1      41.493  44.825  49.045  0.00  0.00     0.014 A 
HETATM   11  C   UNK N   1      41.990  43.125  47.347  0.00  0.00     0.013 A 
ENDROOT
BRANCH   9  12
HETATM   12  C   UNK N   1      40.236  48.748  45.177  0.00  0.00     0.013 A 
HETATM   13  C   UNK N   1      39.043  48.690  44.431  0.00  0.00     0.079 A 
HETATM   14  C   UNK N   1      38.749  49.704  43.504  0.00  0.00     0.073 A 
HETATM   15  C   UNK N   1      39.636  50.768  43.312  0.00  0.00     0.068 A 
HETATM   16  C   UNK N   1      40.826  50.822  44.052  0.00  0.00     0.037 A 
HETATM   17  C   UNK N   1      41.124  49.816  44.979  0.00  0.00     0.018 A 
BRANCH  13  18
HETATM   18  O   UNK N   1      38.189  47.659  44.601  0.00  0.00    -0.360 OA
HETATM   19  H   UNK N   1      38.327  46.993  45.289  0.00  0.00     0.217 HD
ENDBRANCH  13  18
BRANCH  15  20
HETATM   20  O   UNK N   1      39.340  51.728  42.412  0.00  0.00    -0.361 OA
HETATM   21  H   UNK N   1      39.725  52.615  42.465  0.00  0.00     0.217 HD
ENDBRANCH  15  20
ENDBRANCH   9  12
BRANCH   6  22
HETATM   22  O   UNK N   1      41.712  43.712  45.017  0.00  0.00    -0.359 OA
HETATM   23  H   UNK N   1      41.169  43.017  44.625  0.00  0.00     0.218 HD
ENDBRANCH   6  22
BRANCH  10  24
HETATM   24  C   UNK N   1      41.367  45.234  50.500  0.00  0.00     0.072 C 
BRANCH  24  25
HETATM   25  C   UNK N   1      40.534  44.235  51.272  0.00  0.00    -0.020 C 
HETATM   26  C   UNK N   1      40.547  44.042  52.615  0.00  0.00    -0.091 C 
HETATM   27  C   UNK N   1      39.598  43.039  53.222  0.00  0.00     0.042 C 
HETATM   28  C   UNK N   1      41.458  44.777  53.571  0.00  0.00     0.042 C 
ENDBRANCH  24  25
ENDBRANCH  10  24
BRANCH  11  29
HETATM   29  C   UNK N   1      42.482  41.724  47.002  0.00  0.00     0.072 C 
BRANCH  29  30
HETATM   30  C   UNK N   1      43.040  41.658  45.601  0.00  0.00    -0.020 C 
HETATM   31  C   UNK N   1      44.348  41.814  45.274  0.00  0.00    -0.091 C 
HETATM   32  C   UNK N   1      44.762  41.714  43.829  0.00  0.00     0.042 C 
HETATM   33  C   UNK N   1      45.448  42.071  46.282  0.00  0.00     0.042 C 
ENDBRANCH  29  30
ENDBRANCH  11  29
BRANCH   7  34
HETATM   34  O   UNK N   1      42.121  42.641  49.719  0.00  0.00    -0.359 OA
HETATM   35  H   UNK N   1      41.447  42.187  50.238  0.00  0.00     0.217 HD
ENDBRANCH   7  34
TORSDOF 9
ENDMDL
MODEL 2
REMARK VINA RESULT:      -7.0     14.266     17.288
REMARK  9 active torsions:
REMARK  status: ('A' for Active; 'I' for Inactive)
REMARK    1  A    between atoms: O_3  and  C_10 
REMARK    2  A    between atoms: O_4  and  C_11 
REMARK    3  A    between atoms: O_5  and  C_12 
REMARK    4  A    between atoms: O_6  and  C_13 
REMARK    5  A    between atoms: C_15  and  C_16 
REMARK    6  A    between atoms: C_17  and  C_22 
REMARK    7  A    between atoms: C_18  and  C_23 
REMARK    8  A    between atoms: C_22  and  C_26 
REMARK    9  A    between atoms: C_23  and  C_27 
ROOT
HETATM    1  O   UNK N   1      30.936  40.199  59.645  0.00  0.00    -0.320 OA
HETATM    2  O   UNK N   1      31.417  44.068  58.893  0.00  0.00    -0.286 OA
HETATM    3  C   UNK N   1      30.213  40.733  58.661  0.00  0.00     0.101 A 
HETATM    4  C   UNK N   1      31.800  40.895  60.370  0.00  0.00     0.159 A 
HETATM    5  C   UNK N   1      31.260  42.879  59.110  0.00  0.00     0.200 A 
HETATM    6  C   UNK N   1      29.566  42.656  57.285  0.00  0.00     0.092 A 
HETATM    7  C   UNK N   1      28.531  40.457  56.920  0.00  0.00     0.084 A 
HETATM    8  C   UNK N   1      30.344  42.105  58.343  0.00  0.00     0.083 A 
HETATM    9  C   UNK N   1      31.994  42.255  60.136  0.00  0.00     0.050 A 
HETATM   10  C   UNK N   1      29.306  39.919  57.964  0.00  0.00     0.014 A 
HETATM   11  C   UNK N   1      28.673  41.823  56.551  0.00  0.00     0.013 A 
ENDROOT
BRANCH   9  12
HETATM   12  C   UNK N   1      32.970  42.994  60.973  0.00  0.00     0.013 A 
HETATM   13  C   UNK N   1      34.298  43.173  60.539  0.00  0.00     0.079 A 
HETATM   14  C   UNK N   1      35.219  43.841  61.364  0.00  0.00     0.073 A 
HETATM   15  C   UNK N   1      34.828  44.324  62.617  0.00  0.00     0.068 A 
HETATM   16  C   UNK N   1      33.507  44.141  63.050  0.00  0.00     0.037 A 
HETATM   17  C   UNK N   1      32.584  43.479  62.232  0.00  0.00     0.018 A 
BRANCH  13  18
HETATM   18  O   UNK N   1      34.686  42.696  59.337  0.00  0.00    -0.360 OA
HETATM   19  H   UNK N   1      34.957  41.774  59.220  0.00  0.00     0.217 HD
ENDBRANCH  13  18
BRANCH  15  20
HETATM   20  O   UNK N   1      35.728  44.956  63.398  0.00  0.00    -0.361 OA
HETATM   21  H   UNK N   1      35.457  45.531  64.128  0.00  0.00     0.217 HD
ENDBRANCH  15  20
ENDBRANCH   9  12
BRANCH   6  22
HETATM   22  O   UNK N   1      29.682  43.974  56.999  0.00  0.00    -0.359 OA
HETATM   23  H   UNK N   1      29.894  44.321  56.123  0.00  0.00     0.218 HD
ENDBRANCH   6  22
BRANCH  10  24
HETATM   24  C   UNK N   1      29.152  38.463  58.356  0.00  0.00     0.072 C 
BRANCH  24  25
HETATM   25  C   UNK N   1      29.942  37.567  57.429  0.00  0.00    -0.020 C 
HETATM   26  C   UNK N   1      29.446  36.561  56.665  0.00  0.00    -0.091 C 
HETATM   27  C   UNK N   1      30.378  35.809  55.747  0.00  0.00     0.042 C 
HETATM   28  C   UNK N   1      27.998  36.130  56.660  0.00  0.00     0.042 C 
ENDBRANCH  24  25
ENDBRANCH  10  24
BRANCH  11  29
HETATM   29  C   UNK N   1      27.886  42.367  55.364  0.00  0.00     0.072 C 
BRANCH  29  30
HETATM   30  C   UNK N   1      28.644  42.200  54.070  0.00  0.00    -0.020 C 
HETATM   31  C   UNK N   1      28.264  42.713  52.871  0.00  0.00    -0.091 C 
HETATM   32  C   UNK N   1      29.128  42.471  51.661  0.00  0.00     0.042 C 
HETATM   33  C   UNK N   1      27.016  43.544  52.663  0.00  0.00     0.042 C 
ENDBRANCH  29  30
ENDBRANCH  11  29
BRANCH   7  34
HETATM   34  O   UNK N   1      27.658  39.637  56.284  0.00  0.00    -0.359 OA
HETATM   35  H   UNK N   1      27.142  39.874  55.504  0.00  0.00     0.217 HD
ENDBRANCH   7  34
TORSDOF 9
ENDMDL
MODEL 3
REMARK VINA RESULT:      -6.8     12.767     17.880
REMARK  9 active torsions:
REMARK  status: ('A' for Active; 'I' for Inactive)
REMARK    1  A    between atoms: O_3  and  C_10 
REMARK    2  A    between atoms: O_4  and  C_11 
REMARK    3  A    between atoms: O_5  and  C_12 
REMARK    4  A    between atoms: O_6  and  C_13 
REMARK    5  A    between atoms: C_15  and  C_16 
REMARK    6  A    between atoms: C_17  and  C_22 
REMARK    7  A    between atoms: C_18  and  C_23 
REMARK    8  A    between atoms: C_22  and  C_26 
REMARK    9  A    between atoms: C_23  and  C_27 
ROOT
HETATM    1  O   UNK N   1      26.131  54.704  40.377  0.00  0.00    -0.320 OA
HETATM    2  O   UNK N   1      28.366  51.424  40.278  0.00  0.00    -0.286 OA
HETATM    3  C   UNK N   1      27.377  54.789  40.841  0.00  0.00     0.101 A 
HETATM    4  C   UNK N   1      25.616  53.586  39.885  0.00  0.00     0.159 A 
HETATM    5  C   UNK N   1      27.693  52.440  40.313  0.00  0.00     0.200 A 
HETATM    6  C   UNK N   1      29.552  53.769  41.326  0.00  0.00     0.092 A 
HETATM    7  C   UNK N   1      29.136  56.131  41.862  0.00  0.00     0.084 A 
HETATM    8  C   UNK N   1      28.223  53.656  40.829  0.00  0.00     0.083 A 
HETATM    9  C   UNK N   1      26.369  52.415  39.836  0.00  0.00     0.050 A 
HETATM   10  C   UNK N   1      27.825  56.012  41.365  0.00  0.00     0.014 A 
HETATM   11  C   UNK N   1      30.022  55.020  41.822  0.00  0.00     0.013 A 
ENDROOT
BRANCH   9  12
HETATM   12  C   UNK N   1      25.751  51.187  39.279  0.00  0.00     0.013 A 
HETATM   13  C   UNK N   1      25.168  50.227  40.129  0.00  0.00     0.079 A 
HETATM   14  C   UNK N   1      24.624  49.051  39.585  0.00  0.00     0.073 A 
HETATM   15  C   UNK N   1      24.662  48.825  38.206  0.00  0.00     0.068 A 
HETATM   16  C   UNK N   1      25.246  49.779  37.361  0.00  0.00     0.037 A 
HETATM   17  C   UNK N   1      25.789  50.953  37.895  0.00  0.00     0.018 A 
BRANCH  13  18
HETATM   18  O   UNK N   1      25.142  50.434  41.462  0.00  0.00    -0.360 OA
HETATM   19  H   UNK N   1      25.954  50.467  41.988  0.00  0.00     0.217 HD
ENDBRANCH  13  18
BRANCH  15  20
HETATM   20  O   UNK N   1      24.141  47.686  37.703  0.00  0.00    -0.361 OA
HETATM   21  H   UNK N   1      24.333  47.390  36.802  0.00  0.00     0.217 HD
ENDBRANCH  15  20
ENDBRANCH   9  12
BRANCH   6  22
HETATM   22  O   UNK N   1      30.350  52.675  41.328  0.00  0.00    -0.359 OA
HETATM   23  H   UNK N   1      31.308  52.705  41.441  0.00  0.00     0.218 HD
ENDBRANCH   6  22
BRANCH  10  24
HETATM   24  C   UNK N   1      26.882  57.199  41.409  0.00  0.00     0.072 C 
BRANCH  24  25
HETATM   25  C   UNK N   1      26.077  57.202  42.689  0.00  0.00    -0.020 C 
HETATM   26  C   UNK N   1      25.464  58.273  43.253  0.00  0.00    -0.091 C 
HETATM   27  C   UNK N   1      24.647  58.076  44.506  0.00  0.00     0.042 C 
HETATM   28  C   UNK N   1      25.535  59.680  42.706  0.00  0.00     0.042 C 
ENDBRANCH  24  25
ENDBRANCH  10  24
BRANCH  11  29
HETATM   29  C   UNK N   1      31.463  55.190  42.288  0.00  0.00     0.072 C 
BRANCH  29  30
HETATM   30  C   UNK N   1      31.824  54.189  43.359  0.00  0.00    -0.020 C 
HETATM   31  C   UNK N   1      32.894  54.287  44.189  0.00  0.00    -0.091 C 
HETATM   32  C   UNK N   1      33.126  53.212  45.220  0.00  0.00     0.042 C 
HETATM   33  C   UNK N   1      33.884  55.431  44.164  0.00  0.00     0.042 C 
ENDBRANCH  29  30
ENDBRANCH  11  29
BRANCH   7  34
HETATM   34  O   UNK N   1      29.521  57.328  42.370  0.00  0.00    -0.359 OA
HETATM   35  H   UNK N   1      30.382  57.512  42.764  0.00  0.00     0.217 HD
ENDBRANCH   7  34
TORSDOF 9
ENDMDL
MODEL 4
REMARK VINA RESULT:      -6.6     14.653     18.243
REMARK  9 active torsions:
REMARK  status: ('A' for Active; 'I' for Inactive)
REMARK    1  A    between atoms: O_3  and  C_10 
REMARK    2  A    between atoms: O_4  and  C_11 
REMARK    3  A    between atoms: O_5  and  C_12 
REMARK    4  A    between atoms: O_6  and  C_13 
REMARK    5  A    between atoms: C_15  and  C_16 
REMARK    6  A    between atoms: C_17  and  C_22 
REMARK    7  A    between atoms: C_18  and  C_23 
REMARK    8  A    between atoms: C_22  and  C_26 
REMARK    9  A    between atoms: C_23  and  C_27 
ROOT
HETATM    1  O   UNK N   1      29.066  39.228  54.752  0.00  0.00    -0.320 OA
HETATM    2  O   UNK N   1      29.395  37.419  58.272  0.00  0.00    -0.286 OA
HETATM    3  C   UNK N   1      29.323  39.987  55.818  0.00  0.00     0.101 A 
HETATM    4  C   UNK N   1      28.923  37.912  54.818  0.00  0.00     0.159 A 
HETATM    5  C   UNK N   1      29.299  37.989  57.198  0.00  0.00     0.200 A 
HETATM    6  C   UNK N   1      29.732  40.227  58.222  0.00  0.00     0.092 A 
HETATM    7  C   UNK N   1      29.704  42.202  56.759  0.00  0.00     0.084 A 
HETATM    8  C   UNK N   1      29.455  39.400  57.097  0.00  0.00     0.083 A 
HETATM    9  C   UNK N   1      29.030  37.242  56.036  0.00  0.00     0.050 A 
HETATM   10  C   UNK N   1      29.434  41.376  55.652  0.00  0.00     0.014 A 
HETATM   11  C   UNK N   1      29.884  41.634  58.050  0.00  0.00     0.013 A 
ENDROOT
BRANCH   9  12
HETATM   12  C   UNK N   1      28.862  35.769  56.061  0.00  0.00     0.013 A 
HETATM   13  C   UNK N   1      29.949  34.917  55.787  0.00  0.00     0.079 A 
HETATM   14  C   UNK N   1      29.760  33.524  55.776  0.00  0.00     0.073 A 
HETATM   15  C   UNK N   1      28.497  32.979  56.029  0.00  0.00     0.068 A 
HETATM   16  C   UNK N   1      27.415  33.828  56.297  0.00  0.00     0.037 A 
HETATM   17  C   UNK N   1      27.596  35.216  56.312  0.00  0.00     0.018 A 
BRANCH  13  18
HETATM   18  O   UNK N   1      31.167  35.438  55.527  0.00  0.00    -0.360 OA
HETATM   19  H   UNK N   1      31.900  35.352  56.153  0.00  0.00     0.217 HD
ENDBRANCH  13  18
BRANCH  15  20
HETATM   20  O   UNK N   1      28.334  31.640  56.006  0.00  0.00    -0.361 OA
HETATM   21  H   UNK N   1      27.635  31.201  56.513  0.00  0.00     0.217 HD
ENDBRANCH  15  20
ENDBRANCH   9  12
BRANCH   6  22
HETATM   22  O   UNK N   1      29.839  39.661  59.447  0.00  0.00    -0.359 OA
HETATM   23  H   UNK N   1      29.536  40.077  60.264  0.00  0.00     0.218 HD
ENDBRANCH   6  22
BRANCH  10  24
HETATM   24  C   UNK N   1      29.241  41.985  54.276  0.00  0.00     0.072 C 
BRANCH  24  25
HETATM   25  C   UNK N   1      27.817  42.456  54.088  0.00  0.00    -0.020 C 
HETATM   26  C   UNK N   1      27.315  43.089  52.998  0.00  0.00    -0.091 C 
HETATM   27  C   UNK N   1      25.846  43.432  52.960  0.00  0.00     0.042 C 
HETATM   28  C   UNK N   1      28.132  43.479  51.789  0.00  0.00     0.042 C 
ENDBRANCH  24  25
ENDBRANCH  10  24
BRANCH  11  29
HETATM   29  C   UNK N   1      30.258  42.534  59.222  0.00  0.00     0.072 C 
BRANCH  29  30
HETATM   30  C   UNK N   1      31.677  43.037  59.108  0.00  0.00    -0.020 C 
HETATM   31  C   UNK N   1      32.771  42.406  59.605  0.00  0.00    -0.091 C 
HETATM   32  C   UNK N   1      34.131  43.025  59.408  0.00  0.00     0.042 C 
HETATM   33  C   UNK N   1      32.724  41.087  60.347  0.00  0.00     0.042 C 
ENDBRANCH  29  30
ENDBRANCH  11  29
BRANCH   7  34
HETATM   34  O   UNK N   1      29.790  43.539  56.554  0.00  0.00    -0.359 OA
HETATM   35  H   UNK N   1      30.432  44.124  56.972  0.00  0.00     0.217 HD
ENDBRANCH   7  34
TORSDOF 9
ENDMDL
MODEL 5
REMARK VINA RESULT:      -6.5     13.296     18.431
REMARK  9 active torsions:
REMARK  status: ('A' for Active; 'I' for Inactive)
REMARK    1  A    between atoms: O_3  and  C_10 
REMARK    2  A    between atoms: O_4  and  C_11 
REMARK    3  A    between atoms: O_5  and  C_12 
REMARK    4  A    between atoms: O_6  and  C_13 
REMARK    5  A    between atoms: C_15  and  C_16 
REMARK    6  A    between atoms: C_17  and  C_22 
REMARK    7  A    between atoms: C_18  and  C_23 
REMARK    8  A    between atoms: C_22  and  C_26 
REMARK    9  A    between atoms: C_23  and  C_27 
ROOT
HETATM    1  O   UNK N   1      26.007  54.701  39.864  0.00  0.00    -0.320 OA
HETATM    2  O   UNK N   1      28.199  51.406  40.187  0.00  0.00    -0.286 OA
HETATM    3  C   UNK N   1      27.240  54.823  40.355  0.00  0.00     0.101 A 
HETATM    4  C   UNK N   1      25.491  53.542  39.479  0.00  0.00     0.159 A 
HETATM    5  C   UNK N   1      27.539  52.427  40.092  0.00  0.00     0.200 A 
HETATM    6  C   UNK N   1      29.385  53.837  41.014  0.00  0.00     0.092 A 
HETATM    7  C   UNK N   1      28.987  56.248  41.279  0.00  0.00     0.084 A 
HETATM    8  C   UNK N   1      28.070  53.686  40.490  0.00  0.00     0.083 A 
HETATM    9  C   UNK N   1      26.230  52.364  39.580  0.00  0.00     0.050 A 
HETATM   10  C   UNK N   1      27.689  56.090  40.757  0.00  0.00     0.014 A 
HETATM   11  C   UNK N   1      29.858  55.130  41.386  0.00  0.00     0.013 A 
ENDROOT
BRANCH   9  12
HETATM   12  C   UNK N   1      25.611  51.091  39.139  0.00  0.00     0.013 A 
HETATM   13  C   UNK N   1      25.023  50.217  40.074  0.00  0.00     0.079 A 
HETATM   14  C   UNK N   1      24.478  48.996  39.643  0.00  0.00     0.073 A 
HETATM   15  C   UNK N   1      24.522  48.639  38.291  0.00  0.00     0.068 A 
HETATM   16  C   UNK N   1      25.112  49.507  37.362  0.00  0.00     0.037 A 
HETATM   17  C   UNK N   1      25.655  50.726  37.784  0.00  0.00     0.018 A 
BRANCH  13  18
HETATM   18  O   UNK N   1      24.991  50.549  41.382  0.00  0.00    -0.360 OA
HETATM   19  H   UNK N   1      25.547  50.100  42.034  0.00  0.00     0.217 HD
ENDBRANCH  13  18
BRANCH  15  20
HETATM   20  O   UNK N   1      24.000  47.458  37.897  0.00  0.00    -0.361 OA
HETATM   21  H   UNK N   1      24.248  47.044  37.058  0.00  0.00     0.217 HD
ENDBRANCH  15  20
ENDBRANCH   9  12
BRANCH   6  22
HETATM   22  O   UNK N   1      30.168  52.742  41.158  0.00  0.00    -0.359 OA
HETATM   23  H   UNK N   1      30.856  52.653  41.830  0.00  0.00     0.218 HD
ENDBRANCH   6  22
BRANCH  10  24
HETATM   24  C   UNK N   1      26.762  57.285  40.644  0.00  0.00     0.072 C 
BRANCH  24  25
HETATM   25  C   UNK N   1      26.767  57.842  39.238  0.00  0.00    -0.020 C 
HETATM   26  C   UNK N   1      27.344  59.002  38.834  0.00  0.00    -0.091 C 
HETATM   27  C   UNK N   1      27.303  59.371  37.371  0.00  0.00     0.042 C 
HETATM   28  C   UNK N   1      28.045  59.972  39.757  0.00  0.00     0.042 C 
ENDBRANCH  24  25
ENDBRANCH  10  24
BRANCH  11  29
HETATM   29  C   UNK N   1      31.287  55.334  41.875  0.00  0.00     0.072 C 
BRANCH  29  30
HETATM   30  C   UNK N   1      31.361  55.361  43.383  0.00  0.00    -0.020 C 
HETATM   31  C   UNK N   1      31.701  54.305  44.166  0.00  0.00    -0.091 C 
HETATM   32  C   UNK N   1      31.741  54.482  45.662  0.00  0.00     0.042 C 
HETATM   33  C   UNK N   1      32.066  52.937  43.632  0.00  0.00     0.042 C 
ENDBRANCH  29  30
ENDBRANCH  11  29
BRANCH   7  34
HETATM   34  O   UNK N   1      29.374  57.489  41.666  0.00  0.00    -0.359 OA
HETATM   35  H   UNK N   1      29.225  57.868  42.541  0.00  0.00     0.217 HD
ENDBRANCH   7  34
TORSDOF 9
ENDMDL
MODEL 6
REMARK VINA RESULT:      -6.5     14.273     17.383
REMARK  9 active torsions:
REMARK  status: ('A' for Active; 'I' for Inactive)
REMARK    1  A    between atoms: O_3  and  C_10 
REMARK    2  A    between atoms: O_4  and  C_11 
REMARK    3  A    between atoms: O_5  and  C_12 
REMARK    4  A    between atoms: O_6  and  C_13 
REMARK    5  A    between atoms: C_15  and  C_16 
REMARK    6  A    between atoms: C_17  and  C_22 
REMARK    7  A    between atoms: C_18  and  C_23 
REMARK    8  A    between atoms: C_22  and  C_26 
REMARK    9  A    between atoms: C_23  and  C_27 
ROOT
HETATM    1  O   UNK N   1      30.072  42.979  57.719  0.00  0.00    -0.320 OA
HETATM    2  O   UNK N   1      31.622  40.452  60.360  0.00  0.00    -0.286 OA
HETATM    3  C   UNK N   1      29.646  41.717  57.692  0.00  0.00     0.101 A 
HETATM    4  C   UNK N   1      30.975  43.421  58.583  0.00  0.00     0.159 A 
HETATM    5  C   UNK N   1      31.135  41.216  59.545  0.00  0.00     0.200 A 
HETATM    6  C   UNK N   1      29.688  39.428  58.567  0.00  0.00     0.092 A 
HETATM    7  C   UNK N   1      28.237  40.011  56.671  0.00  0.00     0.084 A 
HETATM    8  C   UNK N   1      30.158  40.771  58.610  0.00  0.00     0.083 A 
HETATM    9  C   UNK N   1      31.542  42.563  59.523  0.00  0.00     0.050 A 
HETATM   10  C   UNK N   1      28.704  41.338  56.723  0.00  0.00     0.014 A 
HETATM   11  C   UNK N   1      28.702  39.050  57.609  0.00  0.00     0.013 A 
ENDROOT
BRANCH   9  12
HETATM   12  C   UNK N   1      32.549  43.101  60.469  0.00  0.00     0.013 A 
HETATM   13  C   UNK N   1      33.925  43.013  60.179  0.00  0.00     0.079 A 
HETATM   14  C   UNK N   1      34.866  43.492  61.107  0.00  0.00     0.073 A 
HETATM   15  C   UNK N   1      34.446  44.050  62.318  0.00  0.00     0.068 A 
HETATM   16  C   UNK N   1      33.077  44.134  62.607  0.00  0.00     0.037 A 
HETATM   17  C   UNK N   1      32.134  43.660  61.688  0.00  0.00     0.018 A 
BRANCH  13  18
HETATM   18  O   UNK N   1      34.337  42.462  59.018  0.00  0.00    -0.360 OA
HETATM   19  H   UNK N   1      34.017  42.781  58.163  0.00  0.00     0.217 HD
ENDBRANCH  13  18
BRANCH  15  20
HETATM   20  O   UNK N   1      35.365  44.498  63.199  0.00  0.00    -0.361 OA
HETATM   21  H   UNK N   1      35.777  43.912  63.851  0.00  0.00     0.217 HD
ENDBRANCH  15  20
ENDBRANCH   9  12
BRANCH   6  22
HETATM   22  O   UNK N   1      30.196  38.523  59.437  0.00  0.00    -0.359 OA
HETATM   23  H   UNK N   1      31.122  38.495  59.709  0.00  0.00     0.218 HD
ENDBRANCH   6  22
BRANCH  10  24
HETATM   24  C   UNK N   1      28.206  42.361  55.720  0.00  0.00     0.072 C 
BRANCH  24  25
HETATM   25  C   UNK N   1      28.918  42.209  54.395  0.00  0.00    -0.020 C 
HETATM   26  C   UNK N   1      28.439  42.569  53.177  0.00  0.00    -0.091 C 
HETATM   27  C   UNK N   1      29.318  42.400  51.963  0.00  0.00     0.042 C 
HETATM   28  C   UNK N   1      27.062  43.146  52.941  0.00  0.00     0.042 C 
ENDBRANCH  24  25
ENDBRANCH  10  24
BRANCH  11  29
HETATM   29  C   UNK N   1      28.124  37.640  57.591  0.00  0.00     0.072 C 
BRANCH  29  30
HETATM   30  C   UNK N   1      29.164  36.615  57.208  0.00  0.00    -0.020 C 
HETATM   31  C   UNK N   1      29.448  36.228  55.938  0.00  0.00    -0.091 C 
HETATM   32  C   UNK N   1      30.522  35.196  55.707  0.00  0.00     0.042 C 
HETATM   33  C   UNK N   1      28.758  36.781  54.710  0.00  0.00     0.042 C 
ENDBRANCH  29  30
ENDBRANCH  11  29
BRANCH   7  34
HETATM   34  O   UNK N   1      27.336  39.687  55.710  0.00  0.00    -0.359 OA
HETATM   35  H   UNK N   1      27.105  38.789  55.447  0.00  0.00     0.217 HD
ENDBRANCH   7  34
TORSDOF 9
ENDMDL
MODEL 7
REMARK VINA RESULT:      -6.5     14.554     16.306
REMARK  9 active torsions:
REMARK  status: ('A' for Active; 'I' for Inactive)
REMARK    1  A    between atoms: O_3  and  C_10 
REMARK    2  A    between atoms: O_4  and  C_11 
REMARK    3  A    between atoms: O_5  and  C_12 
REMARK    4  A    between atoms: O_6  and  C_13 
REMARK    5  A    between atoms: C_15  and  C_16 
REMARK    6  A    between atoms: C_17  and  C_22 
REMARK    7  A    between atoms: C_18  and  C_23 
REMARK    8  A    between atoms: C_22  and  C_26 
REMARK    9  A    between atoms: C_23  and  C_27 
ROOT
HETATM    1  O   UNK N   1      28.268  42.575  53.197  0.00  0.00    -0.320 OA
HETATM    2  O   UNK N   1      25.352  40.452  51.536  0.00  0.00    -0.286 OA
HETATM    3  C   UNK N   1      28.242  41.264  53.436  0.00  0.00     0.101 A 
HETATM    4  C   UNK N   1      27.375  43.190  52.433  0.00  0.00     0.159 A 
HETATM    5  C   UNK N   1      26.254  41.090  52.050  0.00  0.00     0.200 A 
HETATM    6  C   UNK N   1      27.222  39.056  53.134  0.00  0.00     0.092 A 
HETATM    7  C   UNK N   1      29.215  39.326  54.548  0.00  0.00     0.084 A 
HETATM    8  C   UNK N   1      27.231  40.454  52.869  0.00  0.00     0.083 A 
HETATM    9  C   UNK N   1      26.337  42.478  51.835  0.00  0.00     0.050 A 
HETATM   10  C   UNK N   1      29.217  40.708  54.278  0.00  0.00     0.014 A 
HETATM   11  C   UNK N   1      28.235  38.482  53.957  0.00  0.00     0.013 A 
ENDROOT
BRANCH   9  12
HETATM   12  C   UNK N   1      25.361  43.208  50.990  0.00  0.00     0.013 A 
HETATM   13  C   UNK N   1      25.314  42.994  49.599  0.00  0.00     0.079 A 
HETATM   14  C   UNK N   1      24.410  43.725  48.809  0.00  0.00     0.073 A 
HETATM   15  C   UNK N   1      23.560  44.669  49.396  0.00  0.00     0.068 A 
HETATM   16  C   UNK N   1      23.610  44.883  50.780  0.00  0.00     0.037 A 
HETATM   17  C   UNK N   1      24.507  44.158  51.573  0.00  0.00     0.018 A 
BRANCH  13  18
HETATM   18  O   UNK N   1      26.143  42.096  49.025  0.00  0.00    -0.360 OA
HETATM   19  H   UNK N   1      26.238  42.035  48.064  0.00  0.00     0.217 HD
ENDBRANCH  13  18
BRANCH  15  20
HETATM   20  O   UNK N   1      22.704  45.366  48.620  0.00  0.00    -0.361 OA
HETATM   21  H   UNK N   1      22.784  45.381  47.655  0.00  0.00     0.217 HD
ENDBRANCH  15  20
ENDBRANCH   9  12
BRANCH   6  22
HETATM   22  O   UNK N   1      26.240  38.289  52.603  0.00  0.00    -0.359 OA
HETATM   23  H   UNK N   1      26.194  38.037  51.672  0.00  0.00     0.218 HD
ENDBRANCH   6  22
BRANCH  10  24
HETATM   24  C   UNK N   1      30.263  41.606  54.910  0.00  0.00     0.072 C 
BRANCH  24  25
HETATM   25  C   UNK N   1      29.741  42.227  56.186  0.00  0.00    -0.020 C 
HETATM   26  C   UNK N   1      30.440  43.012  57.045  0.00  0.00    -0.091 C 
HETATM   27  C   UNK N   1      29.734  43.599  58.243  0.00  0.00     0.042 C 
HETATM   28  C   UNK N   1      31.902  43.355  56.885  0.00  0.00     0.042 C 
ENDBRANCH  24  25
ENDBRANCH  10  24
BRANCH  11  29
HETATM   29  C   UNK N   1      28.297  36.978  54.194  0.00  0.00     0.072 C 
BRANCH  29  30
HETATM   30  C   UNK N   1      27.859  36.615  55.592  0.00  0.00    -0.020 C 
HETATM   31  C   UNK N   1      28.521  35.770  56.423  0.00  0.00    -0.091 C 
HETATM   32  C   UNK N   1      27.966  35.507  57.799  0.00  0.00     0.042 C 
HETATM   33  C   UNK N   1      29.813  35.069  56.064  0.00  0.00     0.042 C 
ENDBRANCH  29  30
ENDBRANCH  11  29
BRANCH   7  34
HETATM   34  O   UNK N   1      30.168  38.835  55.377  0.00  0.00    -0.359 OA
HETATM   35  H   UNK N   1      30.031  38.137  56.028  0.00  0.00     0.217 HD
ENDBRANCH   7  34
TORSDOF 9
ENDMDL
MODEL 8
REMARK VINA RESULT:      -6.2     13.881     16.584
REMARK  9 active torsions:
REMARK  status: ('A' for Active; 'I' for Inactive)
REMARK    1  A    between atoms: O_3  and  C_10 
REMARK    2  A    between atoms: O_4  and  C_11 
REMARK    3  A    between atoms: O_5  and  C_12 
REMARK    4  A    between atoms: O_6  and  C_13 
REMARK    5  A    between atoms: C_15  and  C_16 
REMARK    6  A    between atoms: C_17  and  C_22 
REMARK    7  A    between atoms: C_18  and  C_23 
REMARK    8  A    between atoms: C_22  and  C_26 
REMARK    9  A    between atoms: C_23  and  C_27 
ROOT
HETATM    1  O   UNK N   1      50.869  51.347  58.620  0.00  0.00    -0.320 OA
HETATM    2  O   UNK N   1      50.196  47.592  59.722  0.00  0.00    -0.286 OA
HETATM    3  C   UNK N   1      51.654  50.401  58.106  0.00  0.00     0.101 A 
HETATM    4  C   UNK N   1      49.884  51.090  59.469  0.00  0.00     0.159 A 
HETATM    5  C   UNK N   1      50.414  48.740  59.373  0.00  0.00     0.200 A 
HETATM    6  C   UNK N   1      52.307  48.048  57.894  0.00  0.00     0.092 A 
HETATM    7  C   UNK N   1      53.530  49.796  56.674  0.00  0.00     0.084 A 
HETATM    8  C   UNK N   1      51.460  49.044  58.457  0.00  0.00     0.083 A 
HETATM    9  C   UNK N   1      49.619  49.784  59.880  0.00  0.00     0.050 A 
HETATM   10  C   UNK N   1      52.687  50.775  57.233  0.00  0.00     0.014 A 
HETATM   11  C   UNK N   1      53.332  48.421  56.976  0.00  0.00     0.013 A 
ENDROOT
BRANCH   9  12
HETATM   12  C   UNK N   1      48.508  49.544  60.832  0.00  0.00     0.013 A 
HETATM   13  C   UNK N   1      47.322  48.914  60.407  0.00  0.00     0.079 A 
HETATM   14  C   UNK N   1      46.264  48.732  61.314  0.00  0.00     0.073 A 
HETATM   15  C   UNK N   1      46.378  49.177  62.635  0.00  0.00     0.068 A 
HETATM   16  C   UNK N   1      47.558  49.808  63.055  0.00  0.00     0.037 A 
HETATM   17  C   UNK N   1      48.616  49.991  62.158  0.00  0.00     0.018 A 
BRANCH  13  18
HETATM   18  O   UNK N   1      47.199  48.496  59.129  0.00  0.00    -0.360 OA
HETATM   19  H   UNK N   1      47.806  48.794  58.437  0.00  0.00     0.217 HD
ENDBRANCH  13  18
BRANCH  15  20
HETATM   20  O   UNK N   1      45.349  49.000  63.489  0.00  0.00    -0.361 OA
HETATM   21  H   UNK N   1      44.499  49.448  63.366  0.00  0.00     0.217 HD
ENDBRANCH  15  20
ENDBRANCH   9  12
BRANCH   6  22
HETATM   22  O   UNK N   1      52.128  46.753  58.249  0.00  0.00    -0.359 OA
HETATM   23  H   UNK N   1      51.969  46.037  57.621  0.00  0.00     0.218 HD
ENDBRANCH   6  22
BRANCH  10  24
HETATM   24  C   UNK N   1      52.901  52.240  56.909  0.00  0.00     0.072 C 
BRANCH  24  25
HETATM   25  C   UNK N   1      51.995  52.684  55.783  0.00  0.00    -0.020 C 
HETATM   26  C   UNK N   1      52.279  53.619  54.841  0.00  0.00    -0.091 C 
HETATM   27  C   UNK N   1      51.273  53.889  53.749  0.00  0.00     0.042 C 
HETATM   28  C   UNK N   1      53.557  54.424  54.799  0.00  0.00     0.042 C 
ENDBRANCH  24  25
ENDBRANCH  10  24
BRANCH  11  29
HETATM   29  C   UNK N   1      54.201  47.369  56.298  0.00  0.00     0.072 C 
BRANCH  29  30
HETATM   30  C   UNK N   1      53.395  46.492  55.371  0.00  0.00    -0.020 C 
HETATM   31  C   UNK N   1      53.861  45.382  54.745  0.00  0.00    -0.091 C 
HETATM   32  C   UNK N   1      52.936  44.598  53.851  0.00  0.00     0.042 C 
HETATM   33  C   UNK N   1      55.272  44.854  54.896  0.00  0.00     0.042 C 
ENDBRANCH  29  30
ENDBRANCH  11  29
BRANCH   7  34
HETATM   34  O   UNK N   1      54.523  50.204  55.846  0.00  0.00    -0.359 OA
HETATM   35  H   UNK N   1      55.391  50.515  56.131  0.00  0.00     0.217 HD
ENDBRANCH   7  34
TORSDOF 9
ENDMDL
MODEL 9
REMARK VINA RESULT:      -6.2     15.068     17.295
REMARK  9 active torsions:
REMARK  status: ('A' for Active; 'I' for Inactive)
REMARK    1  A    between atoms: O_3  and  C_10 
REMARK    2  A    between atoms: O_4  and  C_11 
REMARK    3  A    between atoms: O_5  and  C_12 
REMARK    4  A    between atoms: O_6  and  C_13 
REMARK    5  A    between atoms: C_15  and  C_16 
REMARK    6  A    between atoms: C_17  and  C_22 
REMARK    7  A    between atoms: C_18  and  C_23 
REMARK    8  A    between atoms: C_22  and  C_26 
REMARK    9  A    between atoms: C_23  and  C_27 
ROOT
HETATM    1  O   UNK N   1      47.569  56.346  59.255  0.00  0.00    -0.320 OA
HETATM    2  O   UNK N   1      49.203  52.740  58.952  0.00  0.00    -0.286 OA
HETATM    3  C   UNK N   1      47.058  55.369  60.004  0.00  0.00     0.101 A 
HETATM    4  C   UNK N   1      48.589  56.166  58.428  0.00  0.00     0.159 A 
HETATM    5  C   UNK N   1      48.692  53.841  59.058  0.00  0.00     0.200 A 
HETATM    6  C   UNK N   1      47.042  53.035  60.754  0.00  0.00     0.092 A 
HETATM    7  C   UNK N   1      45.401  54.638  61.635  0.00  0.00     0.084 A 
HETATM    8  C   UNK N   1      47.600  54.064  59.943  0.00  0.00     0.083 A 
HETATM    9  C   UNK N   1      49.187  54.915  58.294  0.00  0.00     0.050 A 
HETATM   10  C   UNK N   1      45.961  55.651  60.833  0.00  0.00     0.014 A 
HETATM   11  C   UNK N   1      45.953  53.328  61.626  0.00  0.00     0.013 A 
ENDROOT
BRANCH   9  12
HETATM   12  C   UNK N   1      50.325  54.761  57.356  0.00  0.00     0.013 A 
HETATM   13  C   UNK N   1      50.165  54.067  56.140  0.00  0.00     0.079 A 
HETATM   14  C   UNK N   1      51.265  53.896  55.283  0.00  0.00     0.073 A 
HETATM   15  C   UNK N   1      52.520  54.406  55.631  0.00  0.00     0.068 A 
HETATM   16  C   UNK N   1      52.679  55.092  56.843  0.00  0.00     0.037 A 
HETATM   17  C   UNK N   1      51.588  55.268  57.701  0.00  0.00     0.018 A 
BRANCH  13  18
HETATM   18  O   UNK N   1      48.959  53.560  55.806  0.00  0.00    -0.360 OA
HETATM   19  H   UNK N   1      48.791  52.607  55.805  0.00  0.00     0.217 HD
ENDBRANCH  13  18
BRANCH  15  20
HETATM   20  O   UNK N   1      53.566  54.225  54.798  0.00  0.00    -0.361 OA
HETATM   21  H   UNK N   1      54.256  54.896  54.690  0.00  0.00     0.217 HD
ENDBRANCH  15  20
ENDBRANCH   9  12
BRANCH   6  22
HETATM   22  O   UNK N   1      47.554  51.784  60.676  0.00  0.00    -0.359 OA
HETATM   23  H   UNK N   1      47.382  51.173  59.949  0.00  0.00     0.218 HD
ENDBRANCH   6  22
BRANCH  10  24
HETATM   24  C   UNK N   1      45.369  57.047  60.845  0.00  0.00     0.072 C 
BRANCH  24  25
HETATM   25  C   UNK N   1      44.365  57.218  59.727  0.00  0.00    -0.020 C 
HETATM   26  C   UNK N   1      43.034  57.442  59.866  0.00  0.00    -0.091 C 
HETATM   27  C   UNK N   1      42.192  57.651  58.632  0.00  0.00     0.042 C 
HETATM   28  C   UNK N   1      42.316  57.504  61.195  0.00  0.00     0.042 C 
ENDBRANCH  24  25
ENDBRANCH  10  24
BRANCH  11  29
HETATM   29  C   UNK N   1      45.387  52.267  62.562  0.00  0.00     0.072 C 
BRANCH  29  30
HETATM   30  C   UNK N   1      44.029  51.791  62.108  0.00  0.00    -0.020 C 
HETATM   31  C   UNK N   1      43.789  50.628  61.451  0.00  0.00    -0.091 C 
HETATM   32  C   UNK N   1      42.374  50.279  61.066  0.00  0.00     0.042 C 
HETATM   33  C   UNK N   1      44.862  49.627  61.081  0.00  0.00     0.042 C 
ENDBRANCH  29  30
ENDBRANCH  11  29
BRANCH   7  34
HETATM   34  O   UNK N   1      44.334  54.953  62.410  0.00  0.00    -0.359 OA
HETATM   35  H   UNK N   1      44.352  55.562  63.158  0.00  0.00     0.217 HD
ENDBRANCH   7  34
TORSDOF 9
ENDMDL
