MODEL 1
REMARK VINA RESULT:      -5.5      0.000      0.000
REMARK  9 active torsions:
REMARK  status: ('A' for Active; 'I' for Inactive)
REMARK    1  A    between atoms: O_2  and  C_8 
REMARK    2  A    between atoms: O_3  and  C_9 
REMARK    3  A    between atoms: O_4  and  C_10 
REMARK    4  A    between atoms: O_5  and  C_11 
REMARK    5  A    between atoms: C_12  and  C_19 
REMARK    6  A    between atoms: C_14  and  C_21 
REMARK    7  A    between atoms: C_15  and  C_22 
REMARK    8  A    between atoms: C_21  and  C_26 
REMARK    9  A    between atoms: C_22  and  C_27 
ROOT
HETATM    1  C   UNK N   1      32.466  42.981  59.515  0.00  0.00     0.106 A 
HETATM    2  C   UNK N   1      32.277  43.463  58.213  0.00  0.00     0.100 A 
HETATM    3  C   UNK N   1      30.803  45.213  59.048  0.00  0.00    -0.018 A 
HETATM    4  C   UNK N   1      31.823  43.607  60.610  0.00  0.00    -0.012 A 
HETATM    5  C   UNK N   1      30.976  44.733  60.379  0.00  0.00    -0.036 A 
HETATM    6  C   UNK N   1      31.454  44.563  57.988  0.00  0.00     0.049 A 
ENDROOT
BRANCH   3   7
HETATM    7  C   UNK N   1      29.930  46.416  58.734  0.00  0.00     0.169 C 
HETATM    8  O   UNK N   1      30.510  47.198  57.743  0.00  0.00    -0.340 OA
HETATM    9  C   UNK N   1      29.861  48.267  57.213  0.00  0.00     0.089 A 
HETATM   10  C   UNK N   1      28.459  48.364  57.315  0.00  0.00     0.076 A 
HETATM   11  C   UNK N   1      30.595  49.275  56.585  0.00  0.00     0.074 A 
HETATM   12  C   UNK N   1      27.803  49.511  56.825  0.00  0.00     0.085 A 
HETATM   13  C   UNK N   1      27.738  47.228  57.949  0.00  0.00     0.167 C 
HETATM   14  C   UNK N   1      28.555  50.530  56.215  0.00  0.00     0.074 A 
HETATM   15  C   UNK N   1      29.946  50.408  56.088  0.00  0.00     0.071 A 
HETATM   16  O   UNK N   1      26.537  47.275  58.168  0.00  0.00    -0.292 OA
HETATM   17  C   UNK N   1      28.519  45.988  58.296  0.00  0.00     0.121 C 
BRANCH  12  18
HETATM   18  O   UNK N   1      26.464  49.636  56.937  0.00  0.00    -0.360 OA
HETATM   19  H   UNK N   1      26.059  50.297  57.517  0.00  0.00     0.217 HD
ENDBRANCH  12  18
BRANCH  15  20
HETATM   20  O   UNK N   1      30.671  51.381  55.498  0.00  0.00    -0.361 OA
HETATM   21  H   UNK N   1      30.882  51.357  54.554  0.00  0.00     0.217 HD
ENDBRANCH  15  20
ENDBRANCH   3   7
BRANCH   5  22
HETATM   22  C   UNK N   1      30.264  45.422  61.534  0.00  0.00     0.067 C 
BRANCH  22  23
HETATM   23  C   UNK N   1      31.138  46.483  62.170  0.00  0.00    -0.020 C 
HETATM   24  C   UNK N   1      31.144  46.806  63.490  0.00  0.00    -0.091 C 
HETATM   25  C   UNK N   1      32.087  47.872  63.984  0.00  0.00     0.042 C 
HETATM   26  C   UNK N   1      30.250  46.159  64.525  0.00  0.00     0.042 C 
ENDBRANCH  22  23
ENDBRANCH   5  22
BRANCH   4  27
HETATM   27  C   UNK N   1      32.051  43.055  62.008  0.00  0.00     0.069 C 
BRANCH  27  28
HETATM   28  C   UNK N   1      33.248  43.728  62.641  0.00  0.00    -0.020 C 
HETATM   29  C   UNK N   1      33.476  43.890  63.970  0.00  0.00    -0.091 C 
HETATM   30  C   UNK N   1      34.739  44.586  64.417  0.00  0.00     0.042 C 
HETATM   31  C   UNK N   1      32.542  43.421  65.062  0.00  0.00     0.042 C 
ENDBRANCH  27  28
ENDBRANCH   4  27
BRANCH   2  32
HETATM   32  O   UNK N   1      32.893  42.862  57.173  0.00  0.00    -0.358 OA
HETATM   33  H   UNK N   1      33.009  41.901  57.133  0.00  0.00     0.218 HD
ENDBRANCH   2  32
BRANCH   1  34
HETATM   34  O   UNK N   1      33.261  41.907  59.729  0.00  0.00    -0.357 OA
HETATM   35  H   UNK N   1      33.841  41.544  59.045  0.00  0.00     0.218 HD
ENDBRANCH   1  34
TORSDOF 9
ENDMDL
MODEL 2
REMARK VINA RESULT:      -5.5     21.483     25.130
REMARK  9 active torsions:
REMARK  status: ('A' for Active; 'I' for Inactive)
REMARK    1  A    between atoms: O_2  and  C_8 
REMARK    2  A    between atoms: O_3  and  C_9 
REMARK    3  A    between atoms: O_4  and  C_10 
REMARK    4  A    between atoms: O_5  and  C_11 
REMARK    5  A    between atoms: C_12  and  C_19 
REMARK    6  A    between atoms: C_14  and  C_21 
REMARK    7  A    between atoms: C_15  and  C_22 
REMARK    8  A    between atoms: C_21  and  C_26 
REMARK    9  A    between atoms: C_22  and  C_27 
ROOT
HETATM    1  C   UNK N   1      44.948  33.056  49.085  0.00  0.00     0.106 A 
HETATM    2  C   UNK N   1      45.279  34.125  49.929  0.00  0.00     0.100 A 
HETATM    3  C   UNK N   1      46.992  32.774  51.011  0.00  0.00    -0.018 A 
HETATM    4  C   UNK N   1      45.634  31.822  49.192  0.00  0.00    -0.012 A 
HETATM    5  C   UNK N   1      46.665  31.671  50.168  0.00  0.00    -0.036 A 
HETATM    6  C   UNK N   1      46.287  33.980  50.878  0.00  0.00     0.049 A 
ENDROOT
BRANCH   3   7
HETATM    7  C   UNK N   1      48.089  32.686  52.059  0.00  0.00     0.169 C 
HETATM    8  O   UNK N   1      49.278  33.216  51.570  0.00  0.00    -0.340 OA
HETATM    9  C   UNK N   1      50.371  33.353  52.362  0.00  0.00     0.089 A 
HETATM   10  C   UNK N   1      50.228  33.382  53.764  0.00  0.00     0.076 A 
HETATM   11  C   UNK N   1      51.637  33.444  51.780  0.00  0.00     0.074 A 
HETATM   12  C   UNK N   1      51.376  33.453  54.580  0.00  0.00     0.085 A 
HETATM   13  C   UNK N   1      48.847  33.334  54.314  0.00  0.00     0.167 C 
HETATM   14  C   UNK N   1      52.646  33.522  53.981  0.00  0.00     0.074 A 
HETATM   15  C   UNK N   1      52.775  33.527  52.585  0.00  0.00     0.071 A 
HETATM   16  O   UNK N   1      48.639  33.254  55.515  0.00  0.00    -0.292 OA
HETATM   17  C   UNK N   1      47.691  33.417  53.352  0.00  0.00     0.121 C 
BRANCH  12  18
HETATM   18  O   UNK N   1      51.263  33.455  55.924  0.00  0.00    -0.360 OA
HETATM   19  H   UNK N   1      50.807  32.746  56.400  0.00  0.00     0.217 HD
ENDBRANCH  12  18
BRANCH  15  20
HETATM   20  O   UNK N   1      53.992  33.598  52.007  0.00  0.00    -0.361 OA
HETATM   21  H   UNK N   1      54.760  33.946  52.480  0.00  0.00     0.217 HD
ENDBRANCH  15  20
ENDBRANCH   3   7
BRANCH   5  22
HETATM   22  C   UNK N   1      47.415  30.355  50.312  0.00  0.00     0.067 C 
BRANCH  22  23
HETATM   23  C   UNK N   1      48.709  30.365  49.527  0.00  0.00    -0.020 C 
HETATM   24  C   UNK N   1      49.947  30.170  50.053  0.00  0.00    -0.091 C 
HETATM   25  C   UNK N   1      51.147  30.185  49.141  0.00  0.00     0.042 C 
HETATM   26  C   UNK N   1      50.215  29.933  51.523  0.00  0.00     0.042 C 
ENDBRANCH  22  23
ENDBRANCH   5  22
BRANCH   4  27
HETATM   27  C   UNK N   1      45.247  30.685  48.260  0.00  0.00     0.069 C 
BRANCH  27  28
HETATM   28  C   UNK N   1      46.403  30.347  47.347  0.00  0.00    -0.020 C 
HETATM   29  C   UNK N   1      46.904  31.127  46.354  0.00  0.00    -0.091 C 
HETATM   30  C   UNK N   1      48.074  30.622  45.546  0.00  0.00     0.042 C 
HETATM   31  C   UNK N   1      46.367  32.491  45.983  0.00  0.00     0.042 C 
ENDBRANCH  27  28
ENDBRANCH   4  27
BRANCH   2  32
HETATM   32  O   UNK N   1      44.621  35.299  49.823  0.00  0.00    -0.358 OA
HETATM   33  H   UNK N   1      45.086  36.148  49.829  0.00  0.00     0.218 HD
ENDBRANCH   2  32
BRANCH   1  34
HETATM   34  O   UNK N   1      43.963  33.199  48.168  0.00  0.00    -0.357 OA
HETATM   35  H   UNK N   1      43.737  32.504  47.534  0.00  0.00     0.218 HD
ENDBRANCH   1  34
TORSDOF 9
ENDMDL
MODEL 3
REMARK VINA RESULT:      -5.4      4.144      5.562
REMARK  9 active torsions:
REMARK  status: ('A' for Active; 'I' for Inactive)
REMARK    1  A    between atoms: O_2  and  C_8 
REMARK    2  A    between atoms: O_3  and  C_9 
REMARK    3  A    between atoms: O_4  and  C_10 
REMARK    4  A    between atoms: O_5  and  C_11 
REMARK    5  A    between atoms: C_12  and  C_19 
REMARK    6  A    between atoms: C_14  and  C_21 
REMARK    7  A    between atoms: C_15  and  C_22 
REMARK    8  A    between atoms: C_21  and  C_26 
REMARK    9  A    between atoms: C_22  and  C_27 
ROOT
HETATM    1  C   UNK N   1      30.601  39.830  59.998  0.00  0.00     0.106 A 
HETATM    2  C   UNK N   1      29.512  39.369  59.245  0.00  0.00     0.100 A 
HETATM    3  C   UNK N   1      29.562  41.390  57.887  0.00  0.00    -0.018 A 
HETATM    4  C   UNK N   1      31.189  41.085  59.708  0.00  0.00    -0.012 A 
HETATM    5  C   UNK N   1      30.664  41.881  58.646  0.00  0.00    -0.036 A 
HETATM    6  C   UNK N   1      29.002  40.143  58.206  0.00  0.00     0.049 A 
ENDROOT
BRANCH   3   7
HETATM    7  C   UNK N   1      28.965  42.178  56.734  0.00  0.00     0.169 C 
HETATM    8  O   UNK N   1      29.339  41.624  55.515  0.00  0.00    -0.340 OA
HETATM    9  C   UNK N   1      28.836  42.086  54.342  0.00  0.00     0.089 A 
HETATM   10  C   UNK N   1      27.630  42.815  54.329  0.00  0.00     0.076 A 
HETATM   11  C   UNK N   1      29.531  41.851  53.154  0.00  0.00     0.074 A 
HETATM   12  C   UNK N   1      27.154  43.352  53.115  0.00  0.00     0.085 A 
HETATM   13  C   UNK N   1      26.915  42.981  55.623  0.00  0.00     0.167 C 
HETATM   14  C   UNK N   1      27.875  43.127  51.930  0.00  0.00     0.074 A 
HETATM   15  C   UNK N   1      29.056  42.371  51.948  0.00  0.00     0.071 A 
HETATM   16  O   UNK N   1      25.920  43.683  55.717  0.00  0.00    -0.292 OA
HETATM   17  C   UNK N   1      27.431  42.237  56.826  0.00  0.00     0.121 C 
BRANCH  12  18
HETATM   18  O   UNK N   1      26.015  44.076  53.085  0.00  0.00    -0.360 OA
HETATM   19  H   UNK N   1      26.025  45.040  52.994  0.00  0.00     0.217 HD
ENDBRANCH  12  18
BRANCH  15  20
HETATM   20  O   UNK N   1      29.748  42.148  50.812  0.00  0.00    -0.361 OA
HETATM   21  H   UNK N   1      30.698  42.321  50.753  0.00  0.00     0.217 HD
ENDBRANCH  15  20
ENDBRANCH   3   7
BRANCH   5  22
HETATM   22  C   UNK N   1      31.269  43.238  58.316  0.00  0.00     0.067 C 
BRANCH  22  23
HETATM   23  C   UNK N   1      30.682  44.333  59.181  0.00  0.00    -0.020 C 
HETATM   24  C   UNK N   1      30.559  45.637  58.820  0.00  0.00    -0.091 C 
HETATM   25  C   UNK N   1      29.931  46.613  59.782  0.00  0.00     0.042 C 
HETATM   26  C   UNK N   1      31.018  46.195  57.491  0.00  0.00     0.042 C 
ENDBRANCH  22  23
ENDBRANCH   5  22
BRANCH   4  27
HETATM   27  C   UNK N   1      32.368  41.553  60.547  0.00  0.00     0.069 C 
BRANCH  27  28
HETATM   28  C   UNK N   1      31.874  42.343  61.738  0.00  0.00    -0.020 C 
HETATM   29  C   UNK N   1      32.531  43.350  62.369  0.00  0.00    -0.091 C 
HETATM   30  C   UNK N   1      31.872  44.031  63.543  0.00  0.00     0.042 C 
HETATM   31  C   UNK N   1      33.902  43.853  61.980  0.00  0.00     0.042 C 
ENDBRANCH  27  28
ENDBRANCH   4  27
BRANCH   2  32
HETATM   32  O   UNK N   1      28.955  38.171  59.525  0.00  0.00    -0.358 OA
HETATM   33  H   UNK N   1      28.193  37.833  59.033  0.00  0.00     0.218 HD
ENDBRANCH   2  32
BRANCH   1  34
HETATM   34  O   UNK N   1      31.090  39.078  61.010  0.00  0.00    -0.357 OA
HETATM   35  H   UNK N   1      30.888  39.260  61.939  0.00  0.00     0.218 HD
ENDBRANCH   1  34
TORSDOF 9
ENDMDL
MODEL 4
REMARK VINA RESULT:      -5.1      5.625      9.442
REMARK  9 active torsions:
REMARK  status: ('A' for Active; 'I' for Inactive)
REMARK    1  A    between atoms: O_2  and  C_8 
REMARK    2  A    between atoms: O_3  and  C_9 
REMARK    3  A    between atoms: O_4  and  C_10 
REMARK    4  A    between atoms: O_5  and  C_11 
REMARK    5  A    between atoms: C_12  and  C_19 
REMARK    6  A    between atoms: C_14  and  C_21 
REMARK    7  A    between atoms: C_15  and  C_22 
REMARK    8  A    between atoms: C_21  and  C_26 
REMARK    9  A    between atoms: C_22  and  C_27 
ROOT
HETATM    1  C   UNK N   1      27.048  41.986  54.222  0.00  0.00     0.106 A 
HETATM    2  C   UNK N   1      27.088  42.975  55.215  0.00  0.00     0.100 A 
HETATM    3  C   UNK N   1      28.718  41.679  56.477  0.00  0.00    -0.018 A 
HETATM    4  C   UNK N   1      27.844  40.822  54.342  0.00  0.00    -0.012 A 
HETATM    5  C   UNK N   1      28.686  40.658  55.482  0.00  0.00    -0.036 A 
HETATM    6  C   UNK N   1      27.912  42.818  56.326  0.00  0.00     0.049 A 
ENDROOT
BRANCH   3   7
HETATM    7  C   UNK N   1      29.604  41.577  57.707  0.00  0.00     0.169 C 
HETATM    8  O   UNK N   1      30.737  42.368  57.563  0.00  0.00    -0.340 OA
HETATM    9  C   UNK N   1      31.623  42.530  58.579  0.00  0.00     0.089 A 
HETATM   10  C   UNK N   1      31.227  42.278  59.908  0.00  0.00     0.076 A 
HETATM   11  C   UNK N   1      32.931  42.926  58.296  0.00  0.00     0.074 A 
HETATM   12  C   UNK N   1      32.174  42.379  60.948  0.00  0.00     0.085 A 
HETATM   13  C   UNK N   1      29.804  41.911  60.142  0.00  0.00     0.167 C 
HETATM   14  C   UNK N   1      33.493  42.757  60.647  0.00  0.00     0.074 A 
HETATM   15  C   UNK N   1      33.869  43.039  59.325  0.00  0.00     0.071 A 
HETATM   16  O   UNK N   1      29.403  41.579  61.246  0.00  0.00    -0.292 OA
HETATM   17  C   UNK N   1      28.847  41.984  58.981  0.00  0.00     0.121 C 
BRANCH  12  18
HETATM   18  O   UNK N   1      31.821  42.116  62.224  0.00  0.00    -0.360 OA
HETATM   19  H   UNK N   1      30.951  41.758  62.450  0.00  0.00     0.217 HD
ENDBRANCH  12  18
BRANCH  15  20
HETATM   20  O   UNK N   1      35.133  43.408  59.033  0.00  0.00    -0.361 OA
HETATM   21  H   UNK N   1      35.582  43.096  58.235  0.00  0.00     0.217 HD
ENDBRANCH  15  20
ENDBRANCH   3   7
BRANCH   5  22
HETATM   22  C   UNK N   1      29.547  39.413  55.643  0.00  0.00     0.067 C 
BRANCH  22  23
HETATM   23  C   UNK N   1      28.855  38.366  56.490  0.00  0.00    -0.020 C 
HETATM   24  C   UNK N   1      29.217  37.058  56.571  0.00  0.00    -0.091 C 
HETATM   25  C   UNK N   1      28.445  36.134  57.477  0.00  0.00     0.042 C 
HETATM   26  C   UNK N   1      30.365  36.448  55.799  0.00  0.00     0.042 C 
ENDBRANCH  22  23
ENDBRANCH   5  22
BRANCH   4  27
HETATM   27  C   UNK N   1      27.774  39.770  53.246  0.00  0.00     0.069 C 
BRANCH  27  28
HETATM   28  C   UNK N   1      26.700  38.756  53.571  0.00  0.00    -0.020 C 
HETATM   29  C   UNK N   1      26.814  37.404  53.493  0.00  0.00    -0.091 C 
HETATM   30  C   UNK N   1      25.630  36.548  53.867  0.00  0.00     0.042 C 
HETATM   31  C   UNK N   1      28.061  36.675  53.047  0.00  0.00     0.042 C 
ENDBRANCH  27  28
ENDBRANCH   4  27
BRANCH   2  32
HETATM   32  O   UNK N   1      26.326  44.084  55.095  0.00  0.00    -0.358 OA
HETATM   33  H   UNK N   1      25.556  44.115  54.510  0.00  0.00     0.218 HD
ENDBRANCH   2  32
BRANCH   1  34
HETATM   34  O   UNK N   1      26.241  42.140  53.147  0.00  0.00    -0.357 OA
HETATM   35  H   UNK N   1      26.517  41.903  52.251  0.00  0.00     0.218 HD
ENDBRANCH   1  34
TORSDOF 9
ENDMDL
MODEL 5
REMARK VINA RESULT:      -5.1     22.110     25.755
REMARK  9 active torsions:
REMARK  status: ('A' for Active; 'I' for Inactive)
REMARK    1  A    between atoms: O_2  and  C_8 
REMARK    2  A    between atoms: O_3  and  C_9 
REMARK    3  A    between atoms: O_4  and  C_10 
REMARK    4  A    between atoms: O_5  and  C_11 
REMARK    5  A    between atoms: C_12  and  C_19 
REMARK    6  A    between atoms: C_14  and  C_21 
REMARK    7  A    between atoms: C_15  and  C_22 
REMARK    8  A    between atoms: C_21  and  C_26 
REMARK    9  A    between atoms: C_22  and  C_27 
ROOT
HETATM    1  C   UNK N   1      46.823  33.826  49.294  0.00  0.00     0.106 A 
HETATM    2  C   UNK N   1      46.471  33.908  50.648  0.00  0.00     0.100 A 
HETATM    3  C   UNK N   1      48.671  33.089  51.296  0.00  0.00    -0.018 A 
HETATM    4  C   UNK N   1      48.109  33.371  48.916  0.00  0.00    -0.012 A 
HETATM    5  C   UNK N   1      49.046  32.991  49.924  0.00  0.00    -0.036 A 
HETATM    6  C   UNK N   1      47.386  33.541  51.632  0.00  0.00     0.049 A 
ENDROOT
BRANCH   3   7
HETATM    7  C   UNK N   1      49.625  32.717  52.419  0.00  0.00     0.169 C 
HETATM    8  O   UNK N   1      50.172  33.857  52.996  0.00  0.00    -0.340 OA
HETATM    9  C   UNK N   1      50.967  33.785  54.094  0.00  0.00     0.089 A 
HETATM   10  C   UNK N   1      50.914  32.650  54.930  0.00  0.00     0.076 A 
HETATM   11  C   UNK N   1      51.847  34.830  54.378  0.00  0.00     0.074 A 
HETATM   12  C   UNK N   1      51.793  32.553  56.028  0.00  0.00     0.085 A 
HETATM   13  C   UNK N   1      49.914  31.600  54.598  0.00  0.00     0.167 C 
HETATM   14  C   UNK N   1      52.691  33.602  56.289  0.00  0.00     0.074 A 
HETATM   15  C   UNK N   1      52.712  34.741  55.471  0.00  0.00     0.071 A 
HETATM   16  O   UNK N   1      49.871  30.543  55.208  0.00  0.00    -0.292 OA
HETATM   17  C   UNK N   1      48.923  31.877  53.499  0.00  0.00     0.121 C 
BRANCH  12  18
HETATM   18  O   UNK N   1      51.777  31.464  56.824  0.00  0.00    -0.360 OA
HETATM   19  H   UNK N   1      52.483  30.801  56.797  0.00  0.00     0.217 HD
ENDBRANCH  12  18
BRANCH  15  20
HETATM   20  O   UNK N   1      53.568  35.753  55.722  0.00  0.00    -0.361 OA
HETATM   21  H   UNK N   1      54.456  35.774  55.340  0.00  0.00     0.217 HD
ENDBRANCH  15  20
ENDBRANCH   3   7
BRANCH   5  22
HETATM   22  C   UNK N   1      50.433  32.490  49.549  0.00  0.00     0.067 C 
BRANCH  22  23
HETATM   23  C   UNK N   1      51.406  33.636  49.364  0.00  0.00    -0.020 C 
HETATM   24  C   UNK N   1      52.579  33.784  50.033  0.00  0.00    -0.091 C 
HETATM   25  C   UNK N   1      53.458  34.969  49.726  0.00  0.00     0.042 C 
HETATM   26  C   UNK N   1      53.079  32.825  51.090  0.00  0.00     0.042 C 
ENDBRANCH  22  23
ENDBRANCH   5  22
BRANCH   4  27
HETATM   27  C   UNK N   1      48.455  33.295  47.438  0.00  0.00     0.069 C 
BRANCH  27  28
HETATM   28  C   UNK N   1      47.891  32.026  46.840  0.00  0.00    -0.020 C 
HETATM   29  C   UNK N   1      48.477  31.248  45.892  0.00  0.00    -0.091 C 
HETATM   30  C   UNK N   1      47.762  30.007  45.420  0.00  0.00     0.042 C 
HETATM   31  C   UNK N   1      49.818  31.537  45.258  0.00  0.00     0.042 C 
ENDBRANCH  27  28
ENDBRANCH   4  27
BRANCH   2  32
HETATM   32  O   UNK N   1      45.243  34.343  51.003  0.00  0.00    -0.358 OA
HETATM   33  H   UNK N   1      45.003  35.280  50.972  0.00  0.00     0.218 HD
ENDBRANCH   2  32
BRANCH   1  34
HETATM   34  O   UNK N   1      45.929  34.177  48.341  0.00  0.00    -0.357 OA
HETATM   35  H   UNK N   1      45.928  33.784  47.458  0.00  0.00     0.218 HD
ENDBRANCH   1  34
TORSDOF 9
ENDMDL
MODEL 6
REMARK VINA RESULT:      -5.0     23.764     27.378
REMARK  9 active torsions:
REMARK  status: ('A' for Active; 'I' for Inactive)
REMARK    1  A    between atoms: O_2  and  C_8 
REMARK    2  A    between atoms: O_3  and  C_9 
REMARK    3  A    between atoms: O_4  and  C_10 
REMARK    4  A    between atoms: O_5  and  C_11 
REMARK    5  A    between atoms: C_12  and  C_19 
REMARK    6  A    between atoms: C_14  and  C_21 
REMARK    7  A    between atoms: C_15  and  C_22 
REMARK    8  A    between atoms: C_21  and  C_26 
REMARK    9  A    between atoms: C_22  and  C_27 
ROOT
HETATM    1  C   UNK N   1      47.607  33.862  49.602  0.00  0.00     0.106 A 
HETATM    2  C   UNK N   1      47.752  34.279  48.272  0.00  0.00     0.100 A 
HETATM    3  C   UNK N   1      49.417  32.546  47.883  0.00  0.00    -0.018 A 
HETATM    4  C   UNK N   1      48.369  32.777  50.098  0.00  0.00    -0.012 A 
HETATM    5  C   UNK N   1      49.291  32.111  49.235  0.00  0.00    -0.036 A 
HETATM    6  C   UNK N   1      48.647  33.628  47.429  0.00  0.00     0.049 A 
ENDROOT
BRANCH   3   7
HETATM    7  C   UNK N   1      50.366  31.872  46.907  0.00  0.00     0.169 C 
HETATM    8  O   UNK N   1      49.820  31.845  45.629  0.00  0.00    -0.340 OA
HETATM    9  C   UNK N   1      50.529  31.394  44.563  0.00  0.00     0.089 A 
HETATM   10  C   UNK N   1      51.937  31.354  44.618  0.00  0.00     0.076 A 
HETATM   11  C   UNK N   1      49.855  30.954  43.423  0.00  0.00     0.074 A 
HETATM   12  C   UNK N   1      52.662  30.818  43.534  0.00  0.00     0.085 A 
HETATM   13  C   UNK N   1      52.591  31.889  45.843  0.00  0.00     0.167 C 
HETATM   14  C   UNK N   1      51.969  30.357  42.401  0.00  0.00     0.074 A 
HETATM   15  C   UNK N   1      50.570  30.433  42.343  0.00  0.00     0.071 A 
HETATM   16  O   UNK N   1      53.797  31.800  46.014  0.00  0.00    -0.292 OA
HETATM   17  C   UNK N   1      51.732  32.578  46.870  0.00  0.00     0.121 C 
BRANCH  12  18
HETATM   18  O   UNK N   1      54.008  30.746  43.578  0.00  0.00    -0.360 OA
HETATM   19  H   UNK N   1      54.564  31.538  43.547  0.00  0.00     0.217 HD
ENDBRANCH  12  18
BRANCH  15  20
HETATM   20  O   UNK N   1      49.902  29.997  41.254  0.00  0.00    -0.361 OA
HETATM   21  H   UNK N   1      49.159  30.491  40.882  0.00  0.00     0.217 HD
ENDBRANCH  15  20
ENDBRANCH   3   7
BRANCH   5  22
HETATM   22  C   UNK N   1      50.131  30.947  49.741  0.00  0.00     0.067 C 
BRANCH  22  23
HETATM   23  C   UNK N   1      51.406  31.429  50.400  0.00  0.00    -0.020 C 
HETATM   24  C   UNK N   1      52.658  30.993  50.099  0.00  0.00    -0.091 C 
HETATM   25  C   UNK N   1      53.839  31.582  50.827  0.00  0.00     0.042 C 
HETATM   26  C   UNK N   1      52.959  29.933  49.063  0.00  0.00     0.042 C 
ENDBRANCH  22  23
ENDBRANCH   5  22
BRANCH   4  27
HETATM   27  C   UNK N   1      48.186  32.354  51.547  0.00  0.00     0.069 C 
BRANCH  27  28
HETATM   28  C   UNK N   1      49.046  33.210  52.448  0.00  0.00    -0.020 C 
HETATM   29  C   UNK N   1      48.611  34.046  53.427  0.00  0.00    -0.091 C 
HETATM   30  C   UNK N   1      49.624  34.819  54.233  0.00  0.00     0.042 C 
HETATM   31  C   UNK N   1      47.157  34.269  53.777  0.00  0.00     0.042 C 
ENDBRANCH  27  28
ENDBRANCH   4  27
BRANCH   2  32
HETATM   32  O   UNK N   1      47.022  35.315  47.805  0.00  0.00    -0.358 OA
HETATM   33  H   UNK N   1      47.323  36.231  47.886  0.00  0.00     0.218 HD
ENDBRANCH   2  32
BRANCH   1  34
HETATM   34  O   UNK N   1      46.740  34.502  50.421  0.00  0.00    -0.357 OA
HETATM   35  H   UNK N   1      46.749  35.462  50.540  0.00  0.00     0.218 HD
ENDBRANCH   1  34
TORSDOF 9
ENDMDL
MODEL 7
REMARK VINA RESULT:      -5.0      1.814      2.283
REMARK  9 active torsions:
REMARK  status: ('A' for Active; 'I' for Inactive)
REMARK    1  A    between atoms: O_2  and  C_8 
REMARK    2  A    between atoms: O_3  and  C_9 
REMARK    3  A    between atoms: O_4  and  C_10 
REMARK    4  A    between atoms: O_5  and  C_11 
REMARK    5  A    between atoms: C_12  and  C_19 
REMARK    6  A    between atoms: C_14  and  C_21 
REMARK    7  A    between atoms: C_15  and  C_22 
REMARK    8  A    between atoms: C_21  and  C_26 
REMARK    9  A    between atoms: C_22  and  C_27 
ROOT
HETATM    1  C   UNK N   1      32.460  43.595  58.428  0.00  0.00     0.106 A 
HETATM    2  C   UNK N   1      31.927  44.365  57.386  0.00  0.00     0.100 A 
HETATM    3  C   UNK N   1      30.439  45.496  58.948  0.00  0.00    -0.018 A 
HETATM    4  C   UNK N   1      31.988  43.761  59.753  0.00  0.00    -0.012 A 
HETATM    5  C   UNK N   1      30.962  44.716  60.021  0.00  0.00    -0.036 A 
HETATM    6  C   UNK N   1      30.929  45.300  57.647  0.00  0.00     0.049 A 
ENDROOT
BRANCH   3   7
HETATM    7  C   UNK N   1      29.359  46.541  59.165  0.00  0.00     0.169 C 
HETATM    8  O   UNK N   1      29.783  47.786  58.716  0.00  0.00    -0.340 OA
HETATM    9  C   UNK N   1      28.948  48.857  58.700  0.00  0.00     0.089 A 
HETATM   10  C   UNK N   1      27.552  48.663  58.715  0.00  0.00     0.076 A 
HETATM   11  C   UNK N   1      29.482  50.146  58.690  0.00  0.00     0.074 A 
HETATM   12  C   UNK N   1      26.694  49.781  58.771  0.00  0.00     0.085 A 
HETATM   13  C   UNK N   1      27.053  47.262  58.672  0.00  0.00     0.167 C 
HETATM   14  C   UNK N   1      27.245  51.074  58.782  0.00  0.00     0.074 A 
HETATM   15  C   UNK N   1      28.635  51.256  58.733  0.00  0.00     0.071 A 
HETATM   16  O   UNK N   1      25.865  47.003  58.783  0.00  0.00    -0.292 OA
HETATM   17  C   UNK N   1      28.050  46.154  58.457  0.00  0.00     0.121 C 
BRANCH  12  18
HETATM   18  O   UNK N   1      25.356  49.617  58.812  0.00  0.00    -0.360 OA
HETATM   19  H   UNK N   1      24.838  49.837  59.601  0.00  0.00     0.217 HD
ENDBRANCH  12  18
BRANCH  15  20
HETATM   20  O   UNK N   1      29.167  52.496  58.738  0.00  0.00    -0.361 OA
HETATM   21  H   UNK N   1      28.771  53.217  59.247  0.00  0.00     0.217 HD
ENDBRANCH  15  20
ENDBRANCH   3   7
BRANCH   5  22
HETATM   22  C   UNK N   1      30.428  44.911  61.432  0.00  0.00     0.067 C 
BRANCH  22  23
HETATM   23  C   UNK N   1      29.297  43.951  61.736  0.00  0.00    -0.020 C 
HETATM   24  C   UNK N   1      28.900  43.575  62.980  0.00  0.00    -0.091 C 
HETATM   25  C   UNK N   1      27.739  42.625  63.128  0.00  0.00     0.042 C 
HETATM   26  C   UNK N   1      29.554  44.051  64.258  0.00  0.00     0.042 C 
ENDBRANCH  22  23
ENDBRANCH   5  22
BRANCH   4  27
HETATM   27  C   UNK N   1      32.589  42.906  60.857  0.00  0.00     0.069 C 
BRANCH  27  28
HETATM   28  C   UNK N   1      33.907  43.495  61.308  0.00  0.00    -0.020 C 
HETATM   29  C   UNK N   1      34.172  44.055  62.517  0.00  0.00    -0.091 C 
HETATM   30  C   UNK N   1      35.557  44.587  62.790  0.00  0.00     0.042 C 
HETATM   31  C   UNK N   1      33.163  44.194  63.635  0.00  0.00     0.042 C 
ENDBRANCH  27  28
ENDBRANCH   4  27
BRANCH   2  32
HETATM   32  O   UNK N   1      32.381  44.203  56.124  0.00  0.00    -0.358 OA
HETATM   33  H   UNK N   1      32.259  44.882  55.445  0.00  0.00     0.218 HD
ENDBRANCH   2  32
BRANCH   1  34
HETATM   34  O   UNK N   1      33.425  42.683  58.169  0.00  0.00    -0.357 OA
HETATM   35  H   UNK N   1      33.296  41.734  58.307  0.00  0.00     0.218 HD
ENDBRANCH   1  34
TORSDOF 9
ENDMDL
MODEL 8
REMARK VINA RESULT:      -4.8      4.568      8.595
REMARK  9 active torsions:
REMARK  status: ('A' for Active; 'I' for Inactive)
REMARK    1  A    between atoms: O_2  and  C_8 
REMARK    2  A    between atoms: O_3  and  C_9 
REMARK    3  A    between atoms: O_4  and  C_10 
REMARK    4  A    between atoms: O_5  and  C_11 
REMARK    5  A    between atoms: C_12  and  C_19 
REMARK    6  A    between atoms: C_14  and  C_21 
REMARK    7  A    between atoms: C_15  and  C_22 
REMARK    8  A    between atoms: C_21  and  C_26 
REMARK    9  A    between atoms: C_22  and  C_27 
ROOT
HETATM    1  C   UNK N   1      33.093  42.664  60.438  0.00  0.00     0.106 A 
HETATM    2  C   UNK N   1      34.360  42.993  59.937  0.00  0.00     0.100 A 
HETATM    3  C   UNK N   1      34.833  44.311  61.929  0.00  0.00    -0.018 A 
HETATM    4  C   UNK N   1      32.672  43.156  61.697  0.00  0.00    -0.012 A 
HETATM    5  C   UNK N   1      33.545  43.995  62.453  0.00  0.00    -0.036 A 
HETATM    6  C   UNK N   1      35.214  43.808  60.676  0.00  0.00     0.049 A 
ENDROOT
BRANCH   3   7
HETATM    7  C   UNK N   1      35.817  45.184  62.689  0.00  0.00     0.169 C 
HETATM    8  O   UNK N   1      36.680  44.403  63.449  0.00  0.00    -0.340 OA
HETATM    9  C   UNK N   1      37.721  44.951  64.127  0.00  0.00     0.089 A 
HETATM   10  C   UNK N   1      38.222  46.214  63.751  0.00  0.00     0.076 A 
HETATM   11  C   UNK N   1      38.276  44.265  65.208  0.00  0.00     0.074 A 
HETATM   12  C   UNK N   1      39.256  46.806  64.505  0.00  0.00     0.085 A 
HETATM   13  C   UNK N   1      37.618  46.863  62.556  0.00  0.00     0.167 C 
HETATM   14  C   UNK N   1      39.792  46.114  65.605  0.00  0.00     0.074 A 
HETATM   15  C   UNK N   1      39.309  44.843  65.950  0.00  0.00     0.071 A 
HETATM   16  O   UNK N   1      37.923  47.998  62.223  0.00  0.00    -0.292 OA
HETATM   17  C   UNK N   1      36.631  46.076  61.736  0.00  0.00     0.121 C 
BRANCH  12  18
HETATM   18  O   UNK N   1      39.731  48.026  64.178  0.00  0.00    -0.360 OA
HETATM   19  H   UNK N   1      39.220  48.645  63.638  0.00  0.00     0.217 HD
ENDBRANCH  12  18
BRANCH  15  20
HETATM   20  O   UNK N   1      39.824  44.174  67.002  0.00  0.00    -0.361 OA
HETATM   21  H   UNK N   1      39.776  43.210  67.065  0.00  0.00     0.217 HD
ENDBRANCH  15  20
ENDBRANCH   3   7
BRANCH   5  22
HETATM   22  C   UNK N   1      33.118  44.547  63.805  0.00  0.00     0.067 C 
BRANCH  22  23
HETATM   23  C   UNK N   1      32.489  45.917  63.672  0.00  0.00    -0.020 C 
HETATM   24  C   UNK N   1      32.974  47.060  64.224  0.00  0.00    -0.091 C 
HETATM   25  C   UNK N   1      32.249  48.360  63.986  0.00  0.00     0.042 C 
HETATM   26  C   UNK N   1      34.218  47.124  65.083  0.00  0.00     0.042 C 
ENDBRANCH  22  23
ENDBRANCH   5  22
BRANCH   4  27
HETATM   27  C   UNK N   1      31.290  42.779  62.207  0.00  0.00     0.069 C 
BRANCH  27  28
HETATM   28  C   UNK N   1      30.258  43.741  61.663  0.00  0.00    -0.020 C 
HETATM   29  C   UNK N   1      29.164  43.421  60.924  0.00  0.00    -0.091 C 
HETATM   30  C   UNK N   1      28.237  44.523  60.474  0.00  0.00     0.042 C 
HETATM   31  C   UNK N   1      28.795  42.016  60.505  0.00  0.00     0.042 C 
ENDBRANCH  27  28
ENDBRANCH   4  27
BRANCH   2  32
HETATM   32  O   UNK N   1      34.756  42.520  58.736  0.00  0.00    -0.358 OA
HETATM   33  H   UNK N   1      35.047  41.605  58.617  0.00  0.00     0.218 HD
ENDBRANCH   2  32
BRANCH   1  34
HETATM   34  O   UNK N   1      32.264  41.877  59.714  0.00  0.00    -0.357 OA
HETATM   35  H   UNK N   1      32.588  41.190  59.115  0.00  0.00     0.218 HD
ENDBRANCH   1  34
TORSDOF 9
ENDMDL
MODEL 9
REMARK VINA RESULT:      -4.8     14.195     16.731
REMARK  9 active torsions:
REMARK  status: ('A' for Active; 'I' for Inactive)
REMARK    1  A    between atoms: O_2  and  C_8 
REMARK    2  A    between atoms: O_3  and  C_9 
REMARK    3  A    between atoms: O_4  and  C_10 
REMARK    4  A    between atoms: O_5  and  C_11 
REMARK    5  A    between atoms: C_12  and  C_19 
REMARK    6  A    between atoms: C_14  and  C_21 
REMARK    7  A    between atoms: C_15  and  C_22 
REMARK    8  A    between atoms: C_21  and  C_26 
REMARK    9  A    between atoms: C_22  and  C_27 
ROOT
HETATM    1  C   UNK N   1      42.202  46.208  49.700  0.00  0.00     0.106 A 
HETATM    2  C   UNK N   1      42.376  47.541  49.302  0.00  0.00     0.100 A 
HETATM    3  C   UNK N   1      41.197  47.098  47.218  0.00  0.00    -0.018 A 
HETATM    4  C   UNK N   1      41.523  45.294  48.860  0.00  0.00    -0.012 A 
HETATM    5  C   UNK N   1      41.017  45.736  47.600  0.00  0.00    -0.036 A 
HETATM    6  C   UNK N   1      41.879  47.974  48.076  0.00  0.00     0.049 A 
ENDROOT
BRANCH   3   7
HETATM    7  C   UNK N   1      40.670  47.639  45.899  0.00  0.00     0.169 C 
HETATM    8  O   UNK N   1      39.303  47.413  45.787  0.00  0.00    -0.340 OA
HETATM    9  C   UNK N   1      38.585  47.908  44.746  0.00  0.00     0.089 A 
HETATM   10  C   UNK N   1      39.080  48.998  44.003  0.00  0.00     0.076 A 
HETATM   11  C   UNK N   1      37.367  47.317  44.407  0.00  0.00     0.074 A 
HETATM   12  C   UNK N   1      38.362  49.458  42.880  0.00  0.00     0.085 A 
HETATM   13  C   UNK N   1      40.358  49.612  44.453  0.00  0.00     0.167 C 
HETATM   14  C   UNK N   1      37.147  48.840  42.536  0.00  0.00     0.074 A 
HETATM   15  C   UNK N   1      36.647  47.778  43.303  0.00  0.00     0.071 A 
HETATM   16  O   UNK N   1      40.906  50.492  43.808  0.00  0.00    -0.292 OA
HETATM   17  C   UNK N   1      40.959  49.142  45.752  0.00  0.00     0.121 C 
BRANCH  12  18
HETATM   18  O   UNK N   1      38.831  50.483  42.139  0.00  0.00    -0.360 OA
HETATM   19  H   UNK N   1      39.636  50.403  41.607  0.00  0.00     0.217 HD
ENDBRANCH  12  18
BRANCH  15  20
HETATM   20  O   UNK N   1      35.479  47.186  42.979  0.00  0.00    -0.361 OA
HETATM   21  H   UNK N   1      34.666  47.696  42.859  0.00  0.00     0.217 HD
ENDBRANCH  15  20
ENDBRANCH   3   7
BRANCH   5  22
HETATM   22  C   UNK N   1      40.290  44.776  46.671  0.00  0.00     0.067 C 
BRANCH  22  23
HETATM   23  C   UNK N   1      41.159  43.590  46.308  0.00  0.00    -0.020 C 
HETATM   24  C   UNK N   1      41.943  43.501  45.202  0.00  0.00    -0.091 C 
HETATM   25  C   UNK N   1      42.774  42.263  44.984  0.00  0.00     0.042 C 
HETATM   26  C   UNK N   1      42.045  44.581  44.147  0.00  0.00     0.042 C 
ENDBRANCH  22  23
ENDBRANCH   5  22
BRANCH   4  27
HETATM   27  C   UNK N   1      41.355  43.856  49.325  0.00  0.00     0.069 C 
BRANCH  27  28
HETATM   28  C   UNK N   1      40.409  43.800  50.503  0.00  0.00    -0.020 C 
HETATM   29  C   UNK N   1      40.692  43.335  51.747  0.00  0.00    -0.091 C 
HETATM   30  C   UNK N   1      39.615  43.366  52.803  0.00  0.00     0.042 C 
HETATM   31  C   UNK N   1      42.032  42.773  52.165  0.00  0.00     0.042 C 
ENDBRANCH  27  28
ENDBRANCH   4  27
BRANCH   2  32
HETATM   32  O   UNK N   1      43.024  48.408  50.108  0.00  0.00    -0.358 OA
HETATM   33  H   UNK N   1      42.572  49.155  50.527  0.00  0.00     0.218 HD
ENDBRANCH   2  32
BRANCH   1  34
HETATM   34  O   UNK N   1      42.692  45.789  50.890  0.00  0.00    -0.357 OA
HETATM   35  H   UNK N   1      43.023  46.402  51.562  0.00  0.00     0.218 HD
ENDBRANCH   1  34
TORSDOF 9
ENDMDL
