MODEL 1
REMARK VINA RESULT:      -7.0      0.000      0.000
REMARK  7 active torsions:
REMARK  status: ('A' for Active; 'I' for Inactive)
REMARK    1  A    between atoms: O_2  and  C_8 
REMARK    2  A    between atoms: O_3  and  C_9 
REMARK    3  A    between atoms: O_4  and  C_10 
REMARK    4  A    between atoms: O_5  and  C_11 
REMARK    5  A    between atoms: C_12  and  C_19 
REMARK    6  A    between atoms: C_14  and  C_22 
REMARK    7  A    between atoms: C_22  and  C_25 
ROOT
HETATM    1  C   UNK N   1      31.580  49.669  41.826  0.00  0.00     0.102 A 
HETATM    2  C   UNK N   1      32.315  50.022  42.979  0.00  0.00     0.105 A 
HETATM    3  C   UNK N   1      31.028  52.019  41.470  0.00  0.00    -0.025 A 
HETATM    4  C   UNK N   1      32.402  51.375  43.375  0.00  0.00    -0.018 A 
HETATM    5  C   UNK N   1      30.937  50.678  41.083  0.00  0.00     0.049 A 
HETATM    6  C   UNK N   1      31.761  52.362  42.615  0.00  0.00     0.020 A 
ENDROOT
BRANCH   3   7
HETATM    7  C   UNK N   1      30.333  53.094  40.674  0.00  0.00     0.169 C 
HETATM    8  O   UNK N   1      30.347  54.306  41.353  0.00  0.00    -0.340 OA
HETATM    9  C   UNK N   1      29.860  55.439  40.783  0.00  0.00     0.089 A 
HETATM   10  C   UNK N   1      29.741  55.525  39.381  0.00  0.00     0.076 A 
HETATM   11  C   UNK N   1      29.459  56.504  41.593  0.00  0.00     0.074 A 
HETATM   12  C   UNK N   1      29.163  56.675  38.801  0.00  0.00     0.085 A 
HETATM   13  C   UNK N   1      30.244  54.378  38.575  0.00  0.00     0.167 C 
HETATM   14  C   UNK N   1      28.740  57.728  39.628  0.00  0.00     0.074 A 
HETATM   15  C   UNK N   1      28.896  57.648  41.020  0.00  0.00     0.071 A 
HETATM   16  O   UNK N   1      30.118  54.347  37.361  0.00  0.00    -0.292 OA
HETATM   17  C   UNK N   1      30.965  53.263  39.287  0.00  0.00     0.121 C 
BRANCH  12  18
HETATM   18  O   UNK N   1      29.014  56.765  37.463  0.00  0.00    -0.360 OA
HETATM   19  H   UNK N   1      28.322  57.311  37.063  0.00  0.00     0.217 HD
ENDBRANCH  12  18
BRANCH  15  20
HETATM   20  O   UNK N   1      28.496  58.660  41.816  0.00  0.00    -0.361 OA
HETATM   21  H   UNK N   1      29.033  58.961  42.563  0.00  0.00     0.217 HD
ENDBRANCH  15  20
ENDBRANCH   3   7
BRANCH   1  22
HETATM   22  O   UNK N   1      31.507  48.360  41.457  0.00  0.00    -0.353 OA
HETATM   23  C   UNK N   1      30.779  47.880  40.384  0.00  0.00     0.210 C 
ENDBRANCH   1  22
BRANCH   4  24
HETATM   24  C   UNK N   1      33.163  51.778  44.617  0.00  0.00     0.068 C 
BRANCH  24  25
HETATM   25  C   UNK N   1      33.656  53.204  44.499  0.00  0.00    -0.020 C 
HETATM   26  C   UNK N   1      33.002  54.320  44.913  0.00  0.00    -0.091 C 
HETATM   27  C   UNK N   1      33.656  55.666  44.719  0.00  0.00     0.042 C 
HETATM   28  C   UNK N   1      31.640  54.322  45.571  0.00  0.00     0.042 C 
ENDBRANCH  24  25
ENDBRANCH   4  24
BRANCH   2  29
HETATM   29  O   UNK N   1      32.941  49.071  43.708  0.00  0.00    -0.357 OA
HETATM   30  H   UNK N   1      33.277  49.237  44.600  0.00  0.00     0.218 HD
ENDBRANCH   2  29
TORSDOF 7
ENDMDL
MODEL 2
REMARK VINA RESULT:      -6.8      1.967      2.329
REMARK  7 active torsions:
REMARK  status: ('A' for Active; 'I' for Inactive)
REMARK    1  A    between atoms: O_2  and  C_8 
REMARK    2  A    between atoms: O_3  and  C_9 
REMARK    3  A    between atoms: O_4  and  C_10 
REMARK    4  A    between atoms: O_5  and  C_11 
REMARK    5  A    between atoms: C_12  and  C_19 
REMARK    6  A    between atoms: C_14  and  C_22 
REMARK    7  A    between atoms: C_22  and  C_25 
ROOT
HETATM    1  C   UNK N   1      31.461  50.395  41.249  0.00  0.00     0.102 A 
HETATM    2  C   UNK N   1      32.181  50.536  42.455  0.00  0.00     0.105 A 
HETATM    3  C   UNK N   1      30.700  52.705  41.445  0.00  0.00    -0.025 A 
HETATM    4  C   UNK N   1      32.158  51.763  43.154  0.00  0.00    -0.018 A 
HETATM    5  C   UNK N   1      30.719  51.487  40.757  0.00  0.00     0.049 A 
HETATM    6  C   UNK N   1      31.420  52.839  42.640  0.00  0.00     0.020 A 
ENDROOT
BRANCH   3   7
HETATM    7  C   UNK N   1      29.900  53.869  40.917  0.00  0.00     0.169 C 
HETATM    8  O   UNK N   1      28.578  53.799  41.337  0.00  0.00    -0.340 OA
HETATM    9  C   UNK N   1      27.696  54.794  41.058  0.00  0.00     0.089 A 
HETATM   10  C   UNK N   1      28.168  56.084  40.742  0.00  0.00     0.076 A 
HETATM   11  C   UNK N   1      26.325  54.525  41.066  0.00  0.00     0.074 A 
HETATM   12  C   UNK N   1      27.249  57.091  40.378  0.00  0.00     0.085 A 
HETATM   13  C   UNK N   1      29.638  56.315  40.811  0.00  0.00     0.167 C 
HETATM   14  C   UNK N   1      25.875  56.801  40.364  0.00  0.00     0.074 A 
HETATM   15  C   UNK N   1      25.413  55.525  40.717  0.00  0.00     0.071 A 
HETATM   16  O   UNK N   1      30.131  57.385  40.489  0.00  0.00    -0.292 OA
HETATM   17  C   UNK N   1      30.514  55.210  41.340  0.00  0.00     0.121 C 
BRANCH  12  18
HETATM   18  O   UNK N   1      27.683  58.324  40.043  0.00  0.00    -0.360 OA
HETATM   19  H   UNK N   1      28.018  58.523  39.157  0.00  0.00     0.217 HD
ENDBRANCH  12  18
BRANCH  15  20
HETATM   20  O   UNK N   1      24.094  55.245  40.711  0.00  0.00    -0.361 OA
HETATM   21  H   UNK N   1      23.457  55.810  40.248  0.00  0.00     0.217 HD
ENDBRANCH  15  20
ENDBRANCH   3   7
BRANCH   1  22
HETATM   22  O   UNK N   1      31.495  49.206  40.588  0.00  0.00    -0.353 OA
HETATM   23  C   UNK N   1      30.541  48.211  40.698  0.00  0.00     0.210 C 
ENDBRANCH   1  22
BRANCH   4  24
HETATM   24  C   UNK N   1      32.902  51.935  44.458  0.00  0.00     0.068 C 
BRANCH  24  25
HETATM   25  C   UNK N   1      33.618  53.267  44.490  0.00  0.00    -0.020 C 
HETATM   26  C   UNK N   1      33.127  54.437  44.976  0.00  0.00    -0.091 C 
HETATM   27  C   UNK N   1      33.995  55.670  44.931  0.00  0.00     0.042 C 
HETATM   28  C   UNK N   1      31.749  54.605  45.576  0.00  0.00     0.042 C 
ENDBRANCH  24  25
ENDBRANCH   4  24
BRANCH   2  29
HETATM   29  O   UNK N   1      32.900  49.502  42.947  0.00  0.00    -0.357 OA
HETATM   30  H   UNK N   1      33.679  49.149  42.495  0.00  0.00     0.218 HD
ENDBRANCH   2  29
TORSDOF 7
ENDMDL
MODEL 3
REMARK VINA RESULT:      -6.8      2.538      3.847
REMARK  7 active torsions:
REMARK  status: ('A' for Active; 'I' for Inactive)
REMARK    1  A    between atoms: O_2  and  C_8 
REMARK    2  A    between atoms: O_3  and  C_9 
REMARK    3  A    between atoms: O_4  and  C_10 
REMARK    4  A    between atoms: O_5  and  C_11 
REMARK    5  A    between atoms: C_12  and  C_19 
REMARK    6  A    between atoms: C_14  and  C_22 
REMARK    7  A    between atoms: C_22  and  C_25 
ROOT
HETATM    1  C   UNK N   1      32.253  52.440  44.100  0.00  0.00     0.102 A 
HETATM    2  C   UNK N   1      33.241  53.258  44.689  0.00  0.00     0.105 A 
HETATM    3  C   UNK N   1      31.344  54.388  42.945  0.00  0.00    -0.025 A 
HETATM    4  C   UNK N   1      33.277  54.641  44.405  0.00  0.00    -0.018 A 
HETATM    5  C   UNK N   1      31.306  53.019  43.233  0.00  0.00     0.049 A 
HETATM    6  C   UNK N   1      32.330  55.193  43.532  0.00  0.00     0.020 A 
ENDROOT
BRANCH   3   7
HETATM    7  C   UNK N   1      30.325  55.004  42.020  0.00  0.00     0.169 C 
HETATM    8  O   UNK N   1      29.134  54.290  42.043  0.00  0.00    -0.340 OA
HETATM    9  C   UNK N   1      28.042  54.719  41.357  0.00  0.00     0.089 A 
HETATM   10  C   UNK N   1      27.936  56.073  40.980  0.00  0.00     0.076 A 
HETATM   11  C   UNK N   1      27.041  53.808  41.011  0.00  0.00     0.074 A 
HETATM   12  C   UNK N   1      26.837  56.494  40.202  0.00  0.00     0.085 A 
HETATM   13  C   UNK N   1      29.009  57.001  41.434  0.00  0.00     0.167 C 
HETATM   14  C   UNK N   1      25.850  55.564  39.837  0.00  0.00     0.074 A 
HETATM   15  C   UNK N   1      25.946  54.226  40.248  0.00  0.00     0.071 A 
HETATM   16  O   UNK N   1      29.024  58.174  41.095  0.00  0.00    -0.292 OA
HETATM   17  C   UNK N   1      30.063  56.474  42.373  0.00  0.00     0.121 C 
BRANCH  12  18
HETATM   18  O   UNK N   1      26.732  57.780  39.805  0.00  0.00    -0.360 OA
HETATM   19  H   UNK N   1      26.529  58.491  40.430  0.00  0.00     0.217 HD
ENDBRANCH  12  18
BRANCH  15  20
HETATM   20  O   UNK N   1      24.997  53.332  39.906  0.00  0.00    -0.361 OA
HETATM   21  H   UNK N   1      25.197  52.569  39.343  0.00  0.00     0.217 HD
ENDBRANCH  15  20
ENDBRANCH   3   7
BRANCH   1  22
HETATM   22  O   UNK N   1      32.232  51.109  44.384  0.00  0.00    -0.353 OA
HETATM   23  C   UNK N   1      32.709  50.114  43.551  0.00  0.00     0.210 C 
ENDBRANCH   1  22
BRANCH   4  24
HETATM   24  C   UNK N   1      34.311  55.543  45.040  0.00  0.00     0.068 C 
BRANCH  24  25
HETATM   25  C   UNK N   1      33.660  56.477  46.036  0.00  0.00    -0.020 C 
HETATM   26  C   UNK N   1      34.197  56.909  47.208  0.00  0.00    -0.091 C 
HETATM   27  C   UNK N   1      33.399  57.852  48.074  0.00  0.00     0.042 C 
HETATM   28  C   UNK N   1      35.562  56.513  47.723  0.00  0.00     0.042 C 
ENDBRANCH  24  25
ENDBRANCH   4  24
BRANCH   2  29
HETATM   29  O   UNK N   1      34.160  52.724  45.525  0.00  0.00    -0.357 OA
HETATM   30  H   UNK N   1      34.540  53.219  46.265  0.00  0.00     0.218 HD
ENDBRANCH   2  29
TORSDOF 7
ENDMDL
MODEL 4
REMARK VINA RESULT:      -6.4      2.351      3.775
REMARK  7 active torsions:
REMARK  status: ('A' for Active; 'I' for Inactive)
REMARK    1  A    between atoms: O_2  and  C_8 
REMARK    2  A    between atoms: O_3  and  C_9 
REMARK    3  A    between atoms: O_4  and  C_10 
REMARK    4  A    between atoms: O_5  and  C_11 
REMARK    5  A    between atoms: C_12  and  C_19 
REMARK    6  A    between atoms: C_14  and  C_22 
REMARK    7  A    between atoms: C_22  and  C_25 
ROOT
HETATM    1  C   UNK N   1      32.076  52.821  43.999  0.00  0.00     0.102 A 
HETATM    2  C   UNK N   1      33.150  53.510  44.603  0.00  0.00     0.105 A 
HETATM    3  C   UNK N   1      31.068  54.956  43.382  0.00  0.00    -0.025 A 
HETATM    4  C   UNK N   1      33.180  54.922  44.596  0.00  0.00    -0.018 A 
HETATM    5  C   UNK N   1      31.038  53.558  43.396  0.00  0.00     0.049 A 
HETATM    6  C   UNK N   1      32.139  55.633  43.981  0.00  0.00     0.020 A 
ENDROOT
BRANCH   3   7
HETATM    7  C   UNK N   1      29.952  55.740  42.739  0.00  0.00     0.169 C 
HETATM    8  O   UNK N   1      30.304  56.155  41.461  0.00  0.00    -0.340 OA
HETATM    9  C   UNK N   1      29.415  56.797  40.658  0.00  0.00     0.089 A 
HETATM   10  C   UNK N   1      28.032  56.673  40.901  0.00  0.00     0.076 A 
HETATM   11  C   UNK N   1      29.880  57.594  39.610  0.00  0.00     0.074 A 
HETATM   12  C   UNK N   1      27.119  57.403  40.111  0.00  0.00     0.085 A 
HETATM   13  C   UNK N   1      27.604  55.759  41.997  0.00  0.00     0.167 C 
HETATM   14  C   UNK N   1      27.600  58.222  39.077  0.00  0.00     0.074 A 
HETATM   15  C   UNK N   1      28.976  58.310  38.820  0.00  0.00     0.071 A 
HETATM   16  O   UNK N   1      26.430  55.648  42.313  0.00  0.00    -0.292 OA
HETATM   17  C   UNK N   1      28.653  54.926  42.687  0.00  0.00     0.121 C 
BRANCH  12  18
HETATM   18  O   UNK N   1      25.793  57.321  40.347  0.00  0.00    -0.360 OA
HETATM   19  H   UNK N   1      25.277  56.543  40.091  0.00  0.00     0.217 HD
ENDBRANCH  12  18
BRANCH  15  20
HETATM   20  O   UNK N   1      29.441  59.090  37.823  0.00  0.00    -0.361 OA
HETATM   21  H   UNK N   1      30.129  59.754  37.976  0.00  0.00     0.217 HD
ENDBRANCH  15  20
ENDBRANCH   3   7
BRANCH   1  22
HETATM   22  O   UNK N   1      32.064  51.460  44.014  0.00  0.00    -0.353 OA
HETATM   23  C   UNK N   1      32.287  50.654  42.913  0.00  0.00     0.210 C 
ENDBRANCH   1  22
BRANCH   4  24
HETATM   24  C   UNK N   1      34.306  55.684  45.255  0.00  0.00     0.068 C 
BRANCH  24  25
HETATM   25  C   UNK N   1      33.758  56.715  46.217  0.00  0.00    -0.020 C 
HETATM   26  C   UNK N   1      34.296  57.068  47.414  0.00  0.00    -0.091 C 
HETATM   27  C   UNK N   1      33.610  58.129  48.240  0.00  0.00     0.042 C 
HETATM   28  C   UNK N   1      35.556  56.471  47.998  0.00  0.00     0.042 C 
ENDBRANCH  24  25
ENDBRANCH   4  24
BRANCH   2  29
HETATM   29  O   UNK N   1      34.158  52.824  45.188  0.00  0.00    -0.357 OA
HETATM   30  H   UNK N   1      34.065  52.398  46.052  0.00  0.00     0.218 HD
ENDBRANCH   2  29
TORSDOF 7
ENDMDL
MODEL 5
REMARK VINA RESULT:      -6.0      2.252      3.897
REMARK  7 active torsions:
REMARK  status: ('A' for Active; 'I' for Inactive)
REMARK    1  A    between atoms: O_2  and  C_8 
REMARK    2  A    between atoms: O_3  and  C_9 
REMARK    3  A    between atoms: O_4  and  C_10 
REMARK    4  A    between atoms: O_5  and  C_11 
REMARK    5  A    between atoms: C_12  and  C_19 
REMARK    6  A    between atoms: C_14  and  C_22 
REMARK    7  A    between atoms: C_22  and  C_25 
ROOT
HETATM    1  C   UNK N   1      30.731  53.208  41.512  0.00  0.00     0.102 A 
HETATM    2  C   UNK N   1      31.280  53.013  42.798  0.00  0.00     0.105 A 
HETATM    3  C   UNK N   1      29.985  55.434  42.178  0.00  0.00    -0.025 A 
HETATM    4  C   UNK N   1      31.179  54.031  43.772  0.00  0.00    -0.018 A 
HETATM    5  C   UNK N   1      30.081  54.422  41.217  0.00  0.00     0.049 A 
HETATM    6  C   UNK N   1      30.535  55.235  43.452  0.00  0.00     0.020 A 
ENDROOT
BRANCH   3   7
HETATM    7  C   UNK N   1      29.284  56.730  41.858  0.00  0.00     0.169 C 
HETATM    8  O   UNK N   1      29.557  57.138  40.558  0.00  0.00    -0.340 OA
HETATM    9  C   UNK N   1      28.954  58.231  40.022  0.00  0.00     0.089 A 
HETATM   10  C   UNK N   1      27.749  58.711  40.573  0.00  0.00     0.076 A 
HETATM   11  C   UNK N   1      29.548  58.886  38.940  0.00  0.00     0.074 A 
HETATM   12  C   UNK N   1      27.171  59.892  40.060  0.00  0.00     0.085 A 
HETATM   13  C   UNK N   1      27.141  57.930  41.686  0.00  0.00     0.167 C 
HETATM   14  C   UNK N   1      27.791  60.556  38.989  0.00  0.00     0.074 A 
HETATM   15  C   UNK N   1      28.971  60.050  38.424  0.00  0.00     0.071 A 
HETATM   16  O   UNK N   1      26.134  58.314  42.259  0.00  0.00    -0.292 OA
HETATM   17  C   UNK N   1      27.769  56.613  42.065  0.00  0.00     0.121 C 
BRANCH  12  18
HETATM   18  O   UNK N   1      26.034  60.384  40.593  0.00  0.00    -0.360 OA
HETATM   19  H   UNK N   1      25.790  60.221  41.515  0.00  0.00     0.217 HD
ENDBRANCH  12  18
BRANCH  15  20
HETATM   20  O   UNK N   1      29.565  60.682  37.392  0.00  0.00    -0.361 OA
HETATM   21  H   UNK N   1      30.275  60.266  36.882  0.00  0.00     0.217 HD
ENDBRANCH  15  20
ENDBRANCH   3   7
BRANCH   1  22
HETATM   22  O   UNK N   1      30.837  52.217  40.585  0.00  0.00    -0.353 OA
HETATM   23  C   UNK N   1      29.831  51.328  40.256  0.00  0.00     0.210 C 
ENDBRANCH   1  22
BRANCH   4  24
HETATM   24  C   UNK N   1      31.739  53.841  45.163  0.00  0.00     0.068 C 
BRANCH  24  25
HETATM   25  C   UNK N   1      32.470  55.085  45.616  0.00  0.00    -0.020 C 
HETATM   26  C   UNK N   1      33.646  55.555  45.124  0.00  0.00    -0.091 C 
HETATM   27  C   UNK N   1      34.224  56.825  45.697  0.00  0.00     0.042 C 
HETATM   28  C   UNK N   1      34.439  54.893  44.020  0.00  0.00     0.042 C 
ENDBRANCH  24  25
ENDBRANCH   4  24
BRANCH   2  29
HETATM   29  O   UNK N   1      31.908  51.856  43.105  0.00  0.00    -0.357 OA
HETATM   30  H   UNK N   1      32.865  51.743  43.012  0.00  0.00     0.218 HD
ENDBRANCH   2  29
TORSDOF 7
ENDMDL
MODEL 6
REMARK VINA RESULT:      -5.9     15.320     18.007
REMARK  7 active torsions:
REMARK  status: ('A' for Active; 'I' for Inactive)
REMARK    1  A    between atoms: O_2  and  C_8 
REMARK    2  A    between atoms: O_3  and  C_9 
REMARK    3  A    between atoms: O_4  and  C_10 
REMARK    4  A    between atoms: O_5  and  C_11 
REMARK    5  A    between atoms: C_12  and  C_19 
REMARK    6  A    between atoms: C_14  and  C_22 
REMARK    7  A    between atoms: C_22  and  C_25 
ROOT
HETATM    1  C   UNK N   1      29.783  40.641  58.251  0.00  0.00     0.102 A 
HETATM    2  C   UNK N   1      30.694  41.657  58.611  0.00  0.00     0.105 A 
HETATM    3  C   UNK N   1      29.359  41.783  56.136  0.00  0.00    -0.025 A 
HETATM    4  C   UNK N   1      30.934  42.736  57.732  0.00  0.00    -0.018 A 
HETATM    5  C   UNK N   1      29.118  40.718  57.012  0.00  0.00     0.049 A 
HETATM    6  C   UNK N   1      30.267  42.787  56.500  0.00  0.00     0.020 A 
ENDROOT
BRANCH   3   7
HETATM    7  C   UNK N   1      28.641  41.864  54.813  0.00  0.00     0.169 C 
HETATM    8  O   UNK N   1      27.570  42.747  54.880  0.00  0.00    -0.340 OA
HETATM    9  C   UNK N   1      26.837  43.049  53.776  0.00  0.00     0.089 A 
HETATM   10  C   UNK N   1      27.382  42.844  52.492  0.00  0.00     0.076 A 
HETATM   11  C   UNK N   1      25.538  43.542  53.923  0.00  0.00     0.074 A 
HETATM   12  C   UNK N   1      26.586  43.087  51.353  0.00  0.00     0.085 A 
HETATM   13  C   UNK N   1      28.793  42.374  52.410  0.00  0.00     0.167 C 
HETATM   14  C   UNK N   1      25.273  43.557  51.513  0.00  0.00     0.074 A 
HETATM   15  C   UNK N   1      24.753  43.793  52.795  0.00  0.00     0.071 A 
HETATM   16  O   UNK N   1      29.315  42.110  51.338  0.00  0.00    -0.292 OA
HETATM   17  C   UNK N   1      29.592  42.275  53.683  0.00  0.00     0.121 C 
BRANCH  12  18
HETATM   18  O   UNK N   1      27.079  42.869  50.116  0.00  0.00    -0.360 OA
HETATM   19  H   UNK N   1      28.031  42.838  49.944  0.00  0.00     0.217 HD
ENDBRANCH  12  18
BRANCH  15  20
HETATM   20  O   UNK N   1      23.494  44.251  52.952  0.00  0.00    -0.361 OA
HETATM   21  H   UNK N   1      23.263  44.870  53.660  0.00  0.00     0.217 HD
ENDBRANCH  15  20
ENDBRANCH   3   7
BRANCH   1  22
HETATM   22  O   UNK N   1      29.563  39.608  59.110  0.00  0.00    -0.353 OA
HETATM   23  C   UNK N   1      30.101  38.341  58.979  0.00  0.00     0.210 C 
ENDBRANCH   1  22
BRANCH   4  24
HETATM   24  C   UNK N   1      31.887  43.849  58.102  0.00  0.00     0.068 C 
BRANCH  24  25
HETATM   25  C   UNK N   1      31.393  45.173  57.562  0.00  0.00    -0.020 C 
HETATM   26  C   UNK N   1      30.668  46.102  58.240  0.00  0.00    -0.091 C 
HETATM   27  C   UNK N   1      30.269  47.375  57.535  0.00  0.00     0.042 C 
HETATM   28  C   UNK N   1      30.222  45.959  59.677  0.00  0.00     0.042 C 
ENDBRANCH  24  25
ENDBRANCH   4  24
BRANCH   2  29
HETATM   29  O   UNK N   1      31.344  41.604  59.795  0.00  0.00    -0.357 OA
HETATM   30  H   UNK N   1      30.999  41.118  60.557  0.00  0.00     0.218 HD
ENDBRANCH   2  29
TORSDOF 7
ENDMDL
MODEL 7
REMARK VINA RESULT:      -5.7     18.663     22.801
REMARK  7 active torsions:
REMARK  status: ('A' for Active; 'I' for Inactive)
REMARK    1  A    between atoms: O_2  and  C_8 
REMARK    2  A    between atoms: O_3  and  C_9 
REMARK    3  A    between atoms: O_4  and  C_10 
REMARK    4  A    between atoms: O_5  and  C_11 
REMARK    5  A    between atoms: C_12  and  C_19 
REMARK    6  A    between atoms: C_14  and  C_22 
REMARK    7  A    between atoms: C_22  and  C_25 
ROOT
HETATM    1  C   UNK N   1      30.864  41.162  59.805  0.00  0.00     0.102 A 
HETATM    2  C   UNK N   1      30.872  41.911  58.609  0.00  0.00     0.105 A 
HETATM    3  C   UNK N   1      32.534  42.670  60.750  0.00  0.00    -0.025 A 
HETATM    4  C   UNK N   1      31.713  43.039  58.486  0.00  0.00    -0.018 A 
HETATM    5  C   UNK N   1      31.705  41.550  60.867  0.00  0.00     0.049 A 
HETATM    6  C   UNK N   1      32.534  43.411  59.560  0.00  0.00     0.020 A 
ENDROOT
BRANCH   3   7
HETATM    7  C   UNK N   1      33.435  43.078  61.888  0.00  0.00     0.169 C 
HETATM    8  O   UNK N   1      34.508  43.831  61.429  0.00  0.00    -0.340 OA
HETATM    9  C   UNK N   1      35.399  44.387  62.292  0.00  0.00     0.089 A 
HETATM   10  C   UNK N   1      35.037  44.594  63.639  0.00  0.00     0.076 A 
HETATM   11  C   UNK N   1      36.676  44.728  61.842  0.00  0.00     0.074 A 
HETATM   12  C   UNK N   1      35.993  45.100  64.545  0.00  0.00     0.085 A 
HETATM   13  C   UNK N   1      33.641  44.264  64.036  0.00  0.00     0.167 C 
HETATM   14  C   UNK N   1      37.283  45.415  64.087  0.00  0.00     0.074 A 
HETATM   15  C   UNK N   1      37.621  45.239  62.737  0.00  0.00     0.071 A 
HETATM   16  O   UNK N   1      33.269  44.353  65.195  0.00  0.00    -0.292 OA
HETATM   17  C   UNK N   1      32.666  43.859  62.961  0.00  0.00     0.121 C 
BRANCH  12  18
HETATM   18  O   UNK N   1      35.676  45.278  65.845  0.00  0.00    -0.360 OA
HETATM   19  H   UNK N   1      35.847  46.115  66.301  0.00  0.00     0.217 HD
ENDBRANCH  12  18
BRANCH  15  20
HETATM   20  O   UNK N   1      38.856  45.547  62.292  0.00  0.00    -0.361 OA
HETATM   21  H   UNK N   1      39.648  45.356  62.817  0.00  0.00     0.217 HD
ENDBRANCH  15  20
ENDBRANCH   3   7
BRANCH   1  22
HETATM   22  O   UNK N   1      30.047  40.078  59.907  0.00  0.00    -0.353 OA
HETATM   23  C   UNK N   1      30.449  38.765  59.745  0.00  0.00     0.210 C 
ENDBRANCH   1  22
BRANCH   4  24
HETATM   24  C   UNK N   1      31.758  43.846  57.209  0.00  0.00     0.068 C 
BRANCH  24  25
HETATM   25  C   UNK N   1      31.505  45.310  57.496  0.00  0.00    -0.020 C 
HETATM   26  C   UNK N   1      30.315  45.872  57.836  0.00  0.00    -0.091 C 
HETATM   27  C   UNK N   1      30.255  47.357  58.095  0.00  0.00     0.042 C 
HETATM   28  C   UNK N   1      29.017  45.110  57.981  0.00  0.00     0.042 C 
ENDBRANCH  24  25
ENDBRANCH   4  24
BRANCH   2  29
HETATM   29  O   UNK N   1      30.074  41.558  57.576  0.00  0.00    -0.357 OA
HETATM   30  H   UNK N   1      29.854  40.637  57.380  0.00  0.00     0.218 HD
ENDBRANCH   2  29
TORSDOF 7
ENDMDL
MODEL 8
REMARK VINA RESULT:      -5.7     21.866     23.260
REMARK  7 active torsions:
REMARK  status: ('A' for Active; 'I' for Inactive)
REMARK    1  A    between atoms: O_2  and  C_8 
REMARK    2  A    between atoms: O_3  and  C_9 
REMARK    3  A    between atoms: O_4  and  C_10 
REMARK    4  A    between atoms: O_5  and  C_11 
REMARK    5  A    between atoms: C_12  and  C_19 
REMARK    6  A    between atoms: C_14  and  C_22 
REMARK    7  A    between atoms: C_22  and  C_25 
ROOT
HETATM    1  C   UNK N   1      38.107  47.510  63.590  0.00  0.00     0.102 A 
HETATM    2  C   UNK N   1      37.807  46.295  62.937  0.00  0.00     0.105 A 
HETATM    3  C   UNK N   1      35.723  48.018  63.720  0.00  0.00    -0.025 A 
HETATM    4  C   UNK N   1      36.463  45.945  62.674  0.00  0.00    -0.018 A 
HETATM    5  C   UNK N   1      37.055  48.365  63.972  0.00  0.00     0.049 A 
HETATM    6  C   UNK N   1      35.433  46.809  63.072  0.00  0.00     0.020 A 
ENDROOT
BRANCH   3   7
HETATM    7  C   UNK N   1      34.601  48.939  64.126  0.00  0.00     0.169 C 
HETATM    8  O   UNK N   1      34.730  50.181  63.517  0.00  0.00    -0.340 OA
HETATM    9  C   UNK N   1      33.778  51.140  63.664  0.00  0.00     0.089 A 
HETATM   10  C   UNK N   1      32.471  50.779  64.048  0.00  0.00     0.076 A 
HETATM   11  C   UNK N   1      34.110  52.480  63.455  0.00  0.00     0.074 A 
HETATM   12  C   UNK N   1      31.509  51.788  64.274  0.00  0.00     0.085 A 
HETATM   13  C   UNK N   1      32.171  49.328  64.195  0.00  0.00     0.167 C 
HETATM   14  C   UNK N   1      31.862  53.134  64.085  0.00  0.00     0.074 A 
HETATM   15  C   UNK N   1      33.156  53.480  63.668  0.00  0.00     0.071 A 
HETATM   16  O   UNK N   1      31.083  48.938  64.588  0.00  0.00    -0.292 OA
HETATM   17  C   UNK N   1      33.231  48.333  63.799  0.00  0.00     0.121 C 
BRANCH  12  18
HETATM   18  O   UNK N   1      30.261  51.465  64.670  0.00  0.00    -0.360 OA
HETATM   19  H   UNK N   1      29.989  51.525  65.598  0.00  0.00     0.217 HD
ENDBRANCH  12  18
BRANCH  15  20
HETATM   20  O   UNK N   1      33.495  54.771  63.480  0.00  0.00    -0.361 OA
HETATM   21  H   UNK N   1      32.998  55.493  63.893  0.00  0.00     0.217 HD
ENDBRANCH  15  20
ENDBRANCH   3   7
BRANCH   1  22
HETATM   22  O   UNK N   1      39.407  47.831  63.836  0.00  0.00    -0.353 OA
HETATM   23  C   UNK N   1      39.903  48.246  65.058  0.00  0.00     0.210 C 
ENDBRANCH   1  22
BRANCH   4  24
HETATM   24  C   UNK N   1      36.116  44.662  61.957  0.00  0.00     0.068 C 
BRANCH  24  25
HETATM   25  C   UNK N   1      34.714  44.218  62.313  0.00  0.00    -0.020 C 
HETATM   26  C   UNK N   1      33.871  43.497  61.527  0.00  0.00    -0.091 C 
HETATM   27  C   UNK N   1      32.505  43.137  62.057  0.00  0.00     0.042 C 
HETATM   28  C   UNK N   1      34.201  43.014  60.133  0.00  0.00     0.042 C 
ENDBRANCH  24  25
ENDBRANCH   4  24
BRANCH   2  29
HETATM   29  O   UNK N   1      38.799  45.458  62.561  0.00  0.00    -0.357 OA
HETATM   30  H   UNK N   1      38.745  44.499  62.681  0.00  0.00     0.218 HD
ENDBRANCH   2  29
TORSDOF 7
ENDMDL
MODEL 9
REMARK VINA RESULT:      -5.6     19.052     22.669
REMARK  7 active torsions:
REMARK  status: ('A' for Active; 'I' for Inactive)
REMARK    1  A    between atoms: O_2  and  C_8 
REMARK    2  A    between atoms: O_3  and  C_9 
REMARK    3  A    between atoms: O_4  and  C_10 
REMARK    4  A    between atoms: O_5  and  C_11 
REMARK    5  A    between atoms: C_12  and  C_19 
REMARK    6  A    between atoms: C_14  and  C_22 
REMARK    7  A    between atoms: C_22  and  C_25 
ROOT
HETATM    1  C   UNK N   1      32.512  43.678  65.172  0.00  0.00     0.102 A 
HETATM    2  C   UNK N   1      33.768  44.253  65.465  0.00  0.00     0.105 A 
HETATM    3  C   UNK N   1      33.107  43.608  62.807  0.00  0.00    -0.025 A 
HETATM    4  C   UNK N   1      34.690  44.505  64.426  0.00  0.00    -0.018 A 
HETATM    5  C   UNK N   1      32.192  43.365  63.837  0.00  0.00     0.049 A 
HETATM    6  C   UNK N   1      34.353  44.176  63.106  0.00  0.00     0.020 A 
ENDROOT
BRANCH   3   7
HETATM    7  C   UNK N   1      32.758  43.275  61.378  0.00  0.00     0.169 C 
HETATM    8  O   UNK N   1      31.779  44.132  60.891  0.00  0.00    -0.340 OA
HETATM    9  C   UNK N   1      31.377  44.077  59.594  0.00  0.00     0.089 A 
HETATM   10  C   UNK N   1      32.213  43.489  58.624  0.00  0.00     0.076 A 
HETATM   11  C   UNK N   1      30.127  44.587  59.237  0.00  0.00     0.074 A 
HETATM   12  C   UNK N   1      31.755  43.367  57.294  0.00  0.00     0.085 A 
HETATM   13  C   UNK N   1      33.556  43.021  59.063  0.00  0.00     0.167 C 
HETATM   14  C   UNK N   1      30.485  43.859  56.952  0.00  0.00     0.074 A 
HETATM   15  C   UNK N   1      29.677  44.476  57.918  0.00  0.00     0.071 A 
HETATM   16  O   UNK N   1      34.312  42.441  58.299  0.00  0.00    -0.292 OA
HETATM   17  C   UNK N   1      33.995  43.322  60.473  0.00  0.00     0.121 C 
BRANCH  12  18
HETATM   18  O   UNK N   1      32.527  42.780  56.356  0.00  0.00    -0.360 OA
HETATM   19  H   UNK N   1      32.252  41.969  55.903  0.00  0.00     0.217 HD
ENDBRANCH  12  18
BRANCH  15  20
HETATM   20  O   UNK N   1      28.460  44.956  57.590  0.00  0.00    -0.361 OA
HETATM   21  H   UNK N   1      28.193  45.861  57.812  0.00  0.00     0.217 HD
ENDBRANCH  15  20
ENDBRANCH   3   7
BRANCH   1  22
HETATM   22  O   UNK N   1      31.634  43.441  66.186  0.00  0.00    -0.353 OA
HETATM   23  C   UNK N   1      31.402  42.205  66.759  0.00  0.00     0.210 C 
ENDBRANCH   1  22
BRANCH   4  24
HETATM   24  C   UNK N   1      36.032  45.140  64.709  0.00  0.00     0.068 C 
BRANCH  24  25
HETATM   25  C   UNK N   1      36.278  46.302  63.772  0.00  0.00    -0.020 C 
HETATM   26  C   UNK N   1      37.220  46.365  62.795  0.00  0.00    -0.091 C 
HETATM   27  C   UNK N   1      37.313  47.611  61.948  0.00  0.00     0.042 C 
HETATM   28  C   UNK N   1      38.204  45.261  62.479  0.00  0.00     0.042 C 
ENDBRANCH  24  25
ENDBRANCH   4  24
BRANCH   2  29
HETATM   29  O   UNK N   1      34.097  44.562  66.740  0.00  0.00    -0.357 OA
HETATM   30  H   UNK N   1      34.261  43.887  67.413  0.00  0.00     0.218 HD
ENDBRANCH   2  29
TORSDOF 7
ENDMDL
