MODEL 1
REMARK VINA RESULT:      -7.5      0.000      0.000
REMARK  4 active torsions:
REMARK  status: ('A' for Active; 'I' for Inactive)
REMARK    1  A    between atoms: O_3  and  C_7 
REMARK    2  A    between atoms: C_8  and  C_17 
REMARK    3  A    between atoms: C_11  and  C_21 
REMARK    4  A    between atoms: C_21  and  C_25 
ROOT
HETATM    1  O   UNK N   1      32.073  51.860  43.837  0.00  0.00    -0.336 OA
HETATM    2  C   UNK N   1      31.388  52.864  43.230  0.00  0.00     0.087 A 
HETATM    3  C   UNK N   1      30.046  54.960  41.931  0.00  0.00    -0.027 A 
HETATM    4  C   UNK N   1      31.058  52.758  41.875  0.00  0.00    -0.002 A 
HETATM    5  C   UNK N   1      31.027  54.020  43.953  0.00  0.00    -0.020 A 
HETATM    6  C   UNK N   1      30.388  53.797  41.229  0.00  0.00     0.024 A 
HETATM    7  C   UNK N   1      30.360  55.064  43.296  0.00  0.00     0.020 A 
HETATM    8  C   UNK N   1      32.552  50.708  43.212  0.00  0.00     0.078 A 
HETATM    9  C   UNK N   1      31.438  51.548  41.139  0.00  0.00     0.013 A 
HETATM   10  C   UNK N   1      32.137  50.589  41.751  0.00  0.00     0.011 A 
HETATM   11  C   UNK N   1      32.023  49.488  43.973  0.00  0.00     0.051 C 
HETATM   12  C   UNK N   1      34.082  50.749  43.276  0.00  0.00     0.051 C 
ENDROOT
BRANCH   3  13
HETATM   13  C   UNK N   1      29.350  56.082  41.211  0.00  0.00     0.169 C 
HETATM   14  O   UNK N   1      28.918  57.049  42.104  0.00  0.00    -0.340 OA
HETATM   15  C   UNK N   1      28.300  58.171  41.651  0.00  0.00     0.086 A 
HETATM   16  C   UNK N   1      28.514  58.599  40.327  0.00  0.00     0.043 A 
HETATM   17  C   UNK N   1      27.441  58.885  42.491  0.00  0.00     0.074 A 
HETATM   18  C   UNK N   1      27.832  59.723  39.839  0.00  0.00     0.021 A 
HETATM   19  C   UNK N   1      29.477  57.844  39.491  0.00  0.00     0.165 C 
HETATM   20  C   UNK N   1      26.955  60.420  40.674  0.00  0.00     0.037 A 
HETATM   21  C   UNK N   1      26.762  60.008  42.003  0.00  0.00     0.068 A 
HETATM   22  O   UNK N   1      29.713  58.177  38.340  0.00  0.00    -0.292 OA
HETATM   23  C   UNK N   1      30.239  56.710  40.124  0.00  0.00     0.121 C 
BRANCH  21  24
HETATM   24  O   UNK N   1      25.921  60.680  42.814  0.00  0.00    -0.361 OA
HETATM   25  H   UNK N   1      26.237  61.382  43.402  0.00  0.00     0.217 HD
ENDBRANCH  21  24
ENDBRANCH   3  13
BRANCH   5  26
HETATM   26  C   UNK N   1      31.346  54.157  45.421  0.00  0.00     0.068 C 
BRANCH  26  27
HETATM   27  C   UNK N   1      32.258  55.338  45.665  0.00  0.00    -0.020 C 
HETATM   28  C   UNK N   1      33.515  55.496  45.174  0.00  0.00    -0.091 C 
HETATM   29  C   UNK N   1      34.268  56.767  45.480  0.00  0.00     0.042 C 
HETATM   30  C   UNK N   1      34.237  54.476  44.323  0.00  0.00     0.042 C 
ENDBRANCH  26  27
ENDBRANCH   5  26
TORSDOF 4
ENDMDL
MODEL 2
REMARK VINA RESULT:      -7.1      1.847      2.326
REMARK  4 active torsions:
REMARK  status: ('A' for Active; 'I' for Inactive)
REMARK    1  A    between atoms: O_3  and  C_7 
REMARK    2  A    between atoms: C_8  and  C_17 
REMARK    3  A    between atoms: C_11  and  C_21 
REMARK    4  A    between atoms: C_21  and  C_25 
ROOT
HETATM    1  O   UNK N   1      32.072  51.782  43.869  0.00  0.00    -0.336 OA
HETATM    2  C   UNK N   1      31.372  52.749  43.221  0.00  0.00     0.087 A 
HETATM    3  C   UNK N   1      29.997  54.769  41.838  0.00  0.00    -0.027 A 
HETATM    4  C   UNK N   1      31.057  52.589  41.867  0.00  0.00    -0.002 A 
HETATM    5  C   UNK N   1      30.979  53.921  43.900  0.00  0.00    -0.020 A 
HETATM    6  C   UNK N   1      30.371  53.590  41.179  0.00  0.00     0.024 A 
HETATM    7  C   UNK N   1      30.296  54.927  43.201  0.00  0.00     0.020 A 
HETATM    8  C   UNK N   1      32.582  50.620  43.289  0.00  0.00     0.078 A 
HETATM    9  C   UNK N   1      31.470  51.363  41.177  0.00  0.00     0.013 A 
HETATM   10  C   UNK N   1      32.183  50.441  41.828  0.00  0.00     0.011 A 
HETATM   11  C   UNK N   1      32.071  49.415  44.087  0.00  0.00     0.051 C 
HETATM   12  C   UNK N   1      34.109  50.696  43.364  0.00  0.00     0.051 C 
ENDROOT
BRANCH   3  13
HETATM   13  C   UNK N   1      29.285  55.851  41.073  0.00  0.00     0.169 C 
HETATM   14  O   UNK N   1      28.074  55.392  40.580  0.00  0.00    -0.340 OA
HETATM   15  C   UNK N   1      27.254  56.229  39.893  0.00  0.00     0.086 A 
HETATM   16  C   UNK N   1      27.363  57.621  40.078  0.00  0.00     0.043 A 
HETATM   17  C   UNK N   1      26.321  55.710  38.991  0.00  0.00     0.074 A 
HETATM   18  C   UNK N   1      26.559  58.488  39.326  0.00  0.00     0.021 A 
HETATM   19  C   UNK N   1      28.327  58.122  41.086  0.00  0.00     0.165 C 
HETATM   20  C   UNK N   1      25.644  57.968  38.408  0.00  0.00     0.037 A 
HETATM   21  C   UNK N   1      25.517  56.579  38.242  0.00  0.00     0.068 A 
HETATM   22  O   UNK N   1      28.455  59.318  41.301  0.00  0.00    -0.292 OA
HETATM   23  C   UNK N   1      29.079  57.118  41.919  0.00  0.00     0.121 C 
BRANCH  21  24
HETATM   24  O   UNK N   1      24.633  56.072  37.361  0.00  0.00    -0.361 OA
HETATM   25  H   UNK N   1      24.182  56.635  36.714  0.00  0.00     0.217 HD
ENDBRANCH  21  24
ENDBRANCH   3  13
BRANCH   5  26
HETATM   26  C   UNK N   1      31.281  54.116  45.365  0.00  0.00     0.068 C 
BRANCH  26  27
HETATM   27  C   UNK N   1      32.211  55.290  45.571  0.00  0.00    -0.020 C 
HETATM   28  C   UNK N   1      33.515  55.357  45.195  0.00  0.00    -0.091 C 
HETATM   29  C   UNK N   1      34.285  56.632  45.436  0.00  0.00     0.042 C 
HETATM   30  C   UNK N   1      34.276  54.228  44.537  0.00  0.00     0.042 C 
ENDBRANCH  26  27
ENDBRANCH   5  26
TORSDOF 4
ENDMDL
MODEL 3
REMARK VINA RESULT:      -6.8     27.371     31.173
REMARK  4 active torsions:
REMARK  status: ('A' for Active; 'I' for Inactive)
REMARK    1  A    between atoms: O_3  and  C_7 
REMARK    2  A    between atoms: C_8  and  C_17 
REMARK    3  A    between atoms: C_11  and  C_21 
REMARK    4  A    between atoms: C_21  and  C_25 
ROOT
HETATM    1  O   UNK N   1      52.765  31.253  42.445  0.00  0.00    -0.336 OA
HETATM    2  C   UNK N   1      51.809  31.257  43.409  0.00  0.00     0.087 A 
HETATM    3  C   UNK N   1      49.805  31.345  45.374  0.00  0.00    -0.027 A 
HETATM    4  C   UNK N   1      50.462  31.123  43.051  0.00  0.00    -0.002 A 
HETATM    5  C   UNK N   1      52.163  31.417  44.764  0.00  0.00    -0.020 A 
HETATM    6  C   UNK N   1      49.466  31.163  44.027  0.00  0.00     0.024 A 
HETATM    7  C   UNK N   1      51.155  31.464  45.740  0.00  0.00     0.020 A 
HETATM    8  C   UNK N   1      52.535  31.182  41.070  0.00  0.00     0.078 A 
HETATM    9  C   UNK N   1      50.112  30.955  41.638  0.00  0.00     0.013 A 
HETATM   10  C   UNK N   1      51.068  30.984  40.707  0.00  0.00     0.011 A 
HETATM   11  C   UNK N   1      53.343  30.009  40.504  0.00  0.00     0.051 C 
HETATM   12  C   UNK N   1      53.010  32.500  40.452  0.00  0.00     0.051 C 
ENDROOT
BRANCH   3  13
HETATM   13  C   UNK N   1      48.716  31.417  46.408  0.00  0.00     0.169 C 
HETATM   14  O   UNK N   1      48.390  32.733  46.693  0.00  0.00    -0.340 OA
HETATM   15  C   UNK N   1      47.395  33.016  47.574  0.00  0.00     0.086 A 
HETATM   16  C   UNK N   1      46.395  32.059  47.829  0.00  0.00     0.043 A 
HETATM   17  C   UNK N   1      47.380  34.245  48.240  0.00  0.00     0.074 A 
HETATM   18  C   UNK N   1      45.402  32.326  48.782  0.00  0.00     0.021 A 
HETATM   19  C   UNK N   1      46.420  30.794  47.058  0.00  0.00     0.165 C 
HETATM   20  C   UNK N   1      45.402  33.546  49.464  0.00  0.00     0.037 A 
HETATM   21  C   UNK N   1      46.386  34.511  49.190  0.00  0.00     0.068 A 
HETATM   22  O   UNK N   1      45.570  29.933  47.226  0.00  0.00    -0.292 OA
HETATM   23  C   UNK N   1      47.463  30.630  45.985  0.00  0.00     0.121 C 
BRANCH  21  24
HETATM   24  O   UNK N   1      46.388  35.691  49.841  0.00  0.00    -0.361 OA
HETATM   25  H   UNK N   1      46.800  35.788  50.713  0.00  0.00     0.217 HD
ENDBRANCH  21  24
ENDBRANCH   3  13
BRANCH   5  26
HETATM   26  C   UNK N   1      53.605  31.541  45.188  0.00  0.00     0.068 C 
BRANCH  26  27
HETATM   27  C   UNK N   1      53.893  30.658  46.382  0.00  0.00    -0.020 C 
HETATM   28  C   UNK N   1      54.072  31.074  47.663  0.00  0.00    -0.091 C 
HETATM   29  C   UNK N   1      54.303  30.046  48.743  0.00  0.00     0.042 C 
HETATM   30  C   UNK N   1      54.058  32.520  48.104  0.00  0.00     0.042 C 
ENDBRANCH  26  27
ENDBRANCH   5  26
TORSDOF 4
ENDMDL
MODEL 4
REMARK VINA RESULT:      -6.7     27.412     31.272
REMARK  4 active torsions:
REMARK  status: ('A' for Active; 'I' for Inactive)
REMARK    1  A    between atoms: O_3  and  C_7 
REMARK    2  A    between atoms: C_8  and  C_17 
REMARK    3  A    between atoms: C_11  and  C_21 
REMARK    4  A    between atoms: C_21  and  C_25 
ROOT
HETATM    1  O   UNK N   1      48.122  32.626  50.139  0.00  0.00    -0.336 OA
HETATM    2  C   UNK N   1      48.838  32.300  49.031  0.00  0.00     0.087 A 
HETATM    3  C   UNK N   1      50.388  31.664  46.779  0.00  0.00    -0.027 A 
HETATM    4  C   UNK N   1      49.799  31.285  49.100  0.00  0.00    -0.002 A 
HETATM    5  C   UNK N   1      48.632  32.994  47.821  0.00  0.00    -0.020 A 
HETATM    6  C   UNK N   1      50.567  30.966  47.980  0.00  0.00     0.024 A 
HETATM    7  C   UNK N   1      49.414  32.672  46.701  0.00  0.00     0.020 A 
HETATM    8  C   UNK N   1      48.289  32.069  51.408  0.00  0.00     0.078 A 
HETATM    9  C   UNK N   1      49.997  30.573  50.365  0.00  0.00     0.013 A 
HETATM   10  C   UNK N   1      49.302  30.932  51.447  0.00  0.00     0.011 A 
HETATM   11  C   UNK N   1      46.934  31.535  51.885  0.00  0.00     0.051 C 
HETATM   12  C   UNK N   1      48.778  33.181  52.341  0.00  0.00     0.051 C 
ENDROOT
BRANCH   3  13
HETATM   13  C   UNK N   1      51.247  31.326  45.591  0.00  0.00     0.169 C 
HETATM   14  O   UNK N   1      50.676  31.797  44.420  0.00  0.00    -0.340 OA
HETATM   15  C   UNK N   1      51.317  31.632  43.233  0.00  0.00     0.086 A 
HETATM   16  C   UNK N   1      52.712  31.442  43.213  0.00  0.00     0.043 A 
HETATM   17  C   UNK N   1      50.590  31.631  42.039  0.00  0.00     0.074 A 
HETATM   18  C   UNK N   1      53.366  31.213  41.994  0.00  0.00     0.021 A 
HETATM   19  C   UNK N   1      53.449  31.509  44.497  0.00  0.00     0.165 C 
HETATM   20  C   UNK N   1      52.634  31.187  40.805  0.00  0.00     0.037 A 
HETATM   21  C   UNK N   1      51.246  31.403  40.823  0.00  0.00     0.068 A 
HETATM   22  O   UNK N   1      54.661  31.366  44.540  0.00  0.00    -0.292 OA
HETATM   23  C   UNK N   1      52.682  31.858  45.745  0.00  0.00     0.121 C 
BRANCH  21  24
HETATM   24  O   UNK N   1      50.535  31.384  39.678  0.00  0.00    -0.361 OA
HETATM   25  H   UNK N   1      49.610  31.673  39.651  0.00  0.00     0.217 HD
ENDBRANCH  21  24
ENDBRANCH   3  13
BRANCH   5  26
HETATM   26  C   UNK N   1      47.589  34.076  47.705  0.00  0.00     0.068 C 
BRANCH  26  27
HETATM   27  C   UNK N   1      46.197  33.495  47.804  0.00  0.00    -0.020 C 
HETATM   28  C   UNK N   1      45.256  33.817  48.731  0.00  0.00    -0.091 C 
HETATM   29  C   UNK N   1      43.895  33.172  48.650  0.00  0.00     0.042 C 
HETATM   30  C   UNK N   1      45.470  34.795  49.864  0.00  0.00     0.042 C 
ENDBRANCH  26  27
ENDBRANCH   5  26
TORSDOF 4
ENDMDL
MODEL 5
REMARK VINA RESULT:      -6.7     27.618     31.082
REMARK  4 active torsions:
REMARK  status: ('A' for Active; 'I' for Inactive)
REMARK    1  A    between atoms: O_3  and  C_7 
REMARK    2  A    between atoms: C_8  and  C_17 
REMARK    3  A    between atoms: C_11  and  C_21 
REMARK    4  A    between atoms: C_21  and  C_25 
ROOT
HETATM    1  O   UNK N   1      48.188  33.881  51.864  0.00  0.00    -0.336 OA
HETATM    2  C   UNK N   1      48.809  33.352  50.778  0.00  0.00     0.087 A 
HETATM    3  C   UNK N   1      50.167  32.301  48.556  0.00  0.00    -0.027 A 
HETATM    4  C   UNK N   1      49.782  32.361  50.949  0.00  0.00    -0.002 A 
HETATM    5  C   UNK N   1      48.494  33.812  49.482  0.00  0.00    -0.020 A 
HETATM    6  C   UNK N   1      50.455  31.835  49.846  0.00  0.00     0.024 A 
HETATM    7  C   UNK N   1      49.181  33.284  48.378  0.00  0.00     0.020 A 
HETATM    8  C   UNK N   1      48.468  33.567  53.194  0.00  0.00     0.078 A 
HETATM    9  C   UNK N   1      50.095  31.893  52.302  0.00  0.00     0.013 A 
HETATM   10  C   UNK N   1      49.492  32.449  53.355  0.00  0.00     0.011 A 
HETATM   11  C   UNK N   1      47.164  33.139  53.876  0.00  0.00     0.051 C 
HETATM   12  C   UNK N   1      49.025  34.829  53.860  0.00  0.00     0.051 C 
ENDROOT
BRANCH   3  13
HETATM   13  C   UNK N   1      50.924  31.744  47.382  0.00  0.00     0.169 C 
HETATM   14  O   UNK N   1      50.268  32.024  46.194  0.00  0.00    -0.340 OA
HETATM   15  C   UNK N   1      50.811  31.644  45.008  0.00  0.00     0.086 A 
HETATM   16  C   UNK N   1      52.197  31.417  44.914  0.00  0.00     0.043 A 
HETATM   17  C   UNK N   1      49.990  31.458  43.891  0.00  0.00     0.074 A 
HETATM   18  C   UNK N   1      52.749  30.967  43.707  0.00  0.00     0.021 A 
HETATM   19  C   UNK N   1      53.034  31.682  46.108  0.00  0.00     0.165 C 
HETATM   20  C   UNK N   1      51.924  30.759  42.599  0.00  0.00     0.037 A 
HETATM   21  C   UNK N   1      50.545  31.010  42.685  0.00  0.00     0.068 A 
HETATM   22  O   UNK N   1      54.244  31.517  46.082  0.00  0.00    -0.292 OA
HETATM   23  C   UNK N   1      52.374  32.257  47.332  0.00  0.00     0.121 C 
BRANCH  21  24
HETATM   24  O   UNK N   1      49.744  30.815  41.619  0.00  0.00    -0.361 OA
HETATM   25  H   UNK N   1      49.070  30.120  41.611  0.00  0.00     0.217 HD
ENDBRANCH  21  24
ENDBRANCH   3  13
BRANCH   5  26
HETATM   26  C   UNK N   1      47.435  34.861  49.259  0.00  0.00     0.068 C 
BRANCH  26  27
HETATM   27  C   UNK N   1      46.051  34.269  49.404  0.00  0.00    -0.020 C 
HETATM   28  C   UNK N   1      45.341  33.640  48.432  0.00  0.00    -0.091 C 
HETATM   29  C   UNK N   1      43.988  33.062  48.767  0.00  0.00     0.042 C 
HETATM   30  C   UNK N   1      45.811  33.465  47.005  0.00  0.00     0.042 C 
ENDBRANCH  26  27
ENDBRANCH   5  26
TORSDOF 4
ENDMDL
MODEL 6
REMARK VINA RESULT:      -6.7     18.689     22.735
REMARK  4 active torsions:
REMARK  status: ('A' for Active; 'I' for Inactive)
REMARK    1  A    between atoms: O_3  and  C_7 
REMARK    2  A    between atoms: C_8  and  C_17 
REMARK    3  A    between atoms: C_11  and  C_21 
REMARK    4  A    between atoms: C_21  and  C_25 
ROOT
HETATM    1  O   UNK N   1      29.959  41.717  57.385  0.00  0.00    -0.336 OA
HETATM    2  C   UNK N   1      30.812  42.022  58.397  0.00  0.00     0.087 A 
HETATM    3  C   UNK N   1      32.506  42.676  60.539  0.00  0.00    -0.027 A 
HETATM    4  C   UNK N   1      30.880  41.192  59.521  0.00  0.00    -0.002 A 
HETATM    5  C   UNK N   1      31.612  43.182  58.329  0.00  0.00    -0.020 A 
HETATM    6  C   UNK N   1      31.724  41.514  60.585  0.00  0.00     0.024 A 
HETATM    7  C   UNK N   1      32.452  43.504  59.405  0.00  0.00     0.020 A 
HETATM    8  C   UNK N   1      29.064  40.646  57.371  0.00  0.00     0.078 A 
HETATM    9  C   UNK N   1      30.045  39.990  59.574  0.00  0.00     0.013 A 
HETATM   10  C   UNK N   1      29.193  39.727  58.580  0.00  0.00     0.011 A 
HETATM   11  C   UNK N   1      29.312  39.823  56.102  0.00  0.00     0.051 C 
HETATM   12  C   UNK N   1      27.647  41.227  57.357  0.00  0.00     0.051 C 
ENDROOT
BRANCH   3  13
HETATM   13  C   UNK N   1      33.386  43.023  61.707  0.00  0.00     0.169 C 
HETATM   14  O   UNK N   1      34.465  43.792  61.301  0.00  0.00    -0.340 OA
HETATM   15  C   UNK N   1      35.362  44.248  62.215  0.00  0.00     0.086 A 
HETATM   16  C   UNK N   1      34.981  44.373  63.565  0.00  0.00     0.043 A 
HETATM   17  C   UNK N   1      36.662  44.570  61.818  0.00  0.00     0.074 A 
HETATM   18  C   UNK N   1      35.922  44.787  64.518  0.00  0.00     0.021 A 
HETATM   19  C   UNK N   1      33.577  44.074  63.929  0.00  0.00     0.165 C 
HETATM   20  C   UNK N   1      37.228  45.085  64.122  0.00  0.00     0.037 A 
HETATM   21  C   UNK N   1      37.601  44.985  62.772  0.00  0.00     0.068 A 
HETATM   22  O   UNK N   1      33.185  44.179  65.081  0.00  0.00    -0.292 OA
HETATM   23  C   UNK N   1      32.608  43.733  62.828  0.00  0.00     0.121 C 
BRANCH  21  24
HETATM   24  O   UNK N   1      38.858  45.277  62.384  0.00  0.00    -0.361 OA
HETATM   25  H   UNK N   1      39.517  44.582  62.237  0.00  0.00     0.217 HD
ENDBRANCH  21  24
ENDBRANCH   3  13
BRANCH   5  26
HETATM   26  C   UNK N   1      31.581  44.086  57.123  0.00  0.00     0.068 C 
BRANCH  26  27
HETATM   27  C   UNK N   1      31.352  45.524  57.533  0.00  0.00    -0.020 C 
HETATM   28  C   UNK N   1      30.183  46.056  57.974  0.00  0.00    -0.091 C 
HETATM   29  C   UNK N   1      30.147  47.506  58.390  0.00  0.00     0.042 C 
HETATM   30  C   UNK N   1      28.882  45.293  58.086  0.00  0.00     0.042 C 
ENDBRANCH  26  27
ENDBRANCH   5  26
TORSDOF 4
ENDMDL
MODEL 7
REMARK VINA RESULT:      -6.5     16.027     19.004
REMARK  4 active torsions:
REMARK  status: ('A' for Active; 'I' for Inactive)
REMARK    1  A    between atoms: O_3  and  C_7 
REMARK    2  A    between atoms: C_8  and  C_17 
REMARK    3  A    between atoms: C_11  and  C_21 
REMARK    4  A    between atoms: C_21  and  C_25 
ROOT
HETATM    1  O   UNK N   1      31.141  41.790  59.411  0.00  0.00    -0.336 OA
HETATM    2  C   UNK N   1      30.502  41.858  58.214  0.00  0.00     0.087 A 
HETATM    3  C   UNK N   1      29.222  41.925  55.716  0.00  0.00    -0.027 A 
HETATM    4  C   UNK N   1      29.511  40.920  57.903  0.00  0.00    -0.002 A 
HETATM    5  C   UNK N   1      30.846  42.854  57.277  0.00  0.00    -0.020 A 
HETATM    6  C   UNK N   1      28.872  40.954  56.664  0.00  0.00     0.024 A 
HETATM    7  C   UNK N   1      30.205  42.878  56.029  0.00  0.00     0.020 A 
HETATM    8  C   UNK N   1      30.946  40.809  60.383  0.00  0.00     0.078 A 
HETATM    9  C   UNK N   1      29.163  39.893  58.890  0.00  0.00     0.013 A 
HETATM   10  C   UNK N   1      29.827  39.830  60.046  0.00  0.00     0.011 A 
HETATM   11  C   UNK N   1      30.610  41.500  61.709  0.00  0.00     0.051 C 
HETATM   12  C   UNK N   1      32.252  40.019  60.514  0.00  0.00     0.051 C 
ENDROOT
BRANCH   3  13
HETATM   13  C   UNK N   1      28.544  41.928  54.374  0.00  0.00     0.169 C 
HETATM   14  O   UNK N   1      27.556  42.897  54.322  0.00  0.00    -0.340 OA
HETATM   15  C   UNK N   1      26.849  43.093  53.177  0.00  0.00     0.086 A 
HETATM   16  C   UNK N   1      27.397  42.696  51.943  0.00  0.00     0.043 A 
HETATM   17  C   UNK N   1      25.576  43.667  53.231  0.00  0.00     0.074 A 
HETATM   18  C   UNK N   1      26.645  42.843  50.768  0.00  0.00     0.021 A 
HETATM   19  C   UNK N   1      28.772  42.145  51.928  0.00  0.00     0.165 C 
HETATM   20  C   UNK N   1      25.363  43.394  50.827  0.00  0.00     0.037 A 
HETATM   21  C   UNK N   1      24.827  43.814  52.056  0.00  0.00     0.068 A 
HETATM   22  O   UNK N   1      29.304  41.797  50.885  0.00  0.00    -0.292 OA
HETATM   23  C   UNK N   1      29.545  42.114  53.220  0.00  0.00     0.121 C 
BRANCH  21  24
HETATM   24  O   UNK N   1      23.593  44.352  52.119  0.00  0.00    -0.361 OA
HETATM   25  H   UNK N   1      22.879  43.925  52.615  0.00  0.00     0.217 HD
ENDBRANCH  21  24
ENDBRANCH   3  13
BRANCH   5  26
HETATM   26  C   UNK N   1      31.892  43.894  57.588  0.00  0.00     0.068 C 
BRANCH  26  27
HETATM   27  C   UNK N   1      31.373  45.284  57.294  0.00  0.00    -0.020 C 
HETATM   28  C   UNK N   1      30.657  46.069  58.140  0.00  0.00    -0.091 C 
HETATM   29  C   UNK N   1      30.261  47.456  57.698  0.00  0.00     0.042 C 
HETATM   30  C   UNK N   1      30.214  45.655  59.526  0.00  0.00     0.042 C 
ENDBRANCH  26  27
ENDBRANCH   5  26
TORSDOF 4
ENDMDL
MODEL 8
REMARK VINA RESULT:      -6.4     16.562     19.880
REMARK  4 active torsions:
REMARK  status: ('A' for Active; 'I' for Inactive)
REMARK    1  A    between atoms: O_3  and  C_7 
REMARK    2  A    between atoms: C_8  and  C_17 
REMARK    3  A    between atoms: C_11  and  C_21 
REMARK    4  A    between atoms: C_21  and  C_25 
ROOT
HETATM    1  O   UNK N   1      32.266  43.830  59.804  0.00  0.00    -0.336 OA
HETATM    2  C   UNK N   1      31.369  43.369  58.894  0.00  0.00     0.087 A 
HETATM    3  C   UNK N   1      29.576  42.363  56.981  0.00  0.00    -0.027 A 
HETATM    4  C   UNK N   1      30.864  42.069  59.014  0.00  0.00    -0.002 A 
HETATM    5  C   UNK N   1      30.960  44.186  57.819  0.00  0.00    -0.020 A 
HETATM    6  C   UNK N   1      29.971  41.570  58.066  0.00  0.00     0.024 A 
HETATM    7  C   UNK N   1      30.067  43.674  56.866  0.00  0.00     0.020 A 
HETATM    8  C   UNK N   1      32.805  43.094  60.860  0.00  0.00     0.078 A 
HETATM    9  C   UNK N   1      31.298  41.235  60.139  0.00  0.00     0.013 A 
HETATM   10  C   UNK N   1      32.203  41.701  61.002  0.00  0.00     0.011 A 
HETATM   11  C   UNK N   1      32.564  43.867  62.162  0.00  0.00     0.051 C 
HETATM   12  C   UNK N   1      34.307  42.945  60.602  0.00  0.00     0.051 C 
ENDROOT
BRANCH   3  13
HETATM   13  C   UNK N   1      28.636  41.797  55.953  0.00  0.00     0.169 C 
HETATM   14  O   UNK N   1      28.913  42.310  54.696  0.00  0.00    -0.340 OA
HETATM   15  C   UNK N   1      28.202  41.892  53.616  0.00  0.00     0.086 A 
HETATM   16  C   UNK N   1      27.549  40.646  53.649  0.00  0.00     0.043 A 
HETATM   17  C   UNK N   1      28.104  42.708  52.485  0.00  0.00     0.074 A 
HETATM   18  C   UNK N   1      26.766  40.240  52.559  0.00  0.00     0.021 A 
HETATM   19  C   UNK N   1      27.728  39.791  54.846  0.00  0.00     0.165 C 
HETATM   20  C   UNK N   1      26.650  41.068  51.440  0.00  0.00     0.037 A 
HETATM   21  C   UNK N   1      27.323  42.300  51.396  0.00  0.00     0.068 A 
HETATM   22  O   UNK N   1      27.197  38.693  54.926  0.00  0.00    -0.292 OA
HETATM   23  C   UNK N   1      28.664  40.260  55.928  0.00  0.00     0.121 C 
BRANCH  21  24
HETATM   24  O   UNK N   1      27.219  43.100  50.317  0.00  0.00    -0.361 OA
HETATM   25  H   UNK N   1      27.281  44.064  50.393  0.00  0.00     0.217 HD
ENDBRANCH  21  24
ENDBRANCH   3  13
BRANCH   5  26
HETATM   26  C   UNK N   1      31.465  45.599  57.673  0.00  0.00     0.068 C 
BRANCH  26  27
HETATM   27  C   UNK N   1      30.331  46.591  57.801  0.00  0.00    -0.020 C 
HETATM   28  C   UNK N   1      29.797  47.053  58.962  0.00  0.00    -0.091 C 
HETATM   29  C   UNK N   1      28.697  48.085  58.905  0.00  0.00     0.042 C 
HETATM   30  C   UNK N   1      30.227  46.607  60.341  0.00  0.00     0.042 C 
ENDBRANCH  26  27
ENDBRANCH   5  26
TORSDOF 4
ENDMDL
MODEL 9
REMARK VINA RESULT:      -6.4      1.797      2.394
REMARK  4 active torsions:
REMARK  status: ('A' for Active; 'I' for Inactive)
REMARK    1  A    between atoms: O_3  and  C_7 
REMARK    2  A    between atoms: C_8  and  C_17 
REMARK    3  A    between atoms: C_11  and  C_21 
REMARK    4  A    between atoms: C_21  and  C_25 
ROOT
HETATM    1  O   UNK N   1      32.558  52.142  44.121  0.00  0.00    -0.336 OA
HETATM    2  C   UNK N   1      31.685  52.997  43.530  0.00  0.00     0.087 A 
HETATM    3  C   UNK N   1      29.940  54.783  42.245  0.00  0.00    -0.027 A 
HETATM    4  C   UNK N   1      31.102  52.657  42.304  0.00  0.00    -0.002 A 
HETATM    5  C   UNK N   1      31.379  54.235  44.134  0.00  0.00    -0.020 A 
HETATM    6  C   UNK N   1      30.233  53.542  41.666  0.00  0.00     0.024 A 
HETATM    7  C   UNK N   1      30.509  55.123  43.483  0.00  0.00     0.020 A 
HETATM    8  C   UNK N   1      32.999  50.931  43.587  0.00  0.00     0.078 A 
HETATM    9  C   UNK N   1      31.429  51.366  41.691  0.00  0.00     0.013 A 
HETATM   10  C   UNK N   1      32.313  50.556  42.278  0.00  0.00     0.011 A 
HETATM   11  C   UNK N   1      32.735  49.823  44.613  0.00  0.00     0.051 C 
HETATM   12  C   UNK N   1      34.502  51.061  43.322  0.00  0.00     0.051 C 
ENDROOT
BRANCH   3  13
HETATM   13  C   UNK N   1      29.024  55.737  41.529  0.00  0.00     0.169 C 
HETATM   14  O   UNK N   1      29.711  56.445  40.556  0.00  0.00    -0.340 OA
HETATM   15  C   UNK N   1      29.054  57.332  39.764  0.00  0.00     0.086 A 
HETATM   16  C   UNK N   1      27.665  57.203  39.574  0.00  0.00     0.043 A 
HETATM   17  C   UNK N   1      29.753  58.380  39.158  0.00  0.00     0.074 A 
HETATM   18  C   UNK N   1      26.976  58.152  38.805  0.00  0.00     0.021 A 
HETATM   19  C   UNK N   1      26.976  56.045  40.191  0.00  0.00     0.165 C 
HETATM   20  C   UNK N   1      27.673  59.212  38.220  0.00  0.00     0.037 A 
HETATM   21  C   UNK N   1      29.063  59.325  38.388  0.00  0.00     0.068 A 
HETATM   22  O   UNK N   1      25.775  55.873  40.048  0.00  0.00    -0.292 OA
HETATM   23  C   UNK N   1      27.807  55.021  40.917  0.00  0.00     0.121 C 
BRANCH  21  24
HETATM   24  O   UNK N   1      29.741  60.343  37.822  0.00  0.00    -0.361 OA
HETATM   25  H   UNK N   1      29.439  61.260  37.901  0.00  0.00     0.217 HD
ENDBRANCH  21  24
ENDBRANCH   3  13
BRANCH   5  26
HETATM   26  C   UNK N   1      31.970  54.624  45.465  0.00  0.00     0.068 C 
BRANCH  26  27
HETATM   27  C   UNK N   1      33.255  55.398  45.278  0.00  0.00    -0.020 C 
HETATM   28  C   UNK N   1      33.810  56.260  46.171  0.00  0.00    -0.091 C 
HETATM   29  C   UNK N   1      35.129  56.912  45.838  0.00  0.00     0.042 C 
HETATM   30  C   UNK N   1      33.198  56.625  47.504  0.00  0.00     0.042 C 
ENDBRANCH  26  27
ENDBRANCH   5  26
TORSDOF 4
ENDMDL
