MODEL 1
REMARK VINA RESULT:      -7.7      0.000      0.000
REMARK  10 active torsions:
REMARK  status: ('A' for Active; 'I' for Inactive)
REMARK    1  A    between atoms: O_2  and  C_8 
REMARK    2  A    between atoms: O_3  and  C_9 
REMARK    3  A    between atoms: O_4  and  C_10 
REMARK    4  A    between atoms: O_5  and  C_20 
REMARK    5  A    between atoms: C_11  and  C_19 
REMARK    6  A    between atoms: C_13  and  C_22 
REMARK    7  A    between atoms: C_14  and  C_23 
REMARK    8  A    between atoms: C_20  and  C_22 
REMARK    9  A    between atoms: C_20  and  C_24 
REMARK   10  A    between atoms: C_23  and  C_27 
ROOT
HETATM    1  C   UNK N   1      41.319  45.844  45.459  0.00  0.00     0.078 A 
HETATM    2  C   UNK N   1      41.112  45.601  48.259  0.00  0.00    -0.027 A 
HETATM    3  C   UNK N   1      41.118  47.000  46.263  0.00  0.00    -0.021 A 
HETATM    4  C   UNK N   1      41.410  44.576  46.072  0.00  0.00    -0.020 A 
HETATM    5  C   UNK N   1      41.013  46.861  47.656  0.00  0.00     0.019 A 
HETATM    6  C   UNK N   1      41.304  44.466  47.463  0.00  0.00     0.020 A 
ENDROOT
BRANCH   2   7
HETATM    7  C   UNK N   1      41.019  45.447  49.754  0.00  0.00     0.169 C 
HETATM    8  O   UNK N   1      40.482  44.217  50.110  0.00  0.00    -0.340 OA
HETATM    9  C   UNK N   1      40.377  43.857  51.416  0.00  0.00     0.089 A 
HETATM   10  C   UNK N   1      41.196  44.475  52.384  0.00  0.00     0.076 A 
HETATM   11  C   UNK N   1      39.443  42.891  51.796  0.00  0.00     0.074 A 
HETATM   12  C   UNK N   1      41.035  44.145  53.746  0.00  0.00     0.085 A 
HETATM   13  C   UNK N   1      42.213  45.452  51.907  0.00  0.00     0.167 C 
HETATM   14  C   UNK N   1      40.075  43.190  54.117  0.00  0.00     0.074 A 
HETATM   15  C   UNK N   1      39.286  42.558  53.145  0.00  0.00     0.071 A 
HETATM   16  O   UNK N   1      42.942  46.047  52.686  0.00  0.00    -0.292 OA
HETATM   17  C   UNK N   1      42.383  45.648  50.423  0.00  0.00     0.121 C 
BRANCH  12  18
HETATM   18  O   UNK N   1      41.793  44.740  54.690  0.00  0.00    -0.360 OA
HETATM   19  H   UNK N   1      42.638  44.364  54.977  0.00  0.00     0.217 HD
ENDBRANCH  12  18
BRANCH  15  20
HETATM   20  O   UNK N   1      38.368  41.637  53.500  0.00  0.00    -0.361 OA
HETATM   21  H   UNK N   1      38.312  41.300  54.407  0.00  0.00     0.217 HD
ENDBRANCH  15  20
ENDBRANCH   2   7
BRANCH   3  22
HETATM   22  C   UNK N   1      41.026  48.394  45.674  0.00  0.00     0.077 C 
BRANCH  22  23
HETATM   23  C   UNK N   1      39.601  48.756  45.191  0.00  0.00     0.150 C 
BRANCH  23  24
HETATM   24  O   UNK N   1      38.810  47.629  44.904  0.00  0.00    -0.391 OA
HETATM   25  H   UNK N   1      38.009  47.649  45.484  0.00  0.00     0.210 HD
ENDBRANCH  23  24
BRANCH  23  26
HETATM   26  C   UNK N   1      39.601  49.777  44.055  0.00  0.00    -0.065 C 
HETATM   27  C   UNK N   1      40.292  50.929  44.136  0.00  0.00     0.016 C 
HETATM   28  C   UNK N   1      38.792  49.479  42.819  0.00  0.00     0.045 C 
ENDBRANCH  23  26
ENDBRANCH  22  23
ENDBRANCH   3  22
BRANCH   4  29
HETATM   29  C   UNK N   1      41.634  43.329  45.252  0.00  0.00     0.068 C 
BRANCH  29  30
HETATM   30  C   UNK N   1      43.110  43.010  45.188  0.00  0.00    -0.020 C 
HETATM   31  C   UNK N   1      43.714  41.893  45.672  0.00  0.00    -0.091 C 
HETATM   32  C   UNK N   1      45.206  41.740  45.511  0.00  0.00     0.042 C 
HETATM   33  C   UNK N   1      42.994  40.767  46.379  0.00  0.00     0.042 C 
ENDBRANCH  29  30
ENDBRANCH   4  29
BRANCH   1  34
HETATM   34  O   UNK N   1      41.422  45.924  44.112  0.00  0.00    -0.360 OA
HETATM   35  H   UNK N   1      40.754  46.320  43.540  0.00  0.00     0.217 HD
ENDBRANCH   1  34
TORSDOF 10
ENDMDL
MODEL 2
REMARK VINA RESULT:      -7.2     10.481     16.644
REMARK  10 active torsions:
REMARK  status: ('A' for Active; 'I' for Inactive)
REMARK    1  A    between atoms: O_2  and  C_8 
REMARK    2  A    between atoms: O_3  and  C_9 
REMARK    3  A    between atoms: O_4  and  C_10 
REMARK    4  A    between atoms: O_5  and  C_20 
REMARK    5  A    between atoms: C_11  and  C_19 
REMARK    6  A    between atoms: C_13  and  C_22 
REMARK    7  A    between atoms: C_14  and  C_23 
REMARK    8  A    between atoms: C_20  and  C_22 
REMARK    9  A    between atoms: C_20  and  C_24 
REMARK   10  A    between atoms: C_23  and  C_27 
ROOT
HETATM    1  C   UNK N   1      33.257  53.399  44.749  0.00  0.00     0.078 A 
HETATM    2  C   UNK N   1      31.315  54.457  43.001  0.00  0.00    -0.027 A 
HETATM    3  C   UNK N   1      32.269  52.549  44.180  0.00  0.00    -0.021 A 
HETATM    4  C   UNK N   1      33.257  54.775  44.434  0.00  0.00    -0.020 A 
HETATM    5  C   UNK N   1      31.306  53.093  43.315  0.00  0.00     0.019 A 
HETATM    6  C   UNK N   1      32.287  55.291  43.567  0.00  0.00     0.020 A 
ENDROOT
BRANCH   2   7
HETATM    7  C   UNK N   1      30.298  55.044  42.058  0.00  0.00     0.169 C 
HETATM    8  O   UNK N   1      29.102  54.341  42.094  0.00  0.00    -0.340 OA
HETATM    9  C   UNK N   1      28.033  54.752  41.362  0.00  0.00     0.089 A 
HETATM   10  C   UNK N   1      27.946  56.094  40.938  0.00  0.00     0.076 A 
HETATM   11  C   UNK N   1      27.035  53.837  41.018  0.00  0.00     0.074 A 
HETATM   12  C   UNK N   1      26.867  56.499  40.123  0.00  0.00     0.085 A 
HETATM   13  C   UNK N   1      29.011  57.032  41.389  0.00  0.00     0.167 C 
HETATM   14  C   UNK N   1      25.884  55.563  39.763  0.00  0.00     0.074 A 
HETATM   15  C   UNK N   1      25.962  54.239  40.216  0.00  0.00     0.071 A 
HETATM   16  O   UNK N   1      29.019  58.203  41.042  0.00  0.00    -0.292 OA
HETATM   17  C   UNK N   1      30.054  56.528  42.351  0.00  0.00     0.121 C 
BRANCH  12  18
HETATM   18  O   UNK N   1      26.778  57.772  39.687  0.00  0.00    -0.360 OA
HETATM   19  H   UNK N   1      27.412  58.141  39.055  0.00  0.00     0.217 HD
ENDBRANCH  12  18
BRANCH  15  20
HETATM   20  O   UNK N   1      25.015  53.341  39.875  0.00  0.00    -0.361 OA
HETATM   21  H   UNK N   1      24.303  53.565  39.258  0.00  0.00     0.217 HD
ENDBRANCH  15  20
ENDBRANCH   2   7
BRANCH   3  22
HETATM   22  C   UNK N   1      32.219  51.060  44.461  0.00  0.00     0.077 C 
BRANCH  22  23
HETATM   23  C   UNK N   1      32.544  50.195  43.219  0.00  0.00     0.150 C 
BRANCH  23  24
HETATM   24  O   UNK N   1      31.554  49.238  42.936  0.00  0.00    -0.391 OA
HETATM   25  H   UNK N   1      31.115  49.480  42.083  0.00  0.00     0.210 HD
ENDBRANCH  23  24
BRANCH  23  26
HETATM   26  C   UNK N   1      33.946  49.592  43.268  0.00  0.00    -0.065 C 
HETATM   27  C   UNK N   1      34.148  48.262  43.262  0.00  0.00     0.016 C 
HETATM   28  C   UNK N   1      35.129  50.524  43.338  0.00  0.00     0.045 C 
ENDBRANCH  23  26
ENDBRANCH  22  23
ENDBRANCH   3  22
BRANCH   4  29
HETATM   29  C   UNK N   1      34.297  55.706  45.010  0.00  0.00     0.068 C 
BRANCH  29  30
HETATM   30  C   UNK N   1      33.665  56.610  46.044  0.00  0.00    -0.020 C 
HETATM   31  C   UNK N   1      34.210  56.976  47.234  0.00  0.00    -0.091 C 
HETATM   32  C   UNK N   1      33.434  57.897  48.142  0.00  0.00     0.042 C 
HETATM   33  C   UNK N   1      35.562  56.521  47.733  0.00  0.00     0.042 C 
ENDBRANCH  29  30
ENDBRANCH   4  29
BRANCH   1  34
HETATM   34  O   UNK N   1      34.204  52.924  45.592  0.00  0.00    -0.360 OA
HETATM   35  H   UNK N   1      34.126  52.098  46.082  0.00  0.00     0.217 HD
ENDBRANCH   1  34
TORSDOF 10
ENDMDL
MODEL 3
REMARK VINA RESULT:      -6.6     13.392     16.249
REMARK  10 active torsions:
REMARK  status: ('A' for Active; 'I' for Inactive)
REMARK    1  A    between atoms: O_2  and  C_8 
REMARK    2  A    between atoms: O_3  and  C_9 
REMARK    3  A    between atoms: O_4  and  C_10 
REMARK    4  A    between atoms: O_5  and  C_20 
REMARK    5  A    between atoms: C_11  and  C_19 
REMARK    6  A    between atoms: C_13  and  C_22 
REMARK    7  A    between atoms: C_14  and  C_23 
REMARK    8  A    between atoms: C_20  and  C_22 
REMARK    9  A    between atoms: C_20  and  C_24 
REMARK   10  A    between atoms: C_23  and  C_27 
ROOT
HETATM    1  C   UNK N   1      48.678  31.498  44.904  0.00  0.00     0.078 A 
HETATM    2  C   UNK N   1      50.345  32.000  47.120  0.00  0.00    -0.027 A 
HETATM    3  C   UNK N   1      48.131  32.034  46.103  0.00  0.00    -0.021 A 
HETATM    4  C   UNK N   1      50.059  31.218  44.833  0.00  0.00    -0.020 A 
HETATM    5  C   UNK N   1      48.975  32.273  47.199  0.00  0.00     0.019 A 
HETATM    6  C   UNK N   1      50.878  31.469  45.940  0.00  0.00     0.020 A 
ENDROOT
BRANCH   2   7
HETATM    7  C   UNK N   1      51.259  32.273  48.285  0.00  0.00     0.169 C 
HETATM    8  O   UNK N   1      51.603  33.616  48.363  0.00  0.00    -0.340 OA
HETATM    9  C   UNK N   1      52.369  34.079  49.385  0.00  0.00     0.089 A 
HETATM   10  C   UNK N   1      52.444  33.354  50.593  0.00  0.00     0.076 A 
HETATM   11  C   UNK N   1      53.095  35.262  49.227  0.00  0.00     0.074 A 
HETATM   12  C   UNK N   1      53.293  33.805  51.624  0.00  0.00     0.085 A 
HETATM   13  C   UNK N   1      51.599  32.134  50.719  0.00  0.00     0.167 C 
HETATM   14  C   UNK N   1      54.037  34.982  51.443  0.00  0.00     0.074 A 
HETATM   15  C   UNK N   1      53.932  35.713  50.251  0.00  0.00     0.071 A 
HETATM   16  O   UNK N   1      51.628  31.439  51.723  0.00  0.00    -0.292 OA
HETATM   17  C   UNK N   1      50.640  31.803  49.606  0.00  0.00     0.121 C 
BRANCH  12  18
HETATM   18  O   UNK N   1      53.396  33.114  52.778  0.00  0.00    -0.360 OA
HETATM   19  H   UNK N   1      54.225  33.075  53.277  0.00  0.00     0.217 HD
ENDBRANCH  12  18
BRANCH  15  20
HETATM   20  O   UNK N   1      54.642  36.847  50.079  0.00  0.00    -0.361 OA
HETATM   21  H   UNK N   1      55.436  37.032  50.602  0.00  0.00     0.217 HD
ENDBRANCH  15  20
ENDBRANCH   2   7
BRANCH   3  22
HETATM   22  C   UNK N   1      46.659  32.373  46.244  0.00  0.00     0.077 C 
BRANCH  22  23
HETATM   23  C   UNK N   1      46.092  32.046  47.646  0.00  0.00     0.150 C 
BRANCH  23  24
HETATM   24  O   UNK N   1      45.223  30.939  47.648  0.00  0.00    -0.391 OA
HETATM   25  H   UNK N   1      45.050  30.676  48.585  0.00  0.00     0.210 HD
ENDBRANCH  23  24
BRANCH  23  26
HETATM   26  C   UNK N   1      45.491  33.265  48.341  0.00  0.00    -0.065 C 
HETATM   27  C   UNK N   1      44.171  33.365  48.585  0.00  0.00     0.016 C 
HETATM   28  C   UNK N   1      46.410  34.388  48.751  0.00  0.00     0.045 C 
ENDBRANCH  23  26
ENDBRANCH  22  23
ENDBRANCH   3  22
BRANCH   4  29
HETATM   29  C   UNK N   1      50.677  30.659  43.574  0.00  0.00     0.068 C 
BRANCH  29  30
HETATM   30  C   UNK N   1      51.647  31.659  42.987  0.00  0.00    -0.020 C 
HETATM   31  C   UNK N   1      51.584  32.208  41.746  0.00  0.00    -0.091 C 
HETATM   32  C   UNK N   1      52.641  33.201  41.330  0.00  0.00     0.042 C 
HETATM   33  C   UNK N   1      50.516  31.895  40.723  0.00  0.00     0.042 C 
ENDBRANCH  29  30
ENDBRANCH   4  29
BRANCH   1  34
HETATM   34  O   UNK N   1      47.906  31.245  43.821  0.00  0.00    -0.360 OA
HETATM   35  H   UNK N   1      48.190  31.379  42.910  0.00  0.00     0.217 HD
ENDBRANCH   1  34
TORSDOF 10
ENDMDL
MODEL 4
REMARK VINA RESULT:      -6.5      1.698      7.788
REMARK  10 active torsions:
REMARK  status: ('A' for Active; 'I' for Inactive)
REMARK    1  A    between atoms: O_2  and  C_8 
REMARK    2  A    between atoms: O_3  and  C_9 
REMARK    3  A    between atoms: O_4  and  C_10 
REMARK    4  A    between atoms: O_5  and  C_20 
REMARK    5  A    between atoms: C_11  and  C_19 
REMARK    6  A    between atoms: C_13  and  C_22 
REMARK    7  A    between atoms: C_14  and  C_23 
REMARK    8  A    between atoms: C_20  and  C_22 
REMARK    9  A    between atoms: C_20  and  C_24 
REMARK   10  A    between atoms: C_23  and  C_27 
ROOT
HETATM    1  C   UNK N   1      41.186  43.553  48.640  0.00  0.00     0.078 A 
HETATM    2  C   UNK N   1      40.900  45.676  46.809  0.00  0.00    -0.027 A 
HETATM    3  C   UNK N   1      40.555  44.762  49.042  0.00  0.00    -0.021 A 
HETATM    4  C   UNK N   1      41.670  43.424  47.320  0.00  0.00    -0.020 A 
HETATM    5  C   UNK N   1      40.425  45.812  48.118  0.00  0.00     0.019 A 
HETATM    6  C   UNK N   1      41.525  44.485  46.420  0.00  0.00     0.020 A 
ENDROOT
BRANCH   2   7
HETATM    7  C   UNK N   1      40.746  46.790  45.807  0.00  0.00     0.169 C 
HETATM    8  O   UNK N   1      39.412  47.119  45.608  0.00  0.00    -0.340 OA
HETATM    9  C   UNK N   1      39.065  48.147  44.790  0.00  0.00     0.089 A 
HETATM   10  C   UNK N   1      40.000  49.163  44.502  0.00  0.00     0.076 A 
HETATM   11  C   UNK N   1      37.790  48.179  44.221  0.00  0.00     0.074 A 
HETATM   12  C   UNK N   1      39.656  50.191  43.599  0.00  0.00     0.085 A 
HETATM   13  C   UNK N   1      41.320  49.102  45.188  0.00  0.00     0.167 C 
HETATM   14  C   UNK N   1      38.379  50.198  43.015  0.00  0.00     0.074 A 
HETATM   15  C   UNK N   1      37.445  49.201  43.331  0.00  0.00     0.071 A 
HETATM   16  O   UNK N   1      42.191  49.930  44.971  0.00  0.00    -0.292 OA
HETATM   17  C   UNK N   1      41.546  48.029  46.221  0.00  0.00     0.121 C 
BRANCH  12  18
HETATM   18  O   UNK N   1      40.543  51.160  43.293  0.00  0.00    -0.360 OA
HETATM   19  H   UNK N   1      41.498  51.006  43.331  0.00  0.00     0.217 HD
ENDBRANCH  12  18
BRANCH  15  20
HETATM   20  O   UNK N   1      36.217  49.211  42.774  0.00  0.00    -0.361 OA
HETATM   21  H   UNK N   1      35.434  48.929  43.269  0.00  0.00     0.217 HD
ENDBRANCH  15  20
ENDBRANCH   2   7
BRANCH   3  22
HETATM   22  C   UNK N   1      39.998  44.964  50.438  0.00  0.00     0.077 C 
BRANCH  22  23
HETATM   23  C   UNK N   1      41.099  45.099  51.517  0.00  0.00     0.150 C 
BRANCH  23  24
HETATM   24  O   UNK N   1      42.398  45.151  50.979  0.00  0.00    -0.391 OA
HETATM   25  H   UNK N   1      42.837  45.979  51.294  0.00  0.00     0.210 HD
ENDBRANCH  23  24
BRANCH  23  26
HETATM   26  C   UNK N   1      40.967  44.063  52.631  0.00  0.00    -0.065 C 
HETATM   27  C   UNK N   1      41.934  43.879  53.549  0.00  0.00     0.016 C 
HETATM   28  C   UNK N   1      39.718  43.220  52.687  0.00  0.00     0.045 C 
ENDBRANCH  23  26
ENDBRANCH  22  23
ENDBRANCH   3  22
BRANCH   4  29
HETATM   29  C   UNK N   1      42.335  42.151  46.855  0.00  0.00     0.068 C 
BRANCH  29  30
HETATM   30  C   UNK N   1      42.957  42.361  45.494  0.00  0.00    -0.020 C 
HETATM   31  C   UNK N   1      44.275  42.239  45.183  0.00  0.00    -0.091 C 
HETATM   32  C   UNK N   1      44.716  42.480  43.761  0.00  0.00     0.042 C 
HETATM   33  C   UNK N   1      45.358  41.874  46.172  0.00  0.00     0.042 C 
ENDBRANCH  29  30
ENDBRANCH   4  29
BRANCH   1  34
HETATM   34  O   UNK N   1      41.340  42.513  49.494  0.00  0.00    -0.360 OA
HETATM   35  H   UNK N   1      41.302  42.592  50.454  0.00  0.00     0.217 HD
ENDBRANCH   1  34
TORSDOF 10
ENDMDL
MODEL 5
REMARK VINA RESULT:      -6.5     13.108     15.700
REMARK  10 active torsions:
REMARK  status: ('A' for Active; 'I' for Inactive)
REMARK    1  A    between atoms: O_2  and  C_8 
REMARK    2  A    between atoms: O_3  and  C_9 
REMARK    3  A    between atoms: O_4  and  C_10 
REMARK    4  A    between atoms: O_5  and  C_20 
REMARK    5  A    between atoms: C_11  and  C_19 
REMARK    6  A    between atoms: C_13  and  C_22 
REMARK    7  A    between atoms: C_14  and  C_23 
REMARK    8  A    between atoms: C_20  and  C_22 
REMARK    9  A    between atoms: C_20  and  C_24 
REMARK   10  A    between atoms: C_23  and  C_27 
ROOT
HETATM    1  C   UNK N   1      48.524  31.848  45.743  0.00  0.00     0.078 A 
HETATM    2  C   UNK N   1      49.936  32.652  48.045  0.00  0.00    -0.027 A 
HETATM    3  C   UNK N   1      47.828  32.415  46.846  0.00  0.00    -0.021 A 
HETATM    4  C   UNK N   1      49.925  31.689  45.810  0.00  0.00    -0.020 A 
HETATM    5  C   UNK N   1      48.546  32.806  47.987  0.00  0.00     0.019 A 
HETATM    6  C   UNK N   1      50.616  32.090  46.959  0.00  0.00     0.020 A 
ENDROOT
BRANCH   2   7
HETATM    7  C   UNK N   1      50.716  33.088  49.258  0.00  0.00     0.169 C 
HETATM    8  O   UNK N   1      50.005  32.866  50.430  0.00  0.00    -0.340 OA
HETATM    9  C   UNK N   1      50.563  33.131  51.641  0.00  0.00     0.089 A 
HETATM   10  C   UNK N   1      51.967  33.187  51.772  0.00  0.00     0.076 A 
HETATM   11  C   UNK N   1      49.742  33.368  52.745  0.00  0.00     0.074 A 
HETATM   12  C   UNK N   1      52.537  33.529  53.016  0.00  0.00     0.085 A 
HETATM   13  C   UNK N   1      52.786  32.865  50.570  0.00  0.00     0.167 C 
HETATM   14  C   UNK N   1      51.699  33.789  54.112  0.00  0.00     0.074 A 
HETATM   15  C   UNK N   1      50.306  33.701  53.980  0.00  0.00     0.071 A 
HETATM   16  O   UNK N   1      54.006  32.916  50.598  0.00  0.00    -0.292 OA
HETATM   17  C   UNK N   1      52.083  32.399  49.323  0.00  0.00     0.121 C 
BRANCH  12  18
HETATM   18  O   UNK N   1      53.876  33.609  53.156  0.00  0.00    -0.360 OA
HETATM   19  H   UNK N   1      54.359  33.042  53.776  0.00  0.00     0.217 HD
ENDBRANCH  12  18
BRANCH  15  20
HETATM   20  O   UNK N   1      49.502  33.945  55.035  0.00  0.00    -0.361 OA
HETATM   21  H   UNK N   1      48.554  34.112  54.921  0.00  0.00     0.217 HD
ENDBRANCH  15  20
ENDBRANCH   2   7
BRANCH   3  22
HETATM   22  C   UNK N   1      46.326  32.628  46.837  0.00  0.00     0.077 C 
BRANCH  22  23
HETATM   23  C   UNK N   1      45.633  32.127  48.126  0.00  0.00     0.150 C 
BRANCH  23  24
HETATM   24  O   UNK N   1      44.891  30.947  47.934  0.00  0.00    -0.391 OA
HETATM   25  H   UNK N   1      45.221  30.260  48.564  0.00  0.00     0.210 HD
ENDBRANCH  23  24
BRANCH  23  26
HETATM   26  C   UNK N   1      44.829  33.218  48.829  0.00  0.00    -0.065 C 
HETATM   27  C   UNK N   1      43.612  33.595  48.395  0.00  0.00     0.016 C 
HETATM   28  C   UNK N   1      45.431  33.893  50.036  0.00  0.00     0.045 C 
ENDBRANCH  23  26
ENDBRANCH  22  23
ENDBRANCH   3  22
BRANCH   4  29
HETATM   29  C   UNK N   1      50.698  31.102  44.655  0.00  0.00     0.068 C 
BRANCH  29  30
HETATM   30  C   UNK N   1      51.627  32.143  44.072  0.00  0.00    -0.020 C 
HETATM   31  C   UNK N   1      51.792  32.426  42.753  0.00  0.00    -0.091 C 
HETATM   32  C   UNK N   1      52.762  33.510  42.354  0.00  0.00     0.042 C 
HETATM   33  C   UNK N   1      51.065  31.725  41.628  0.00  0.00     0.042 C 
ENDBRANCH  29  30
ENDBRANCH   4  29
BRANCH   1  34
HETATM   34  O   UNK N   1      47.877  31.450  44.622  0.00  0.00    -0.360 OA
HETATM   35  H   UNK N   1      47.707  32.020  43.864  0.00  0.00     0.217 HD
ENDBRANCH   1  34
TORSDOF 10
ENDMDL
MODEL 6
REMARK VINA RESULT:      -6.0     13.496     16.259
REMARK  10 active torsions:
REMARK  status: ('A' for Active; 'I' for Inactive)
REMARK    1  A    between atoms: O_2  and  C_8 
REMARK    2  A    between atoms: O_3  and  C_9 
REMARK    3  A    between atoms: O_4  and  C_10 
REMARK    4  A    between atoms: O_5  and  C_20 
REMARK    5  A    between atoms: C_11  and  C_19 
REMARK    6  A    between atoms: C_13  and  C_22 
REMARK    7  A    between atoms: C_14  and  C_23 
REMARK    8  A    between atoms: C_20  and  C_22 
REMARK    9  A    between atoms: C_20  and  C_24 
REMARK   10  A    between atoms: C_23  and  C_27 
ROOT
HETATM    1  C   UNK N   1      30.288  41.055  58.526  0.00  0.00     0.078 A 
HETATM    2  C   UNK N   1      29.052  41.499  56.032  0.00  0.00    -0.027 A 
HETATM    3  C   UNK N   1      30.428  42.311  57.873  0.00  0.00    -0.021 A 
HETATM    4  C   UNK N   1      29.528  40.033  57.916  0.00  0.00    -0.020 A 
HETATM    5  C   UNK N   1      29.809  42.513  56.629  0.00  0.00     0.019 A 
HETATM    6  C   UNK N   1      28.920  40.263  56.677  0.00  0.00     0.020 A 
ENDROOT
BRANCH   2   7
HETATM    7  C   UNK N   1      28.369  41.716  54.708  0.00  0.00     0.169 C 
HETATM    8  O   UNK N   1      27.374  42.680  54.797  0.00  0.00    -0.340 OA
HETATM    9  C   UNK N   1      26.684  43.069  53.692  0.00  0.00     0.089 A 
HETATM   10  C   UNK N   1      27.238  42.873  52.411  0.00  0.00     0.076 A 
HETATM   11  C   UNK N   1      25.418  43.643  53.833  0.00  0.00     0.074 A 
HETATM   12  C   UNK N   1      26.488  43.217  51.267  0.00  0.00     0.085 A 
HETATM   13  C   UNK N   1      28.615  42.312  52.332  0.00  0.00     0.167 C 
HETATM   14  C   UNK N   1      25.207  43.771  51.422  0.00  0.00     0.074 A 
HETATM   15  C   UNK N   1      24.676  43.991  52.700  0.00  0.00     0.071 A 
HETATM   16  O   UNK N   1      29.153  42.089  51.259  0.00  0.00    -0.292 OA
HETATM   17  C   UNK N   1      29.375  42.086  53.613  0.00  0.00     0.121 C 
BRANCH  12  18
HETATM   18  O   UNK N   1      26.991  43.017  50.032  0.00  0.00    -0.360 OA
HETATM   19  H   UNK N   1      26.627  42.345  49.436  0.00  0.00     0.217 HD
ENDBRANCH  12  18
BRANCH  15  20
HETATM   20  O   UNK N   1      23.448  44.528  52.849  0.00  0.00    -0.361 OA
HETATM   21  H   UNK N   1      22.719  44.024  53.242  0.00  0.00     0.217 HD
ENDBRANCH  15  20
ENDBRANCH   2   7
BRANCH   3  22
HETATM   22  C   UNK N   1      31.216  43.457  58.476  0.00  0.00     0.077 C 
BRANCH  22  23
HETATM   23  C   UNK N   1      31.182  44.739  57.610  0.00  0.00     0.150 C 
BRANCH  23  24
HETATM   24  O   UNK N   1      32.420  45.035  57.011  0.00  0.00    -0.391 OA
HETATM   25  H   UNK N   1      33.132  44.555  57.502  0.00  0.00     0.210 HD
ENDBRANCH  23  24
BRANCH  23  26
HETATM   26  C   UNK N   1      30.586  45.937  58.347  0.00  0.00    -0.065 C 
HETATM   27  C   UNK N   1      30.255  45.876  59.650  0.00  0.00     0.016 C 
HETATM   28  C   UNK N   1      30.357  47.214  57.579  0.00  0.00     0.045 C 
ENDBRANCH  23  26
ENDBRANCH  22  23
ENDBRANCH   3  22
BRANCH   4  29
HETATM   29  C   UNK N   1      29.349  38.692  58.585  0.00  0.00     0.068 C 
BRANCH  29  30
HETATM   30  C   UNK N   1      29.928  37.599  57.715  0.00  0.00    -0.020 C 
HETATM   31  C   UNK N   1      29.225  36.688  56.993  0.00  0.00    -0.091 C 
HETATM   32  C   UNK N   1      29.975  35.669  56.172  0.00  0.00     0.042 C 
HETATM   33  C   UNK N   1      27.716  36.609  56.948  0.00  0.00     0.042 C 
ENDBRANCH  29  30
ENDBRANCH   4  29
BRANCH   1  34
HETATM   34  O   UNK N   1      30.868  40.808  59.724  0.00  0.00    -0.360 OA
HETATM   35  H   UNK N   1      31.168  39.938  60.011  0.00  0.00     0.217 HD
ENDBRANCH   1  34
TORSDOF 10
ENDMDL
MODEL 7
REMARK VINA RESULT:      -5.9     13.570     15.690
REMARK  10 active torsions:
REMARK  status: ('A' for Active; 'I' for Inactive)
REMARK    1  A    between atoms: O_2  and  C_8 
REMARK    2  A    between atoms: O_3  and  C_9 
REMARK    3  A    between atoms: O_4  and  C_10 
REMARK    4  A    between atoms: O_5  and  C_20 
REMARK    5  A    between atoms: C_11  and  C_19 
REMARK    6  A    between atoms: C_13  and  C_22 
REMARK    7  A    between atoms: C_14  and  C_23 
REMARK    8  A    between atoms: C_20  and  C_22 
REMARK    9  A    between atoms: C_20  and  C_24 
REMARK   10  A    between atoms: C_23  and  C_27 
ROOT
HETATM    1  C   UNK N   1      27.829  40.625  53.043  0.00  0.00     0.078 A 
HETATM    2  C   UNK N   1      29.062  41.500  55.420  0.00  0.00    -0.027 A 
HETATM    3  C   UNK N   1      27.978  39.732  54.140  0.00  0.00    -0.021 A 
HETATM    4  C   UNK N   1      28.304  41.949  53.151  0.00  0.00    -0.020 A 
HETATM    5  C   UNK N   1      28.600  40.184  55.315  0.00  0.00     0.019 A 
HETATM    6  C   UNK N   1      28.917  42.373  54.336  0.00  0.00     0.020 A 
ENDROOT
BRANCH   2   7
HETATM    7  C   UNK N   1      29.712  41.997  56.685  0.00  0.00     0.169 C 
HETATM    8  O   UNK N   1      29.767  41.005  57.655  0.00  0.00    -0.340 OA
HETATM    9  C   UNK N   1      30.377  41.234  58.848  0.00  0.00     0.089 A 
HETATM   10  C   UNK N   1      31.337  42.262  58.962  0.00  0.00     0.076 A 
HETATM   11  C   UNK N   1      30.033  40.464  59.961  0.00  0.00     0.074 A 
HETATM   12  C   UNK N   1      31.916  42.538  60.218  0.00  0.00     0.085 A 
HETATM   13  C   UNK N   1      31.701  43.006  57.725  0.00  0.00     0.167 C 
HETATM   14  C   UNK N   1      31.543  41.772  61.334  0.00  0.00     0.074 A 
HETATM   15  C   UNK N   1      30.612  40.732  61.205  0.00  0.00     0.071 A 
HETATM   16  O   UNK N   1      32.505  43.926  57.747  0.00  0.00    -0.292 OA
HETATM   17  C   UNK N   1      31.112  42.557  56.414  0.00  0.00     0.121 C 
BRANCH  12  18
HETATM   18  O   UNK N   1      32.819  43.531  60.352  0.00  0.00    -0.360 OA
HETATM   19  H   UNK N   1      32.715  44.380  59.898  0.00  0.00     0.217 HD
ENDBRANCH  12  18
BRANCH  15  20
HETATM   20  O   UNK N   1      30.258  39.993  62.276  0.00  0.00    -0.361 OA
HETATM   21  H   UNK N   1      29.403  40.113  62.715  0.00  0.00     0.217 HD
ENDBRANCH  15  20
ENDBRANCH   2   7
BRANCH   3  22
HETATM   22  C   UNK N   1      27.478  38.301  54.098  0.00  0.00     0.077 C 
BRANCH  22  23
HETATM   23  C   UNK N   1      28.491  37.323  53.457  0.00  0.00     0.150 C 
BRANCH  23  24
HETATM   24  O   UNK N   1      27.913  36.484  52.486  0.00  0.00    -0.391 OA
HETATM   25  H   UNK N   1      28.180  36.806  51.590  0.00  0.00     0.210 HD
ENDBRANCH  23  24
BRANCH  23  26
HETATM   26  C   UNK N   1      29.303  36.548  54.492  0.00  0.00    -0.065 C 
HETATM   27  C   UNK N   1      30.635  36.705  54.612  0.00  0.00     0.016 C 
HETATM   28  C   UNK N   1      28.584  35.575  55.391  0.00  0.00     0.045 C 
ENDBRANCH  23  26
ENDBRANCH  22  23
ENDBRANCH   3  22
BRANCH   4  29
HETATM   29  C   UNK N   1      28.152  42.927  52.012  0.00  0.00     0.068 C 
BRANCH  29  30
HETATM   30  C   UNK N   1      26.926  43.785  52.226  0.00  0.00    -0.020 C 
HETATM   31  C   UNK N   1      25.801  43.786  51.463  0.00  0.00    -0.091 C 
HETATM   32  C   UNK N   1      24.667  44.709  51.833  0.00  0.00     0.042 C 
HETATM   33  C   UNK N   1      25.593  42.919  50.242  0.00  0.00     0.042 C 
ENDBRANCH  29  30
ENDBRANCH   4  29
BRANCH   1  34
HETATM   34  O   UNK N   1      27.242  40.237  51.886  0.00  0.00    -0.360 OA
HETATM   35  H   UNK N   1      27.701  40.174  51.041  0.00  0.00     0.217 HD
ENDBRANCH   1  34
TORSDOF 10
ENDMDL
MODEL 8
REMARK VINA RESULT:      -5.9     13.516     14.905
REMARK  10 active torsions:
REMARK  status: ('A' for Active; 'I' for Inactive)
REMARK    1  A    between atoms: O_2  and  C_8 
REMARK    2  A    between atoms: O_3  and  C_9 
REMARK    3  A    between atoms: O_4  and  C_10 
REMARK    4  A    between atoms: O_5  and  C_20 
REMARK    5  A    between atoms: C_11  and  C_19 
REMARK    6  A    between atoms: C_13  and  C_22 
REMARK    7  A    between atoms: C_14  and  C_23 
REMARK    8  A    between atoms: C_20  and  C_22 
REMARK    9  A    between atoms: C_20  and  C_24 
REMARK   10  A    between atoms: C_23  and  C_27 
ROOT
HETATM    1  C   UNK N   1      28.072  40.581  53.084  0.00  0.00     0.078 A 
HETATM    2  C   UNK N   1      29.212  41.571  55.464  0.00  0.00    -0.027 A 
HETATM    3  C   UNK N   1      28.449  41.949  53.180  0.00  0.00    -0.021 A 
HETATM    4  C   UNK N   1      28.269  39.724  54.188  0.00  0.00    -0.020 A 
HETATM    5  C   UNK N   1      29.012  42.427  54.375  0.00  0.00     0.019 A 
HETATM    6  C   UNK N   1      28.835  40.226  55.366  0.00  0.00     0.020 A 
ENDROOT
BRANCH   2   7
HETATM    7  C   UNK N   1      29.833  42.071  56.741  0.00  0.00     0.169 C 
HETATM    8  O   UNK N   1      29.845  41.091  57.724  0.00  0.00    -0.340 OA
HETATM    9  C   UNK N   1      30.424  41.324  58.931  0.00  0.00     0.089 A 
HETATM   10  C   UNK N   1      31.398  42.337  59.060  0.00  0.00     0.076 A 
HETATM   11  C   UNK N   1      30.037  40.573  60.042  0.00  0.00     0.074 A 
HETATM   12  C   UNK N   1      31.946  42.619  60.328  0.00  0.00     0.085 A 
HETATM   13  C   UNK N   1      31.809  43.061  57.825  0.00  0.00     0.167 C 
HETATM   14  C   UNK N   1      31.529  41.872  61.442  0.00  0.00     0.074 A 
HETATM   15  C   UNK N   1      30.584  40.846  61.299  0.00  0.00     0.071 A 
HETATM   16  O   UNK N   1      32.627  43.967  57.859  0.00  0.00    -0.292 OA
HETATM   17  C   UNK N   1      31.249  42.606  56.503  0.00  0.00     0.121 C 
BRANCH  12  18
HETATM   18  O   UNK N   1      32.861  43.598  60.477  0.00  0.00    -0.360 OA
HETATM   19  H   UNK N   1      33.808  43.405  60.544  0.00  0.00     0.217 HD
ENDBRANCH  12  18
BRANCH  15  20
HETATM   20  O   UNK N   1      30.189  40.126  62.368  0.00  0.00    -0.361 OA
HETATM   21  H   UNK N   1      29.984  39.181  62.295  0.00  0.00     0.217 HD
ENDBRANCH  15  20
ENDBRANCH   2   7
BRANCH   3  22
HETATM   22  C   UNK N   1      28.280  42.922  52.029  0.00  0.00     0.077 C 
BRANCH  22  23
HETATM   23  C   UNK N   1      26.951  43.712  52.093  0.00  0.00     0.150 C 
BRANCH  23  24
HETATM   24  O   UNK N   1      26.612  44.123  53.395  0.00  0.00    -0.391 OA
HETATM   25  H   UNK N   1      26.145  43.380  53.849  0.00  0.00     0.210 HD
ENDBRANCH  23  24
BRANCH  23  26
HETATM   26  C   UNK N   1      25.801  42.997  51.387  0.00  0.00    -0.065 C 
HETATM   27  C   UNK N   1      25.707  42.957  50.045  0.00  0.00     0.016 C 
HETATM   28  C   UNK N   1      24.742  42.331  52.227  0.00  0.00     0.045 C 
ENDBRANCH  23  26
ENDBRANCH  22  23
ENDBRANCH   3  22
BRANCH   4  29
HETATM   29  C   UNK N   1      27.891  38.265  54.119  0.00  0.00     0.068 C 
BRANCH  29  30
HETATM   30  C   UNK N   1      29.125  37.404  54.267  0.00  0.00    -0.020 C 
HETATM   31  C   UNK N   1      29.489  36.702  55.372  0.00  0.00    -0.091 C 
HETATM   32  C   UNK N   1      30.757  35.886  55.336  0.00  0.00     0.042 C 
HETATM   33  C   UNK N   1      28.707  36.675  56.666  0.00  0.00     0.042 C 
ENDBRANCH  29  30
ENDBRANCH   4  29
BRANCH   1  34
HETATM   34  O   UNK N   1      27.521  40.073  51.957  0.00  0.00    -0.360 OA
HETATM   35  H   UNK N   1      27.374  39.133  51.802  0.00  0.00     0.217 HD
ENDBRANCH   1  34
TORSDOF 10
ENDMDL
MODEL 9
REMARK VINA RESULT:      -5.9     12.668     15.427
REMARK  10 active torsions:
REMARK  status: ('A' for Active; 'I' for Inactive)
REMARK    1  A    between atoms: O_2  and  C_8 
REMARK    2  A    between atoms: O_3  and  C_9 
REMARK    3  A    between atoms: O_4  and  C_10 
REMARK    4  A    between atoms: O_5  and  C_20 
REMARK    5  A    between atoms: C_11  and  C_19 
REMARK    6  A    between atoms: C_13  and  C_22 
REMARK    7  A    between atoms: C_14  and  C_23 
REMARK    8  A    between atoms: C_20  and  C_22 
REMARK    9  A    between atoms: C_20  and  C_24 
REMARK   10  A    between atoms: C_23  and  C_27 
ROOT
HETATM    1  C   UNK N   1      48.739  32.436  46.837  0.00  0.00     0.078 A 
HETATM    2  C   UNK N   1      49.431  32.510  49.568  0.00  0.00    -0.027 A 
HETATM    3  C   UNK N   1      47.942  33.172  47.756  0.00  0.00    -0.021 A 
HETATM    4  C   UNK N   1      49.877  31.742  47.302  0.00  0.00    -0.020 A 
HETATM    5  C   UNK N   1      48.298  33.195  49.114  0.00  0.00     0.019 A 
HETATM    6  C   UNK N   1      50.210  31.784  48.661  0.00  0.00     0.020 A 
ENDROOT
BRANCH   2   7
HETATM    7  C   UNK N   1      49.830  32.547  51.020  0.00  0.00     0.169 C 
HETATM    8  O   UNK N   1      48.747  32.303  51.855  0.00  0.00    -0.340 OA
HETATM    9  C   UNK N   1      48.913  32.227  53.202  0.00  0.00     0.089 A 
HETATM   10  C   UNK N   1      50.184  31.935  53.739  0.00  0.00     0.076 A 
HETATM   11  C   UNK N   1      47.826  32.461  54.047  0.00  0.00     0.074 A 
HETATM   12  C   UNK N   1      50.363  31.924  55.138  0.00  0.00     0.085 A 
HETATM   13  C   UNK N   1      51.286  31.637  52.783  0.00  0.00     0.167 C 
HETATM   14  C   UNK N   1      49.267  32.185  55.977  0.00  0.00     0.074 A 
HETATM   15  C   UNK N   1      48.001  32.444  55.435  0.00  0.00     0.071 A 
HETATM   16  O   UNK N   1      52.420  31.399  53.171  0.00  0.00    -0.292 OA
HETATM   17  C   UNK N   1      50.964  31.560  51.314  0.00  0.00     0.121 C 
BRANCH  12  18
HETATM   18  O   UNK N   1      51.575  31.669  55.672  0.00  0.00    -0.360 OA
HETATM   19  H   UNK N   1      51.795  31.921  56.581  0.00  0.00     0.217 HD
ENDBRANCH  12  18
BRANCH  15  20
HETATM   20  O   UNK N   1      46.948  32.690  56.240  0.00  0.00    -0.361 OA
HETATM   21  H   UNK N   1      47.057  33.125  57.099  0.00  0.00     0.217 HD
ENDBRANCH  15  20
ENDBRANCH   2   7
BRANCH   3  22
HETATM   22  C   UNK N   1      46.716  33.954  47.324  0.00  0.00     0.077 C 
BRANCH  22  23
HETATM   23  C   UNK N   1      45.415  33.116  47.368  0.00  0.00     0.150 C 
BRANCH  23  24
HETATM   24  O   UNK N   1      44.488  33.479  46.374  0.00  0.00    -0.391 OA
HETATM   25  H   UNK N   1      44.052  34.325  46.643  0.00  0.00     0.210 HD
ENDBRANCH  23  24
BRANCH  23  26
HETATM   26  C   UNK N   1      44.791  33.063  48.760  0.00  0.00    -0.065 C 
HETATM   27  C   UNK N   1      44.647  34.167  49.516  0.00  0.00     0.016 C 
HETATM   28  C   UNK N   1      44.339  31.729  49.298  0.00  0.00     0.045 C 
ENDBRANCH  23  26
ENDBRANCH  22  23
ENDBRANCH   3  22
BRANCH   4  29
HETATM   29  C   UNK N   1      50.753  30.959  46.355  0.00  0.00     0.068 C 
BRANCH  29  30
HETATM   30  C   UNK N   1      51.582  31.905  45.517  0.00  0.00    -0.020 C 
HETATM   31  C   UNK N   1      51.586  31.986  44.160  0.00  0.00    -0.091 C 
HETATM   32  C   UNK N   1      52.477  33.003  43.490  0.00  0.00     0.042 C 
HETATM   33  C   UNK N   1      50.750  31.118  43.247  0.00  0.00     0.042 C 
ENDBRANCH  29  30
ENDBRANCH   4  29
BRANCH   1  34
HETATM   34  O   UNK N   1      48.436  32.378  45.519  0.00  0.00    -0.360 OA
HETATM   35  H   UNK N   1      48.796  31.725  44.909  0.00  0.00     0.217 HD
ENDBRANCH   1  34
TORSDOF 10
ENDMDL
