MODEL 1
REMARK VINA RESULT:      -9.1      0.000      0.000
REMARK  7 active torsions:
REMARK  status: ('A' for Active; 'I' for Inactive)
REMARK    1  A    between atoms: O_2  and  C_6 
REMARK    2  A    between atoms: O_3  and  C_7 
REMARK    3  A    between atoms: C_8  and  C_17 
REMARK    4  A    between atoms: C_10  and  C_19 
REMARK    5  A    between atoms: C_11  and  C_20 
REMARK    6  A    between atoms: C_19  and  C_24 
REMARK    7  A    between atoms: C_20  and  C_25 
ROOT
HETATM    1  C   UNK N   1      41.211  45.899  45.626  0.00  0.00     0.078 A 
HETATM    2  C   UNK N   1      41.078  45.576  48.422  0.00  0.00    -0.027 A 
HETATM    3  C   UNK N   1      41.096  47.027  46.469  0.00  0.00    -0.020 A 
HETATM    4  C   UNK N   1      41.248  44.595  46.194  0.00  0.00    -0.020 A 
HETATM    5  C   UNK N   1      41.030  46.854  47.855  0.00  0.00     0.020 A 
HETATM    6  C   UNK N   1      41.184  44.452  47.590  0.00  0.00     0.020 A 
ENDROOT
BRANCH   2   7
HETATM    7  C   UNK N   1      41.021  45.434  49.922  0.00  0.00     0.169 C 
HETATM    8  O   UNK N   1      40.509  44.203  50.302  0.00  0.00    -0.340 OA
HETATM    9  C   UNK N   1      40.427  43.862  51.613  0.00  0.00     0.086 A 
HETATM   10  C   UNK N   1      41.255  44.501  52.556  0.00  0.00     0.043 A 
HETATM   11  C   UNK N   1      39.511  42.892  52.025  0.00  0.00     0.074 A 
HETATM   12  C   UNK N   1      41.129  44.188  53.919  0.00  0.00     0.021 A 
HETATM   13  C   UNK N   1      42.252  45.481  52.063  0.00  0.00     0.165 C 
HETATM   14  C   UNK N   1      40.192  43.234  54.330  0.00  0.00     0.037 A 
HETATM   15  C   UNK N   1      39.386  42.578  53.385  0.00  0.00     0.068 A 
HETATM   16  O   UNK N   1      43.002  46.060  52.833  0.00  0.00    -0.292 OA
HETATM   17  C   UNK N   1      42.393  45.677  50.574  0.00  0.00     0.121 C 
BRANCH  15  18
HETATM   18  O   UNK N   1      38.485  41.653  53.771  0.00  0.00    -0.361 OA
HETATM   19  H   UNK N   1      38.452  41.326  54.682  0.00  0.00     0.217 HD
ENDBRANCH  15  18
ENDBRANCH   2   7
BRANCH   3  20
HETATM   20  C   UNK N   1      41.059  48.429  45.909  0.00  0.00     0.068 C 
BRANCH  20  21
HETATM   21  C   UNK N   1      39.742  48.703  45.213  0.00  0.00    -0.020 C 
HETATM   22  C   UNK N   1      39.468  49.746  44.384  0.00  0.00    -0.091 C 
HETATM   23  C   UNK N   1      38.109  49.828  43.732  0.00  0.00     0.042 C 
HETATM   24  C   UNK N   1      40.442  50.854  44.051  0.00  0.00     0.042 C 
ENDBRANCH  20  21
ENDBRANCH   3  20
BRANCH   4  25
HETATM   25  C   UNK N   1      41.361  43.345  45.344  0.00  0.00     0.068 C 
BRANCH  25  26
HETATM   26  C   UNK N   1      42.799  43.118  44.938  0.00  0.00    -0.020 C 
HETATM   27  C   UNK N   1      43.585  42.067  45.285  0.00  0.00    -0.091 C 
HETATM   28  C   UNK N   1      45.010  42.022  44.790  0.00  0.00     0.042 C 
HETATM   29  C   UNK N   1      43.132  40.915  46.150  0.00  0.00     0.042 C 
ENDBRANCH  25  26
ENDBRANCH   4  25
BRANCH   1  30
HETATM   30  O   UNK N   1      41.270  46.089  44.288  0.00  0.00    -0.360 OA
HETATM   31  H   UNK N   1      41.477  45.393  43.655  0.00  0.00     0.217 HD
ENDBRANCH   1  30
TORSDOF 7
ENDMDL
MODEL 2
REMARK VINA RESULT:      -8.1      1.973      8.306
REMARK  7 active torsions:
REMARK  status: ('A' for Active; 'I' for Inactive)
REMARK    1  A    between atoms: O_2  and  C_6 
REMARK    2  A    between atoms: O_3  and  C_7 
REMARK    3  A    between atoms: C_8  and  C_17 
REMARK    4  A    between atoms: C_10  and  C_19 
REMARK    5  A    between atoms: C_11  and  C_20 
REMARK    6  A    between atoms: C_19  and  C_24 
REMARK    7  A    between atoms: C_20  and  C_25 
ROOT
HETATM    1  C   UNK N   1      41.575  44.140  47.891  0.00  0.00     0.078 A 
HETATM    2  C   UNK N   1      40.757  46.643  46.889  0.00  0.00    -0.027 A 
HETATM    3  C   UNK N   1      41.208  44.278  46.534  0.00  0.00    -0.020 A 
HETATM    4  C   UNK N   1      41.519  45.268  48.755  0.00  0.00    -0.020 A 
HETATM    5  C   UNK N   1      40.803  45.526  46.048  0.00  0.00     0.020 A 
HETATM    6  C   UNK N   1      41.112  46.509  48.239  0.00  0.00     0.020 A 
ENDROOT
BRANCH   2   7
HETATM    7  C   UNK N   1      40.331  47.974  46.321  0.00  0.00     0.169 C 
HETATM    8  O   UNK N   1      39.860  47.848  45.022  0.00  0.00    -0.340 OA
HETATM    9  C   UNK N   1      39.379  48.928  44.354  0.00  0.00     0.086 A 
HETATM   10  C   UNK N   1      38.914  50.046  45.072  0.00  0.00     0.043 A 
HETATM   11  C   UNK N   1      39.363  48.932  42.958  0.00  0.00     0.074 A 
HETATM   12  C   UNK N   1      38.469  51.183  44.379  0.00  0.00     0.021 A 
HETATM   13  C   UNK N   1      38.896  49.970  46.553  0.00  0.00     0.165 C 
HETATM   14  C   UNK N   1      38.478  51.193  42.981  0.00  0.00     0.037 A 
HETATM   15  C   UNK N   1      38.917  50.066  42.266  0.00  0.00     0.068 A 
HETATM   16  O   UNK N   1      38.497  50.906  47.228  0.00  0.00    -0.292 OA
HETATM   17  C   UNK N   1      39.290  48.671  47.211  0.00  0.00     0.121 C 
BRANCH  15  18
HETATM   18  O   UNK N   1      38.924  50.065  40.918  0.00  0.00    -0.361 OA
HETATM   19  H   UNK N   1      39.715  49.825  40.415  0.00  0.00     0.217 HD
ENDBRANCH  15  18
ENDBRANCH   2   7
BRANCH   3  20
HETATM   20  C   UNK N   1      41.258  43.108  45.580  0.00  0.00     0.068 C 
BRANCH  20  21
HETATM   21  C   UNK N   1      42.629  42.979  44.949  0.00  0.00    -0.020 C 
HETATM   22  C   UNK N   1      43.523  41.975  45.157  0.00  0.00    -0.091 C 
HETATM   23  C   UNK N   1      44.825  41.982  44.396  0.00  0.00     0.042 C 
HETATM   24  C   UNK N   1      43.307  40.821  46.111  0.00  0.00     0.042 C 
ENDBRANCH  20  21
ENDBRANCH   3  20
BRANCH   4  25
HETATM   25  C   UNK N   1      41.890  45.183  50.222  0.00  0.00     0.068 C 
BRANCH  25  26
HETATM   26  C   UNK N   1      40.901  44.310  50.961  0.00  0.00    -0.020 C 
HETATM   27  C   UNK N   1      40.803  44.152  52.306  0.00  0.00    -0.091 C 
HETATM   28  C   UNK N   1      39.755  43.219  52.860  0.00  0.00     0.042 C 
HETATM   29  C   UNK N   1      41.685  44.853  53.311  0.00  0.00     0.042 C 
ENDBRANCH  25  26
ENDBRANCH   4  25
BRANCH   1  30
HETATM   30  O   UNK N   1      41.961  42.923  48.340  0.00  0.00    -0.360 OA
HETATM   31  H   UNK N   1      42.832  42.545  48.184  0.00  0.00     0.217 HD
ENDBRANCH   1  30
TORSDOF 7
ENDMDL
MODEL 3
REMARK VINA RESULT:      -7.1      1.734      7.913
REMARK  7 active torsions:
REMARK  status: ('A' for Active; 'I' for Inactive)
REMARK    1  A    between atoms: O_2  and  C_6 
REMARK    2  A    between atoms: O_3  and  C_7 
REMARK    3  A    between atoms: C_8  and  C_17 
REMARK    4  A    between atoms: C_10  and  C_19 
REMARK    5  A    between atoms: C_11  and  C_20 
REMARK    6  A    between atoms: C_19  and  C_24 
REMARK    7  A    between atoms: C_20  and  C_25 
ROOT
HETATM    1  C   UNK N   1      41.628  43.519  49.021  0.00  0.00     0.078 A 
HETATM    2  C   UNK N   1      41.521  45.697  47.237  0.00  0.00    -0.027 A 
HETATM    3  C   UNK N   1      41.728  43.304  47.629  0.00  0.00    -0.020 A 
HETATM    4  C   UNK N   1      41.460  44.840  49.522  0.00  0.00    -0.020 A 
HETATM    5  C   UNK N   1      41.673  44.393  46.753  0.00  0.00     0.020 A 
HETATM    6  C   UNK N   1      41.412  45.915  48.618  0.00  0.00     0.020 A 
ENDROOT
BRANCH   2   7
HETATM    7  C   UNK N   1      41.484  46.845  46.260  0.00  0.00     0.169 C 
HETATM    8  O   UNK N   1      40.199  47.344  46.105  0.00  0.00    -0.340 OA
HETATM    9  C   UNK N   1      39.966  48.416  45.306  0.00  0.00     0.086 A 
HETATM   10  C   UNK N   1      41.013  49.309  45.007  0.00  0.00     0.043 A 
HETATM   11  C   UNK N   1      38.693  48.620  44.769  0.00  0.00     0.074 A 
HETATM   12  C   UNK N   1      40.783  50.385  44.135  0.00  0.00     0.021 A 
HETATM   13  C   UNK N   1      42.330  49.083  45.648  0.00  0.00     0.165 C 
HETATM   14  C   UNK N   1      39.513  50.571  43.580  0.00  0.00     0.037 A 
HETATM   15  C   UNK N   1      38.463  49.695  43.900  0.00  0.00     0.068 A 
HETATM   16  O   UNK N   1      43.273  49.828  45.433  0.00  0.00    -0.292 OA
HETATM   17  C   UNK N   1      42.459  47.966  46.654  0.00  0.00     0.121 C 
BRANCH  15  18
HETATM   18  O   UNK N   1      37.235  49.871  43.374  0.00  0.00    -0.361 OA
HETATM   19  H   UNK N   1      36.955  50.724  43.013  0.00  0.00     0.217 HD
ENDBRANCH  15  18
ENDBRANCH   2   7
BRANCH   3  20
HETATM   20  C   UNK N   1      41.913  41.919  47.055  0.00  0.00     0.068 C 
BRANCH  20  21
HETATM   21  C   UNK N   1      43.233  41.805  46.323  0.00  0.00    -0.020 C 
HETATM   22  C   UNK N   1      43.540  42.359  45.118  0.00  0.00    -0.091 C 
HETATM   23  C   UNK N   1      44.933  42.186  44.564  0.00  0.00     0.042 C 
HETATM   24  C   UNK N   1      42.573  43.157  44.273  0.00  0.00     0.042 C 
ENDBRANCH  20  21
ENDBRANCH   3  20
BRANCH   4  25
HETATM   25  C   UNK N   1      41.336  45.135  51.002  0.00  0.00     0.068 C 
BRANCH  25  26
HETATM   26  C   UNK N   1      40.353  44.183  51.644  0.00  0.00    -0.020 C 
HETATM   27  C   UNK N   1      40.463  43.604  52.867  0.00  0.00    -0.091 C 
HETATM   28  C   UNK N   1      39.379  42.663  53.333  0.00  0.00     0.042 C 
HETATM   29  C   UNK N   1      41.615  43.833  53.817  0.00  0.00     0.042 C 
ENDBRANCH  25  26
ENDBRANCH   4  25
BRANCH   1  30
HETATM   30  O   UNK N   1      41.680  42.450  49.850  0.00  0.00    -0.360 OA
HETATM   31  H   UNK N   1      42.498  42.081  50.199  0.00  0.00     0.217 HD
ENDBRANCH   1  30
TORSDOF 7
ENDMDL
MODEL 4
REMARK VINA RESULT:      -6.5     13.333     15.542
REMARK  7 active torsions:
REMARK  status: ('A' for Active; 'I' for Inactive)
REMARK    1  A    between atoms: O_2  and  C_6 
REMARK    2  A    between atoms: O_3  and  C_7 
REMARK    3  A    between atoms: C_8  and  C_17 
REMARK    4  A    between atoms: C_10  and  C_19 
REMARK    5  A    between atoms: C_11  and  C_20 
REMARK    6  A    between atoms: C_19  and  C_24 
REMARK    7  A    between atoms: C_20  and  C_25 
ROOT
HETATM    1  C   UNK N   1      28.219  40.381  53.388  0.00  0.00     0.078 A 
HETATM    2  C   UNK N   1      29.432  41.644  55.596  0.00  0.00    -0.027 A 
HETATM    3  C   UNK N   1      28.398  39.679  54.601  0.00  0.00    -0.020 A 
HETATM    4  C   UNK N   1      28.665  41.728  53.281  0.00  0.00    -0.020 A 
HETATM    5  C   UNK N   1      29.001  40.316  55.690  0.00  0.00     0.020 A 
HETATM    6  C   UNK N   1      29.265  42.343  54.393  0.00  0.00     0.020 A 
ENDROOT
BRANCH   2   7
HETATM    7  C   UNK N   1      30.062  42.299  56.800  0.00  0.00     0.169 C 
HETATM    8  O   UNK N   1      30.104  41.438  57.887  0.00  0.00    -0.340 OA
HETATM    9  C   UNK N   1      30.684  41.824  59.052  0.00  0.00     0.086 A 
HETATM   10  C   UNK N   1      31.635  42.862  59.051  0.00  0.00     0.043 A 
HETATM   11  C   UNK N   1      30.322  41.203  60.250  0.00  0.00     0.074 A 
HETATM   12  C   UNK N   1      32.192  43.298  60.264  0.00  0.00     0.021 A 
HETATM   13  C   UNK N   1      32.030  43.450  57.748  0.00  0.00     0.165 C 
HETATM   14  C   UNK N   1      31.808  42.690  61.464  0.00  0.00     0.037 A 
HETATM   15  C   UNK N   1      30.879  41.637  61.460  0.00  0.00     0.068 A 
HETATM   16  O   UNK N   1      32.856  44.347  57.685  0.00  0.00    -0.292 OA
HETATM   17  C   UNK N   1      31.463  42.848  56.486  0.00  0.00     0.121 C 
BRANCH  15  18
HETATM   18  O   UNK N   1      30.507  41.042  62.611  0.00  0.00    -0.361 OA
HETATM   19  H   UNK N   1      29.654  40.592  62.697  0.00  0.00     0.217 HD
ENDBRANCH  15  18
ENDBRANCH   2   7
BRANCH   3  20
HETATM   20  C   UNK N   1      27.934  38.250  54.760  0.00  0.00     0.068 C 
BRANCH  20  21
HETATM   21  C   UNK N   1      29.095  37.284  54.644  0.00  0.00    -0.020 C 
HETATM   22  C   UNK N   1      29.796  36.737  55.673  0.00  0.00    -0.091 C 
HETATM   23  C   UNK N   1      30.891  35.744  55.369  0.00  0.00     0.042 C 
HETATM   24  C   UNK N   1      29.555  37.047  57.134  0.00  0.00     0.042 C 
ENDBRANCH  20  21
ENDBRANCH   3  20
BRANCH   4  25
HETATM   25  C   UNK N   1      28.513  42.532  52.006  0.00  0.00     0.068 C 
BRANCH  25  26
HETATM   26  C   UNK N   1      27.311  43.444  52.104  0.00  0.00    -0.020 C 
HETATM   27  C   UNK N   1      26.136  43.315  51.436  0.00  0.00    -0.091 C 
HETATM   28  C   UNK N   1      25.052  44.341  51.656  0.00  0.00     0.042 C 
HETATM   29  C   UNK N   1      25.827  42.199  50.467  0.00  0.00     0.042 C 
ENDBRANCH  25  26
ENDBRANCH   4  25
BRANCH   1  30
HETATM   30  O   UNK N   1      27.636  39.744  52.347  0.00  0.00    -0.360 OA
HETATM   31  H   UNK N   1      27.984  39.754  51.449  0.00  0.00     0.217 HD
ENDBRANCH   1  30
TORSDOF 7
ENDMDL
MODEL 5
REMARK VINA RESULT:      -6.5     13.397     14.821
REMARK  7 active torsions:
REMARK  status: ('A' for Active; 'I' for Inactive)
REMARK    1  A    between atoms: O_2  and  C_6 
REMARK    2  A    between atoms: O_3  and  C_7 
REMARK    3  A    between atoms: C_8  and  C_17 
REMARK    4  A    between atoms: C_10  and  C_19 
REMARK    5  A    between atoms: C_11  and  C_20 
REMARK    6  A    between atoms: C_19  and  C_24 
REMARK    7  A    between atoms: C_20  and  C_25 
ROOT
HETATM    1  C   UNK N   1      28.145  40.548  53.150  0.00  0.00     0.078 A 
HETATM    2  C   UNK N   1      29.309  41.595  55.494  0.00  0.00    -0.027 A 
HETATM    3  C   UNK N   1      28.532  41.905  53.208  0.00  0.00    -0.020 A 
HETATM    4  C   UNK N   1      28.333  39.712  54.286  0.00  0.00    -0.020 A 
HETATM    5  C   UNK N   1      29.109  42.413  54.377  0.00  0.00     0.020 A 
HETATM    6  C   UNK N   1      28.917  40.249  55.445  0.00  0.00     0.020 A 
ENDROOT
BRANCH   2   7
HETATM    7  C   UNK N   1      29.949  42.178  56.728  0.00  0.00     0.169 C 
HETATM    8  O   UNK N   1      29.984  41.262  57.768  0.00  0.00    -0.340 OA
HETATM    9  C   UNK N   1      30.572  41.580  58.950  0.00  0.00     0.086 A 
HETATM   10  C   UNK N   1      31.535  42.606  59.000  0.00  0.00     0.043 A 
HETATM   11  C   UNK N   1      30.206  40.901  60.114  0.00  0.00     0.074 A 
HETATM   12  C   UNK N   1      32.100  42.971  60.233  0.00  0.00     0.021 A 
HETATM   13  C   UNK N   1      31.933  43.256  57.729  0.00  0.00     0.165 C 
HETATM   14  C   UNK N   1      31.712  42.306  61.400  0.00  0.00     0.037 A 
HETATM   15  C   UNK N   1      30.770  41.265  61.344  0.00  0.00     0.068 A 
HETATM   16  O   UNK N   1      32.769  44.146  57.709  0.00  0.00    -0.292 OA
HETATM   17  C   UNK N   1      31.356  42.728  56.439  0.00  0.00     0.121 C 
BRANCH  15  18
HETATM   18  O   UNK N   1      30.395  40.614  62.463  0.00  0.00    -0.361 OA
HETATM   19  H   UNK N   1      30.452  39.651  62.533  0.00  0.00     0.217 HD
ENDBRANCH  15  18
ENDBRANCH   2   7
BRANCH   3  20
HETATM   20  C   UNK N   1      28.357  42.827  52.024  0.00  0.00     0.068 C 
BRANCH  20  21
HETATM   21  C   UNK N   1      27.133  43.703  52.193  0.00  0.00    -0.020 C 
HETATM   22  C   UNK N   1      25.968  43.606  51.497  0.00  0.00    -0.091 C 
HETATM   23  C   UNK N   1      24.828  44.533  51.842  0.00  0.00     0.042 C 
HETATM   24  C   UNK N   1      25.717  42.615  50.383  0.00  0.00     0.042 C 
ENDBRANCH  20  21
ENDBRANCH   3  20
BRANCH   4  25
HETATM   25  C   UNK N   1      27.929  38.252  54.291  0.00  0.00     0.068 C 
BRANCH  25  26
HETATM   26  C   UNK N   1      29.155  37.371  54.369  0.00  0.00    -0.020 C 
HETATM   27  C   UNK N   1      29.606  36.702  55.461  0.00  0.00    -0.091 C 
HETATM   28  C   UNK N   1      30.866  35.879  55.347  0.00  0.00     0.042 C 
HETATM   29  C   UNK N   1      28.931  36.723  56.811  0.00  0.00     0.042 C 
ENDBRANCH  25  26
ENDBRANCH   4  25
BRANCH   1  30
HETATM   30  O   UNK N   1      27.586  40.078  52.011  0.00  0.00    -0.360 OA
HETATM   31  H   UNK N   1      27.037  39.289  51.969  0.00  0.00     0.217 HD
ENDBRANCH   1  30
TORSDOF 7
ENDMDL
MODEL 6
REMARK VINA RESULT:      -6.4     13.156     16.685
REMARK  7 active torsions:
REMARK  status: ('A' for Active; 'I' for Inactive)
REMARK    1  A    between atoms: O_2  and  C_6 
REMARK    2  A    between atoms: O_3  and  C_7 
REMARK    3  A    between atoms: C_8  and  C_17 
REMARK    4  A    between atoms: C_10  and  C_19 
REMARK    5  A    between atoms: C_11  and  C_20 
REMARK    6  A    between atoms: C_19  and  C_24 
REMARK    7  A    between atoms: C_20  and  C_25 
ROOT
HETATM    1  C   UNK N   1      31.501  43.676  61.161  0.00  0.00     0.078 A 
HETATM    2  C   UNK N   1      30.201  45.743  59.755  0.00  0.00    -0.027 A 
HETATM    3  C   UNK N   1      31.261  44.920  61.785  0.00  0.00    -0.020 A 
HETATM    4  C   UNK N   1      31.094  43.473  59.813  0.00  0.00    -0.020 A 
HETATM    5  C   UNK N   1      30.615  45.938  61.077  0.00  0.00     0.020 A 
HETATM    6  C   UNK N   1      30.444  44.513  59.128  0.00  0.00     0.020 A 
ENDROOT
BRANCH   2   7
HETATM    7  C   UNK N   1      29.492  46.862  59.034  0.00  0.00     0.169 C 
HETATM    8  O   UNK N   1      30.349  47.545  58.182  0.00  0.00    -0.340 OA
HETATM    9  C   UNK N   1      29.887  48.555  57.402  0.00  0.00     0.086 A 
HETATM   10  C   UNK N   1      28.517  48.624  57.083  0.00  0.00     0.043 A 
HETATM   11  C   UNK N   1      30.768  49.531  56.933  0.00  0.00     0.074 A 
HETATM   12  C   UNK N   1      28.033  49.701  56.323  0.00  0.00     0.021 A 
HETATM   13  C   UNK N   1      27.632  47.532  57.555  0.00  0.00     0.165 C 
HETATM   14  C   UNK N   1      28.915  50.690  55.876  0.00  0.00     0.037 A 
HETATM   15  C   UNK N   1      30.285  50.604  56.173  0.00  0.00     0.068 A 
HETATM   16  O   UNK N   1      26.437  47.535  57.302  0.00  0.00    -0.292 OA
HETATM   17  C   UNK N   1      28.254  46.361  58.272  0.00  0.00     0.121 C 
BRANCH  15  18
HETATM   18  O   UNK N   1      31.143  51.550  55.742  0.00  0.00    -0.361 OA
HETATM   19  H   UNK N   1      31.770  51.378  55.024  0.00  0.00     0.217 HD
ENDBRANCH  15  18
ENDBRANCH   2   7
BRANCH   3  20
HETATM   20  C   UNK N   1      31.670  45.176  63.216  0.00  0.00     0.068 C 
BRANCH  20  21
HETATM   21  C   UNK N   1      32.751  46.234  63.292  0.00  0.00    -0.020 C 
HETATM   22  C   UNK N   1      34.094  46.019  63.282  0.00  0.00    -0.091 C 
HETATM   23  C   UNK N   1      35.028  47.204  63.308  0.00  0.00     0.042 C 
HETATM   24  C   UNK N   1      34.742  44.653  63.239  0.00  0.00     0.042 C 
ENDBRANCH  20  21
ENDBRANCH   3  20
BRANCH   4  25
HETATM   25  C   UNK N   1      31.332  42.166  59.084  0.00  0.00     0.068 C 
BRANCH  25  26
HETATM   26  C   UNK N   1      30.390  42.045  57.907  0.00  0.00    -0.020 C 
HETATM   27  C   UNK N   1      30.661  42.357  56.614  0.00  0.00    -0.091 C 
HETATM   28  C   UNK N   1      29.581  42.182  55.576  0.00  0.00     0.042 C 
HETATM   29  C   UNK N   1      31.991  42.879  56.126  0.00  0.00     0.042 C 
ENDBRANCH  25  26
ENDBRANCH   4  25
BRANCH   1  30
HETATM   30  O   UNK N   1      32.130  42.705  61.863  0.00  0.00    -0.360 OA
HETATM   31  H   UNK N   1      32.492  41.905  61.468  0.00  0.00     0.217 HD
ENDBRANCH   1  30
TORSDOF 7
ENDMDL
MODEL 7
REMARK VINA RESULT:      -6.3     12.872     15.990
REMARK  7 active torsions:
REMARK  status: ('A' for Active; 'I' for Inactive)
REMARK    1  A    between atoms: O_2  and  C_6 
REMARK    2  A    between atoms: O_3  and  C_7 
REMARK    3  A    between atoms: C_8  and  C_17 
REMARK    4  A    between atoms: C_10  and  C_19 
REMARK    5  A    between atoms: C_11  and  C_20 
REMARK    6  A    between atoms: C_19  and  C_24 
REMARK    7  A    between atoms: C_20  and  C_25 
ROOT
HETATM    1  C   UNK N   1      29.962  47.353  60.860  0.00  0.00     0.078 A 
HETATM    2  C   UNK N   1      30.286  45.185  59.088  0.00  0.00    -0.027 A 
HETATM    3  C   UNK N   1      29.707  47.516  59.480  0.00  0.00    -0.020 A 
HETATM    4  C   UNK N   1      30.396  46.090  61.352  0.00  0.00    -0.020 A 
HETATM    5  C   UNK N   1      29.871  46.434  58.611  0.00  0.00     0.020 A 
HETATM    6  C   UNK N   1      30.549  45.020  60.455  0.00  0.00     0.020 A 
ENDROOT
BRANCH   2   7
HETATM    7  C   UNK N   1      30.434  44.040  58.119  0.00  0.00     0.169 C 
HETATM    8  O   UNK N   1      29.277  43.844  57.378  0.00  0.00    -0.340 OA
HETATM    9  C   UNK N   1      29.229  42.892  56.411  0.00  0.00     0.086 A 
HETATM   10  C   UNK N   1      30.421  42.426  55.826  0.00  0.00     0.043 A 
HETATM   11  C   UNK N   1      27.998  42.365  56.014  0.00  0.00     0.074 A 
HETATM   12  C   UNK N   1      30.373  41.401  54.867  0.00  0.00     0.021 A 
HETATM   13  C   UNK N   1      31.698  43.057  56.239  0.00  0.00     0.165 C 
HETATM   14  C   UNK N   1      29.140  40.859  54.490  0.00  0.00     0.037 A 
HETATM   15  C   UNK N   1      27.949  41.344  55.056  0.00  0.00     0.068 A 
HETATM   16  O   UNK N   1      32.763  42.700  55.760  0.00  0.00    -0.292 OA
HETATM   17  C   UNK N   1      31.648  44.224  57.194  0.00  0.00     0.121 C 
BRANCH  15  18
HETATM   18  O   UNK N   1      26.756  40.831  54.694  0.00  0.00    -0.361 OA
HETATM   19  H   UNK N   1      26.039  40.714  55.334  0.00  0.00     0.217 HD
ENDBRANCH  15  18
ENDBRANCH   2   7
BRANCH   3  20
HETATM   20  C   UNK N   1      29.239  48.837  58.916  0.00  0.00     0.068 C 
BRANCH  20  21
HETATM   21  C   UNK N   1      30.193  49.344  57.855  0.00  0.00    -0.020 C 
HETATM   22  C   UNK N   1      29.852  49.906  56.664  0.00  0.00    -0.091 C 
HETATM   23  C   UNK N   1      30.942  50.408  55.750  0.00  0.00     0.042 C 
HETATM   24  C   UNK N   1      28.431  50.078  56.174  0.00  0.00     0.042 C 
ENDBRANCH  20  21
ENDBRANCH   3  20
BRANCH   4  25
HETATM   25  C   UNK N   1      30.696  45.853  62.818  0.00  0.00     0.068 C 
BRANCH  25  26
HETATM   26  C   UNK N   1      32.080  46.361  63.157  0.00  0.00    -0.020 C 
HETATM   27  C   UNK N   1      33.229  45.639  63.171  0.00  0.00    -0.091 C 
HETATM   28  C   UNK N   1      34.519  46.322  63.552  0.00  0.00     0.042 C 
HETATM   29  C   UNK N   1      33.316  44.170  62.829  0.00  0.00     0.042 C 
ENDBRANCH  25  26
ENDBRANCH   4  25
BRANCH   1  30
HETATM   30  O   UNK N   1      29.800  48.414  61.683  0.00  0.00    -0.360 OA
HETATM   31  H   UNK N   1      29.965  49.326  61.421  0.00  0.00     0.217 HD
ENDBRANCH   1  30
TORSDOF 7
ENDMDL
MODEL 8
REMARK VINA RESULT:      -6.3     12.800     16.481
REMARK  7 active torsions:
REMARK  status: ('A' for Active; 'I' for Inactive)
REMARK    1  A    between atoms: O_2  and  C_6 
REMARK    2  A    between atoms: O_3  and  C_7 
REMARK    3  A    between atoms: C_8  and  C_17 
REMARK    4  A    between atoms: C_10  and  C_19 
REMARK    5  A    between atoms: C_11  and  C_20 
REMARK    6  A    between atoms: C_19  and  C_24 
REMARK    7  A    between atoms: C_20  and  C_25 
ROOT
HETATM    1  C   UNK N   1      29.878  47.348  60.722  0.00  0.00     0.078 A 
HETATM    2  C   UNK N   1      30.209  45.195  58.934  0.00  0.00    -0.027 A 
HETATM    3  C   UNK N   1      30.298  46.085  61.197  0.00  0.00    -0.020 A 
HETATM    4  C   UNK N   1      29.610  47.527  59.337  0.00  0.00    -0.020 A 
HETATM    5  C   UNK N   1      30.459  45.025  60.300  0.00  0.00     0.020 A 
HETATM    6  C   UNK N   1      29.783  46.444  58.459  0.00  0.00     0.020 A 
ENDROOT
BRANCH   2   7
HETATM    7  C   UNK N   1      30.412  44.030  57.999  0.00  0.00     0.169 C 
HETATM    8  O   UNK N   1      29.285  43.792  57.226  0.00  0.00    -0.340 OA
HETATM    9  C   UNK N   1      29.287  42.816  56.283  0.00  0.00     0.086 A 
HETATM   10  C   UNK N   1      30.507  42.361  55.747  0.00  0.00     0.043 A 
HETATM   11  C   UNK N   1      28.080  42.254  55.859  0.00  0.00     0.074 A 
HETATM   12  C   UNK N   1      30.510  41.313  54.813  0.00  0.00     0.021 A 
HETATM   13  C   UNK N   1      31.756  43.029  56.185  0.00  0.00     0.165 C 
HETATM   14  C   UNK N   1      29.301  40.737  54.411  0.00  0.00     0.037 A 
HETATM   15  C   UNK N   1      28.083  41.210  54.926  0.00  0.00     0.068 A 
HETATM   16  O   UNK N   1      32.843  42.683  55.749  0.00  0.00    -0.292 OA
HETATM   17  C   UNK N   1      31.651  44.217  57.109  0.00  0.00     0.121 C 
BRANCH  15  18
HETATM   18  O   UNK N   1      26.913  40.664  54.539  0.00  0.00    -0.361 OA
HETATM   19  H   UNK N   1      26.581  39.844  54.933  0.00  0.00     0.217 HD
ENDBRANCH  15  18
ENDBRANCH   2   7
BRANCH   3  20
HETATM   20  C   UNK N   1      30.599  45.853  62.659  0.00  0.00     0.068 C 
BRANCH  20  21
HETATM   21  C   UNK N   1      32.087  45.934  62.928  0.00  0.00    -0.020 C 
HETATM   22  C   UNK N   1      32.950  44.886  63.018  0.00  0.00    -0.091 C 
HETATM   23  C   UNK N   1      34.418  45.161  63.236  0.00  0.00     0.042 C 
HETATM   24  C   UNK N   1      32.546  43.433  62.909  0.00  0.00     0.042 C 
ENDBRANCH  20  21
ENDBRANCH   3  20
BRANCH   4  25
HETATM   25  C   UNK N   1      29.146  48.852  58.766  0.00  0.00     0.068 C 
BRANCH  25  26
HETATM   26  C   UNK N   1      30.146  49.363  57.754  0.00  0.00    -0.020 C 
HETATM   27  C   UNK N   1      29.867  50.013  56.595  0.00  0.00    -0.091 C 
HETATM   28  C   UNK N   1      31.006  50.435  55.700  0.00  0.00     0.042 C 
HETATM   29  C   UNK N   1      28.474  50.350  56.122  0.00  0.00     0.042 C 
ENDBRANCH  25  26
ENDBRANCH   4  25
BRANCH   1  30
HETATM   30  O   UNK N   1      29.726  48.359  61.608  0.00  0.00    -0.360 OA
HETATM   31  H   UNK N   1      30.458  48.866  61.975  0.00  0.00     0.217 HD
ENDBRANCH   1  30
TORSDOF 7
ENDMDL
