MODEL 1
REMARK VINA RESULT:      -7.5      0.000      0.000
REMARK  5 active torsions:
REMARK  status: ('A' for Active; 'I' for Inactive)
REMARK    1  A    between atoms: O_2  and  C_6 
REMARK    2  A    between atoms: O_3  and  C_7 
REMARK    3  A    between atoms: C_8  and  C_17 
REMARK    4  A    between atoms: C_10  and  C_19 
REMARK    5  A    between atoms: C_19  and  C_22 
ROOT
HETATM    1  C   UNK N   1      39.730  50.858  43.517  0.00  0.00     0.072 A 
HETATM    2  C   UNK N   1      40.051  48.421  44.897  0.00  0.00    -0.028 A 
HETATM    3  C   UNK N   1      38.855  49.784  43.260  0.00  0.00    -0.021 A 
HETATM    4  C   UNK N   1      40.760  50.706  44.459  0.00  0.00     0.037 A 
HETATM    5  C   UNK N   1      39.017  48.576  43.957  0.00  0.00     0.020 A 
HETATM    6  C   UNK N   1      40.923  49.496  45.140  0.00  0.00     0.012 A 
ENDROOT
BRANCH   2   7
HETATM    7  C   UNK N   1      40.212  47.107  45.631  0.00  0.00     0.169 C 
HETATM    8  O   UNK N   1      41.159  46.303  45.008  0.00  0.00    -0.340 OA
HETATM    9  C   UNK N   1      41.526  45.106  45.544  0.00  0.00     0.086 A 
HETATM   10  C   UNK N   1      41.328  44.861  46.916  0.00  0.00     0.043 A 
HETATM   11  C   UNK N   1      42.091  44.116  44.732  0.00  0.00     0.074 A 
HETATM   12  C   UNK N   1      41.670  43.611  47.460  0.00  0.00     0.021 A 
HETATM   13  C   UNK N   1      40.778  45.958  47.749  0.00  0.00     0.165 C 
HETATM   14  C   UNK N   1      42.217  42.619  46.639  0.00  0.00     0.037 A 
HETATM   15  C   UNK N   1      42.434  42.869  45.274  0.00  0.00     0.068 A 
HETATM   16  O   UNK N   1      40.584  45.805  48.945  0.00  0.00    -0.292 OA
HETATM   17  C   UNK N   1      40.568  47.309  47.114  0.00  0.00     0.121 C 
BRANCH  15  18
HETATM   18  O   UNK N   1      42.962  41.919  44.475  0.00  0.00    -0.361 OA
HETATM   19  H   UNK N   1      43.833  42.022  44.064  0.00  0.00     0.217 HD
ENDBRANCH  15  18
ENDBRANCH   2   7
BRANCH   3  20
HETATM   20  C   UNK N   1      37.747  49.915  42.245  0.00  0.00     0.068 C 
BRANCH  20  21
HETATM   21  C   UNK N   1      36.624  48.959  42.576  0.00  0.00    -0.020 C 
HETATM   22  C   UNK N   1      35.404  49.285  43.073  0.00  0.00    -0.091 C 
HETATM   23  C   UNK N   1      34.415  48.183  43.363  0.00  0.00     0.042 C 
HETATM   24  C   UNK N   1      34.954  50.697  43.372  0.00  0.00     0.042 C 
ENDBRANCH  20  21
ENDBRANCH   3  20
BRANCH   1  25
HETATM   25  O   UNK N   1      39.573  52.031  42.866  0.00  0.00    -0.360 OA
HETATM   26  H   UNK N   1      40.152  52.297  42.138  0.00  0.00     0.217 HD
ENDBRANCH   1  25
TORSDOF 5
ENDMDL
MODEL 2
REMARK VINA RESULT:      -7.5      2.516      2.882
REMARK  5 active torsions:
REMARK  status: ('A' for Active; 'I' for Inactive)
REMARK    1  A    between atoms: O_2  and  C_6 
REMARK    2  A    between atoms: O_3  and  C_7 
REMARK    3  A    between atoms: C_8  and  C_17 
REMARK    4  A    between atoms: C_10  and  C_19 
REMARK    5  A    between atoms: C_19  and  C_22 
ROOT
HETATM    1  C   UNK N   1      38.926  50.536  42.516  0.00  0.00     0.072 A 
HETATM    2  C   UNK N   1      39.901  49.341  44.875  0.00  0.00    -0.028 A 
HETATM    3  C   UNK N   1      38.134  49.600  43.208  0.00  0.00    -0.021 A 
HETATM    4  C   UNK N   1      40.199  50.867  43.005  0.00  0.00     0.037 A 
HETATM    5  C   UNK N   1      38.624  49.014  44.387  0.00  0.00     0.020 A 
HETATM    6  C   UNK N   1      40.686  50.272  44.172  0.00  0.00     0.012 A 
ENDROOT
BRANCH   2   7
HETATM    7  C   UNK N   1      40.412  48.692  46.144  0.00  0.00     0.169 C 
HETATM    8  O   UNK N   1      39.773  47.480  46.373  0.00  0.00    -0.340 OA
HETATM    9  C   UNK N   1      40.134  46.681  47.416  0.00  0.00     0.086 A 
HETATM   10  C   UNK N   1      41.411  46.814  47.992  0.00  0.00     0.043 A 
HETATM   11  C   UNK N   1      39.234  45.736  47.921  0.00  0.00     0.074 A 
HETATM   12  C   UNK N   1      41.767  46.018  49.094  0.00  0.00     0.021 A 
HETATM   13  C   UNK N   1      42.351  47.789  47.389  0.00  0.00     0.165 C 
HETATM   14  C   UNK N   1      40.856  45.089  49.607  0.00  0.00     0.037 A 
HETATM   15  C   UNK N   1      39.589  44.941  49.020  0.00  0.00     0.068 A 
HETATM   16  O   UNK N   1      43.473  47.949  47.845  0.00  0.00    -0.292 OA
HETATM   17  C   UNK N   1      41.938  48.502  46.126  0.00  0.00     0.121 C 
BRANCH  15  18
HETATM   18  O   UNK N   1      38.705  44.045  49.507  0.00  0.00    -0.361 OA
HETATM   19  H   UNK N   1      37.832  43.919  49.108  0.00  0.00     0.217 HD
ENDBRANCH  15  18
ENDBRANCH   2   7
BRANCH   3  20
HETATM   20  C   UNK N   1      36.766  49.215  42.700  0.00  0.00     0.068 C 
BRANCH  20  21
HETATM   21  C   UNK N   1      35.749  50.256  43.107  0.00  0.00    -0.020 C 
HETATM   22  C   UNK N   1      34.429  50.047  43.347  0.00  0.00    -0.091 C 
HETATM   23  C   UNK N   1      33.561  51.222  43.724  0.00  0.00     0.042 C 
HETATM   24  C   UNK N   1      33.748  48.700  43.255  0.00  0.00     0.042 C 
ENDBRANCH  20  21
ENDBRANCH   3  20
BRANCH   1  25
HETATM   25  O   UNK N   1      38.458  51.119  41.391  0.00  0.00    -0.360 OA
HETATM   26  H   UNK N   1      38.385  52.079  41.300  0.00  0.00     0.217 HD
ENDBRANCH   1  25
TORSDOF 5
ENDMDL
MODEL 3
REMARK VINA RESULT:      -7.3      4.904     10.500
REMARK  5 active torsions:
REMARK  status: ('A' for Active; 'I' for Inactive)
REMARK    1  A    between atoms: O_2  and  C_6 
REMARK    2  A    between atoms: O_3  and  C_7 
REMARK    3  A    between atoms: C_8  and  C_17 
REMARK    4  A    between atoms: C_10  and  C_19 
REMARK    5  A    between atoms: C_19  and  C_22 
ROOT
HETATM    1  C   UNK N   1      35.670  48.001  43.098  0.00  0.00     0.072 A 
HETATM    2  C   UNK N   1      34.504  50.557  43.313  0.00  0.00    -0.028 A 
HETATM    3  C   UNK N   1      36.471  49.152  42.963  0.00  0.00    -0.021 A 
HETATM    4  C   UNK N   1      34.293  48.134  43.336  0.00  0.00     0.037 A 
HETATM    5  C   UNK N   1      35.884  50.422  43.079  0.00  0.00     0.020 A 
HETATM    6  C   UNK N   1      33.713  49.402  43.438  0.00  0.00     0.012 A 
ENDROOT
BRANCH   2   7
HETATM    7  C   UNK N   1      33.891  51.937  43.427  0.00  0.00     0.169 C 
HETATM    8  O   UNK N   1      32.587  51.942  42.946  0.00  0.00    -0.340 OA
HETATM    9  C   UNK N   1      31.812  53.059  43.026  0.00  0.00     0.086 A 
HETATM   10  C   UNK N   1      32.114  54.056  43.974  0.00  0.00     0.043 A 
HETATM   11  C   UNK N   1      30.722  53.223  42.163  0.00  0.00     0.074 A 
HETATM   12  C   UNK N   1      31.339  55.227  44.028  0.00  0.00     0.021 A 
HETATM   13  C   UNK N   1      33.244  53.816  44.904  0.00  0.00     0.165 C 
HETATM   14  C   UNK N   1      30.263  55.393  43.150  0.00  0.00     0.037 A 
HETATM   15  C   UNK N   1      29.948  54.390  42.218  0.00  0.00     0.068 A 
HETATM   16  O   UNK N   1      33.554  54.643  45.747  0.00  0.00    -0.292 OA
HETATM   17  C   UNK N   1      33.935  52.476  44.868  0.00  0.00     0.121 C 
BRANCH  15  18
HETATM   18  O   UNK N   1      28.911  54.541  41.369  0.00  0.00    -0.361 OA
HETATM   19  H   UNK N   1      29.042  54.714  40.426  0.00  0.00     0.217 HD
ENDBRANCH  15  18
ENDBRANCH   2   7
BRANCH   3  20
HETATM   20  C   UNK N   1      37.951  49.038  42.695  0.00  0.00     0.068 C 
BRANCH  20  21
HETATM   21  C   UNK N   1      38.529  50.400  42.387  0.00  0.00    -0.020 C 
HETATM   22  C   UNK N   1      39.543  51.017  43.045  0.00  0.00    -0.091 C 
HETATM   23  C   UNK N   1      39.970  52.395  42.603  0.00  0.00     0.042 C 
HETATM   24  C   UNK N   1      40.289  50.418  44.216  0.00  0.00     0.042 C 
ENDBRANCH  20  21
ENDBRANCH   3  20
BRANCH   1  25
HETATM   25  O   UNK N   1      36.227  46.773  43.005  0.00  0.00    -0.360 OA
HETATM   26  H   UNK N   1      35.695  45.972  42.901  0.00  0.00     0.217 HD
ENDBRANCH   1  25
TORSDOF 5
ENDMDL
MODEL 4
REMARK VINA RESULT:      -7.3      2.399      3.013
REMARK  5 active torsions:
REMARK  status: ('A' for Active; 'I' for Inactive)
REMARK    1  A    between atoms: O_2  and  C_6 
REMARK    2  A    between atoms: O_3  and  C_7 
REMARK    3  A    between atoms: C_8  and  C_17 
REMARK    4  A    between atoms: C_10  and  C_19 
REMARK    5  A    between atoms: C_19  and  C_22 
ROOT
HETATM    1  C   UNK N   1      39.475  50.253  43.509  0.00  0.00     0.072 A 
HETATM    2  C   UNK N   1      39.737  48.098  45.306  0.00  0.00    -0.028 A 
HETATM    3  C   UNK N   1      38.496  49.241  43.539  0.00  0.00    -0.021 A 
HETATM    4  C   UNK N   1      40.578  50.181  44.373  0.00  0.00     0.037 A 
HETATM    5  C   UNK N   1      38.630  48.174  44.442  0.00  0.00     0.020 A 
HETATM    6  C   UNK N   1      40.712  49.110  45.262  0.00  0.00     0.012 A 
ENDROOT
BRANCH   2   7
HETATM    7  C   UNK N   1      39.865  46.935  46.267  0.00  0.00     0.169 C 
HETATM    8  O   UNK N   1      40.569  47.308  47.406  0.00  0.00    -0.340 OA
HETATM    9  C   UNK N   1      40.733  46.443  48.445  0.00  0.00     0.086 A 
HETATM   10  C   UNK N   1      39.846  45.361  48.605  0.00  0.00     0.043 A 
HETATM   11  C   UNK N   1      41.788  46.621  49.348  0.00  0.00     0.074 A 
HETATM   12  C   UNK N   1      40.042  44.446  49.654  0.00  0.00     0.021 A 
HETATM   13  C   UNK N   1      38.711  45.243  47.658  0.00  0.00     0.165 C 
HETATM   14  C   UNK N   1      41.109  44.619  50.541  0.00  0.00     0.037 A 
HETATM   15  C   UNK N   1      41.982  45.709  50.395  0.00  0.00     0.068 A 
HETATM   16  O   UNK N   1      37.909  44.327  47.746  0.00  0.00    -0.292 OA
HETATM   17  C   UNK N   1      38.497  46.343  46.649  0.00  0.00     0.121 C 
BRANCH  15  18
HETATM   18  O   UNK N   1      43.013  45.885  51.247  0.00  0.00    -0.361 OA
HETATM   19  H   UNK N   1      43.614  45.162  51.480  0.00  0.00     0.217 HD
ENDBRANCH  15  18
ENDBRANCH   2   7
BRANCH   3  20
HETATM   20  C   UNK N   1      37.306  49.285  42.613  0.00  0.00     0.068 C 
BRANCH  20  21
HETATM   21  C   UNK N   1      36.303  50.302  43.105  0.00  0.00    -0.020 C 
HETATM   22  C   UNK N   1      34.986  50.085  43.353  0.00  0.00    -0.091 C 
HETATM   23  C   UNK N   1      34.131  51.237  43.821  0.00  0.00     0.042 C 
HETATM   24  C   UNK N   1      34.294  48.751  43.183  0.00  0.00     0.042 C 
ENDBRANCH  20  21
ENDBRANCH   3  20
BRANCH   1  25
HETATM   25  O   UNK N   1      39.348  51.293  42.656  0.00  0.00    -0.360 OA
HETATM   26  H   UNK N   1      40.018  51.497  41.989  0.00  0.00     0.217 HD
ENDBRANCH   1  25
TORSDOF 5
ENDMDL
MODEL 5
REMARK VINA RESULT:      -6.9     15.548     18.413
REMARK  5 active torsions:
REMARK  status: ('A' for Active; 'I' for Inactive)
REMARK    1  A    between atoms: O_2  and  C_6 
REMARK    2  A    between atoms: O_3  and  C_7 
REMARK    3  A    between atoms: C_8  and  C_17 
REMARK    4  A    between atoms: C_10  and  C_19 
REMARK    5  A    between atoms: C_19  and  C_22 
ROOT
HETATM    1  C   UNK N   1      44.799  31.109  48.774  0.00  0.00     0.072 A 
HETATM    2  C   UNK N   1      46.941  31.484  46.981  0.00  0.00    -0.028 A 
HETATM    3  C   UNK N   1      45.328  32.399  48.571  0.00  0.00    -0.021 A 
HETATM    4  C   UNK N   1      45.344  30.017  48.082  0.00  0.00     0.037 A 
HETATM    5  C   UNK N   1      46.391  32.579  47.671  0.00  0.00     0.020 A 
HETATM    6  C   UNK N   1      46.410  30.201  47.196  0.00  0.00     0.012 A 
ENDROOT
BRANCH   2   7
HETATM    7  C   UNK N   1      48.091  31.701  46.020  0.00  0.00     0.169 C 
HETATM    8  O   UNK N   1      49.299  31.338  46.603  0.00  0.00    -0.340 OA
HETATM    9  C   UNK N   1      50.460  31.371  45.893  0.00  0.00     0.086 A 
HETATM   10  C   UNK N   1      50.424  31.318  44.486  0.00  0.00     0.043 A 
HETATM   11  C   UNK N   1      51.689  31.466  46.557  0.00  0.00     0.074 A 
HETATM   12  C   UNK N   1      51.620  31.394  43.753  0.00  0.00     0.021 A 
HETATM   13  C   UNK N   1      49.105  31.162  43.827  0.00  0.00     0.165 C 
HETATM   14  C   UNK N   1      52.843  31.508  44.422  0.00  0.00     0.037 A 
HETATM   15  C   UNK N   1      52.882  31.540  45.826  0.00  0.00     0.068 A 
HETATM   16  O   UNK N   1      49.010  31.111  42.611  0.00  0.00    -0.292 OA
HETATM   17  C   UNK N   1      47.888  30.951  44.692  0.00  0.00     0.121 C 
BRANCH  15  18
HETATM   18  O   UNK N   1      54.058  31.648  46.479  0.00  0.00    -0.361 OA
HETATM   19  H   UNK N   1      54.333  32.473  46.904  0.00  0.00     0.217 HD
ENDBRANCH  15  18
ENDBRANCH   2   7
BRANCH   3  20
HETATM   20  C   UNK N   1      44.770  33.590  49.311  0.00  0.00     0.068 C 
BRANCH  20  21
HETATM   21  C   UNK N   1      45.588  33.861  50.551  0.00  0.00    -0.020 C 
HETATM   22  C   UNK N   1      46.599  34.759  50.674  0.00  0.00    -0.091 C 
HETATM   23  C   UNK N   1      47.319  34.873  51.995  0.00  0.00     0.042 C 
HETATM   24  C   UNK N   1      47.073  35.667  49.561  0.00  0.00     0.042 C 
ENDBRANCH  20  21
ENDBRANCH   3  20
BRANCH   1  25
HETATM   25  O   UNK N   1      43.765  30.927  49.624  0.00  0.00    -0.360 OA
HETATM   26  H   UNK N   1      43.346  31.664  50.091  0.00  0.00     0.217 HD
ENDBRANCH   1  25
TORSDOF 5
ENDMDL
MODEL 6
REMARK VINA RESULT:      -6.8     16.253     19.019
REMARK  5 active torsions:
REMARK  status: ('A' for Active; 'I' for Inactive)
REMARK    1  A    between atoms: O_2  and  C_6 
REMARK    2  A    between atoms: O_3  and  C_7 
REMARK    3  A    between atoms: C_8  and  C_17 
REMARK    4  A    between atoms: C_10  and  C_19 
REMARK    5  A    between atoms: C_19  and  C_22 
ROOT
HETATM    1  C   UNK N   1      49.462  34.816  53.941  0.00  0.00     0.072 A 
HETATM    2  C   UNK N   1      48.862  33.260  51.669  0.00  0.00    -0.028 A 
HETATM    3  C   UNK N   1      50.444  33.969  53.390  0.00  0.00    -0.021 A 
HETATM    4  C   UNK N   1      48.188  34.879  53.355  0.00  0.00     0.037 A 
HETATM    5  C   UNK N   1      50.139  33.202  52.254  0.00  0.00     0.020 A 
HETATM    6  C   UNK N   1      47.888  34.104  52.231  0.00  0.00     0.012 A 
ENDROOT
BRANCH   2   7
HETATM    7  C   UNK N   1      48.554  32.419  50.448  0.00  0.00     0.169 C 
HETATM    8  O   UNK N   1      47.945  33.184  49.460  0.00  0.00    -0.340 OA
HETATM    9  C   UNK N   1      47.653  32.653  48.240  0.00  0.00     0.086 A 
HETATM   10  C   UNK N   1      48.344  31.513  47.788  0.00  0.00     0.043 A 
HETATM   11  C   UNK N   1      46.661  33.233  47.440  0.00  0.00     0.074 A 
HETATM   12  C   UNK N   1      48.012  30.942  46.547  0.00  0.00     0.021 A 
HETATM   13  C   UNK N   1      49.424  30.966  48.643  0.00  0.00     0.165 C 
HETATM   14  C   UNK N   1      47.007  31.514  45.761  0.00  0.00     0.037 A 
HETATM   15  C   UNK N   1      46.332  32.664  46.202  0.00  0.00     0.068 A 
HETATM   16  O   UNK N   1      50.058  29.978  48.304  0.00  0.00    -0.292 OA
HETATM   17  C   UNK N   1      49.806  31.719  49.892  0.00  0.00     0.121 C 
BRANCH  15  18
HETATM   18  O   UNK N   1      45.362  33.224  45.450  0.00  0.00    -0.361 OA
HETATM   19  H   UNK N   1      44.462  32.870  45.428  0.00  0.00     0.217 HD
ENDBRANCH  15  18
ENDBRANCH   2   7
BRANCH   3  20
HETATM   20  C   UNK N   1      51.818  33.872  54.006  0.00  0.00     0.068 C 
BRANCH  20  21
HETATM   21  C   UNK N   1      52.844  34.488  53.085  0.00  0.00    -0.020 C 
HETATM   22  C   UNK N   1      53.425  35.708  53.220  0.00  0.00    -0.091 C 
HETATM   23  C   UNK N   1      54.418  36.163  52.181  0.00  0.00     0.042 C 
HETATM   24  C   UNK N   1      53.139  36.668  54.353  0.00  0.00     0.042 C 
ENDBRANCH  20  21
ENDBRANCH   3  20
BRANCH   1  25
HETATM   25  O   UNK N   1      49.749  35.571  55.023  0.00  0.00    -0.360 OA
HETATM   26  H   UNK N   1      50.575  36.070  55.099  0.00  0.00     0.217 HD
ENDBRANCH   1  25
TORSDOF 5
ENDMDL
MODEL 7
REMARK VINA RESULT:      -6.7      2.666      3.900
REMARK  5 active torsions:
REMARK  status: ('A' for Active; 'I' for Inactive)
REMARK    1  A    between atoms: O_2  and  C_6 
REMARK    2  A    between atoms: O_3  and  C_7 
REMARK    3  A    between atoms: C_8  and  C_17 
REMARK    4  A    between atoms: C_10  and  C_19 
REMARK    5  A    between atoms: C_19  and  C_22 
ROOT
HETATM    1  C   UNK N   1      41.086  49.850  44.933  0.00  0.00     0.072 A 
HETATM    2  C   UNK N   1      40.858  47.631  46.655  0.00  0.00    -0.028 A 
HETATM    3  C   UNK N   1      39.825  49.483  45.443  0.00  0.00    -0.021 A 
HETATM    4  C   UNK N   1      42.223  49.106  45.284  0.00  0.00     0.037 A 
HETATM    5  C   UNK N   1      39.721  48.380  46.305  0.00  0.00     0.020 A 
HETATM    6  C   UNK N   1      42.110  48.002  46.135  0.00  0.00     0.012 A 
ENDROOT
BRANCH   2   7
HETATM    7  C   UNK N   1      40.721  46.441  47.582  0.00  0.00     0.169 C 
HETATM    8  O   UNK N   1      41.200  46.744  48.850  0.00  0.00    -0.340 OA
HETATM    9  C   UNK N   1      41.100  45.847  49.871  0.00  0.00     0.086 A 
HETATM   10  C   UNK N   1      40.138  44.821  49.812  0.00  0.00     0.043 A 
HETATM   11  C   UNK N   1      41.959  45.938  50.973  0.00  0.00     0.074 A 
HETATM   12  C   UNK N   1      40.065  43.872  50.846  0.00  0.00     0.021 A 
HETATM   13  C   UNK N   1      39.214  44.796  48.653  0.00  0.00     0.165 C 
HETATM   14  C   UNK N   1      40.938  43.957  51.936  0.00  0.00     0.037 A 
HETATM   15  C   UNK N   1      41.884  44.993  52.005  0.00  0.00     0.068 A 
HETATM   16  O   UNK N   1      38.359  43.930  48.547  0.00  0.00    -0.292 OA
HETATM   17  C   UNK N   1      39.272  45.929  47.660  0.00  0.00     0.121 C 
BRANCH  15  18
HETATM   18  O   UNK N   1      42.729  45.084  53.053  0.00  0.00    -0.361 OA
HETATM   19  H   UNK N   1      43.443  45.737  53.080  0.00  0.00     0.217 HD
ENDBRANCH  15  18
ENDBRANCH   2   7
BRANCH   3  20
HETATM   20  C   UNK N   1      38.584  50.258  45.072  0.00  0.00     0.068 C 
BRANCH  20  21
HETATM   21  C   UNK N   1      37.667  49.398  44.234  0.00  0.00    -0.020 C 
HETATM   22  C   UNK N   1      37.698  49.258  42.884  0.00  0.00    -0.091 C 
HETATM   23  C   UNK N   1      36.680  48.366  42.218  0.00  0.00     0.042 C 
HETATM   24  C   UNK N   1      38.692  49.949  41.978  0.00  0.00     0.042 C 
ENDBRANCH  20  21
ENDBRANCH   3  20
BRANCH   1  25
HETATM   25  O   UNK N   1      41.201  50.920  44.116  0.00  0.00    -0.360 OA
HETATM   26  H   UNK N   1      40.431  51.420  43.810  0.00  0.00     0.217 HD
ENDBRANCH   1  25
TORSDOF 5
ENDMDL
MODEL 8
REMARK VINA RESULT:      -6.7     15.304     18.369
REMARK  5 active torsions:
REMARK  status: ('A' for Active; 'I' for Inactive)
REMARK    1  A    between atoms: O_2  and  C_6 
REMARK    2  A    between atoms: O_3  and  C_7 
REMARK    3  A    between atoms: C_8  and  C_17 
REMARK    4  A    between atoms: C_10  and  C_19 
REMARK    5  A    between atoms: C_19  and  C_22 
ROOT
HETATM    1  C   UNK N   1      45.297  31.128  47.947  0.00  0.00     0.072 A 
HETATM    2  C   UNK N   1      47.745  31.128  46.552  0.00  0.00    -0.028 A 
HETATM    3  C   UNK N   1      46.011  32.331  47.782  0.00  0.00    -0.021 A 
HETATM    4  C   UNK N   1      45.810  29.935  47.416  0.00  0.00     0.037 A 
HETATM    5  C   UNK N   1      47.227  32.323  47.080  0.00  0.00     0.020 A 
HETATM    6  C   UNK N   1      47.027  29.933  46.728  0.00  0.00     0.012 A 
ENDROOT
BRANCH   2   7
HETATM    7  C   UNK N   1      49.062  31.142  45.804  0.00  0.00     0.169 C 
HETATM    8  O   UNK N   1      48.853  31.265  44.435  0.00  0.00    -0.340 OA
HETATM    9  C   UNK N   1      49.900  31.382  43.572  0.00  0.00     0.086 A 
HETATM   10  C   UNK N   1      51.148  31.838  44.041  0.00  0.00     0.043 A 
HETATM   11  C   UNK N   1      49.742  31.042  42.224  0.00  0.00     0.074 A 
HETATM   12  C   UNK N   1      52.238  31.919  43.158  0.00  0.00     0.021 A 
HETATM   13  C   UNK N   1      51.255  32.239  45.464  0.00  0.00     0.165 C 
HETATM   14  C   UNK N   1      52.078  31.560  41.816  0.00  0.00     0.037 A 
HETATM   15  C   UNK N   1      50.829  31.125  41.343  0.00  0.00     0.068 A 
HETATM   16  O   UNK N   1      52.310  32.641  45.928  0.00  0.00    -0.292 OA
HETATM   17  C   UNK N   1      50.004  32.250  46.306  0.00  0.00     0.121 C 
BRANCH  15  18
HETATM   18  O   UNK N   1      50.665  30.778  40.050  0.00  0.00    -0.361 OA
HETATM   19  H   UNK N   1      51.419  30.628  39.460  0.00  0.00     0.217 HD
ENDBRANCH  15  18
ENDBRANCH   2   7
BRANCH   3  20
HETATM   20  C   UNK N   1      45.490  33.626  48.353  0.00  0.00     0.068 C 
BRANCH  20  21
HETATM   21  C   UNK N   1      45.888  33.752  49.805  0.00  0.00    -0.020 C 
HETATM   22  C   UNK N   1      46.588  34.769  50.368  0.00  0.00    -0.091 C 
HETATM   23  C   UNK N   1      46.911  34.707  51.840  0.00  0.00     0.042 C 
HETATM   24  C   UNK N   1      47.085  35.982  49.614  0.00  0.00     0.042 C 
ENDBRANCH  20  21
ENDBRANCH   3  20
BRANCH   1  25
HETATM   25  O   UNK N   1      44.117  31.126  48.606  0.00  0.00    -0.360 OA
HETATM   26  H   UNK N   1      43.489  31.859  48.540  0.00  0.00     0.217 HD
ENDBRANCH   1  25
TORSDOF 5
ENDMDL
MODEL 9
REMARK VINA RESULT:      -6.6     15.268     18.126
REMARK  5 active torsions:
REMARK  status: ('A' for Active; 'I' for Inactive)
REMARK    1  A    between atoms: O_2  and  C_6 
REMARK    2  A    between atoms: O_3  and  C_7 
REMARK    3  A    between atoms: C_8  and  C_17 
REMARK    4  A    between atoms: C_10  and  C_19 
REMARK    5  A    between atoms: C_19  and  C_22 
ROOT
HETATM    1  C   UNK N   1      44.395  33.223  49.201  0.00  0.00     0.072 A 
HETATM    2  C   UNK N   1      46.606  33.183  50.947  0.00  0.00    -0.028 A 
HETATM    3  C   UNK N   1      45.087  32.017  49.431  0.00  0.00    -0.021 A 
HETATM    4  C   UNK N   1      44.814  34.399  49.841  0.00  0.00     0.037 A 
HETATM    5  C   UNK N   1      46.183  32.005  50.308  0.00  0.00     0.020 A 
HETATM    6  C   UNK N   1      45.914  34.381  50.704  0.00  0.00     0.012 A 
ENDROOT
BRANCH   2   7
HETATM    7  C   UNK N   1      47.796  33.147  51.884  0.00  0.00     0.169 C 
HETATM    8  O   UNK N   1      48.975  32.935  51.180  0.00  0.00    -0.340 OA
HETATM    9  C   UNK N   1      50.182  32.948  51.810  0.00  0.00     0.086 A 
HETATM   10  C   UNK N   1      50.322  33.611  53.045  0.00  0.00     0.043 A 
HETATM   11  C   UNK N   1      51.281  32.296  51.239  0.00  0.00     0.074 A 
HETATM   12  C   UNK N   1      51.557  33.588  53.714  0.00  0.00     0.021 A 
HETATM   13  C   UNK N   1      49.146  34.334  53.586  0.00  0.00     0.165 C 
HETATM   14  C   UNK N   1      52.646  32.919  53.147  0.00  0.00     0.037 A 
HETATM   15  C   UNK N   1      52.514  32.275  51.906  0.00  0.00     0.068 A 
HETATM   16  O   UNK N   1      49.206  34.927  54.652  0.00  0.00    -0.292 OA
HETATM   17  C   UNK N   1      47.902  34.422  52.738  0.00  0.00     0.121 C 
BRANCH  15  18
HETATM   18  O   UNK N   1      53.560  31.629  51.351  0.00  0.00    -0.361 OA
HETATM   19  H   UNK N   1      53.519  31.264  50.455  0.00  0.00     0.217 HD
ENDBRANCH  15  18
ENDBRANCH   2   7
BRANCH   3  20
HETATM   20  C   UNK N   1      44.667  30.740  48.747  0.00  0.00     0.068 C 
BRANCH  20  21
HETATM   21  C   UNK N   1      45.819  30.176  47.949  0.00  0.00    -0.020 C 
HETATM   22  C   UNK N   1      46.451  30.772  46.906  0.00  0.00    -0.091 C 
HETATM   23  C   UNK N   1      47.573  30.038  46.215  0.00  0.00     0.042 C 
HETATM   24  C   UNK N   1      46.102  32.142  46.368  0.00  0.00     0.042 C 
ENDBRANCH  20  21
ENDBRANCH   3  20
BRANCH   1  25
HETATM   25  O   UNK N   1      43.328  33.243  48.372  0.00  0.00    -0.360 OA
HETATM   26  H   UNK N   1      42.647  33.929  48.426  0.00  0.00     0.217 HD
ENDBRANCH   1  25
TORSDOF 5
ENDMDL
