MODEL 1
REMARK VINA RESULT:      -7.4      0.000      0.000
REMARK  4 active torsions:
REMARK  status: ('A' for Active; 'I' for Inactive)
REMARK    1  A    between atoms: O_3  and  C_9 
REMARK    2  A    between atoms: O_4  and  C_10 
REMARK    3  A    between atoms: O_5  and  C_11 
REMARK    4  A    between atoms: C_12  and  C_19 
ROOT
HETATM    1  O   UNK N   1      47.884  32.383  49.583  0.00  0.00    -0.340 OA
HETATM    2  O   UNK N   1      44.270  33.608  48.397  0.00  0.00    -0.292 OA
HETATM    3  C   UNK N   1      47.630  32.288  48.254  0.00  0.00     0.089 A 
HETATM    4  C   UNK N   1      46.184  32.685  46.319  0.00  0.00     0.085 A 
HETATM    5  C   UNK N   1      48.407  31.722  46.035  0.00  0.00     0.071 A 
HETATM    6  C   UNK N   1      46.387  32.729  47.731  0.00  0.00     0.076 A 
HETATM    7  C   UNK N   1      48.615  31.772  47.412  0.00  0.00     0.074 A 
HETATM    8  C   UNK N   1      47.202  32.185  45.496  0.00  0.00     0.074 A 
HETATM    9  C   UNK N   1      47.190  33.279  50.379  0.00  0.00     0.169 C 
HETATM   10  C   UNK N   1      45.369  33.200  48.730  0.00  0.00     0.167 C 
HETATM   11  C   UNK N   1      45.686  33.087  50.197  0.00  0.00     0.121 C 
ENDROOT
BRANCH   9  12
HETATM   12  C   UNK N   1      47.584  33.153  51.824  0.00  0.00    -0.025 A 
HETATM   13  C   UNK N   1      48.246  34.198  52.486  0.00  0.00     0.049 A 
HETATM   14  C   UNK N   1      48.613  34.067  53.841  0.00  0.00     0.103 A 
HETATM   15  C   UNK N   1      48.315  32.872  54.521  0.00  0.00     0.113 A 
HETATM   16  O   UNK N   1      48.665  32.728  55.824  0.00  0.00    -0.333 OA
HETATM   17  C   UNK N   1      47.660  31.830  53.853  0.00  0.00     0.001 A 
HETATM   18  C   UNK N   1      48.435  31.595  56.608  0.00  0.00     0.078 A 
HETATM   19  C   UNK N   1      47.723  30.472  55.861  0.00  0.00     0.011 A 
HETATM   20  C   UNK N   1      47.570  32.008  57.803  0.00  0.00     0.051 C 
HETATM   21  C   UNK N   1      49.791  31.069  57.094  0.00  0.00     0.051 C 
HETATM   22  C   UNK N   1      47.366  30.593  54.581  0.00  0.00     0.013 A 
HETATM   23  C   UNK N   1      47.295  31.970  52.514  0.00  0.00     0.024 A 
BRANCH  14  24
HETATM   24  O   UNK N   1      49.248  35.066  54.512  0.00  0.00    -0.353 OA
HETATM   25  C   UNK N   1      50.617  35.251  54.537  0.00  0.00     0.210 C 
ENDBRANCH  14  24
ENDBRANCH   9  12
BRANCH   4  26
HETATM   26  O   UNK N   1      45.050  33.108  45.715  0.00  0.00    -0.360 OA
HETATM   27  H   UNK N   1      44.732  34.014  45.694  0.00  0.00     0.217 HD
ENDBRANCH   4  26
BRANCH   5  28
HETATM   28  O   UNK N   1      49.378  31.239  45.234  0.00  0.00    -0.361 OA
HETATM   29  H   UNK N   1      50.071  31.810  44.874  0.00  0.00     0.217 HD
ENDBRANCH   5  28
TORSDOF 4
ENDMDL
MODEL 2
REMARK VINA RESULT:      -6.6      1.719      2.806
REMARK  4 active torsions:
REMARK  status: ('A' for Active; 'I' for Inactive)
REMARK    1  A    between atoms: O_3  and  C_9 
REMARK    2  A    between atoms: O_4  and  C_10 
REMARK    3  A    between atoms: O_5  and  C_11 
REMARK    4  A    between atoms: C_12  and  C_19 
ROOT
HETATM    1  O   UNK N   1      48.402  32.711  49.740  0.00  0.00    -0.340 OA
HETATM    2  O   UNK N   1      44.549  33.765  49.639  0.00  0.00    -0.292 OA
HETATM    3  C   UNK N   1      47.793  32.626  48.532  0.00  0.00     0.089 A 
HETATM    4  C   UNK N   1      45.851  32.978  47.085  0.00  0.00     0.085 A 
HETATM    5  C   UNK N   1      47.948  32.138  46.168  0.00  0.00     0.071 A 
HETATM    6  C   UNK N   1      46.435  33.010  48.386  0.00  0.00     0.076 A 
HETATM    7  C   UNK N   1      48.528  32.176  47.434  0.00  0.00     0.074 A 
HETATM    8  C   UNK N   1      46.621  32.545  45.997  0.00  0.00     0.074 A 
HETATM    9  C   UNK N   1      47.917  33.556  50.724  0.00  0.00     0.169 C 
HETATM   10  C   UNK N   1      45.715  33.410  49.642  0.00  0.00     0.167 C 
HETATM   11  C   UNK N   1      46.432  33.289  50.960  0.00  0.00     0.121 C 
ENDROOT
BRANCH   9  12
HETATM   12  C   UNK N   1      48.703  33.427  51.999  0.00  0.00    -0.025 A 
HETATM   13  C   UNK N   1      48.057  33.363  53.243  0.00  0.00     0.049 A 
HETATM   14  C   UNK N   1      48.805  33.245  54.432  0.00  0.00     0.103 A 
HETATM   15  C   UNK N   1      50.208  33.199  54.359  0.00  0.00     0.113 A 
HETATM   16  O   UNK N   1      50.944  33.090  55.493  0.00  0.00    -0.333 OA
HETATM   17  C   UNK N   1      50.848  33.270  53.115  0.00  0.00     0.001 A 
HETATM   18  C   UNK N   1      52.338  33.043  55.558  0.00  0.00     0.078 A 
HETATM   19  C   UNK N   1      53.014  33.122  54.194  0.00  0.00     0.011 A 
HETATM   20  C   UNK N   1      52.741  31.722  56.223  0.00  0.00     0.051 C 
HETATM   21  C   UNK N   1      52.816  34.227  56.406  0.00  0.00     0.051 C 
HETATM   22  C   UNK N   1      52.312  33.226  53.064  0.00  0.00     0.013 A 
HETATM   23  C   UNK N   1      50.100  33.381  51.942  0.00  0.00     0.024 A 
BRANCH  14  24
HETATM   24  O   UNK N   1      48.205  33.172  55.652  0.00  0.00    -0.353 OA
HETATM   25  C   UNK N   1      47.661  32.025  56.194  0.00  0.00     0.210 C 
ENDBRANCH  14  24
ENDBRANCH   9  12
BRANCH   4  26
HETATM   26  O   UNK N   1      44.575  33.351  46.832  0.00  0.00    -0.360 OA
HETATM   27  H   UNK N   1      44.307  34.096  46.289  0.00  0.00     0.217 HD
ENDBRANCH   4  26
BRANCH   5  28
HETATM   28  O   UNK N   1      48.679  31.720  45.115  0.00  0.00    -0.361 OA
HETATM   29  H   UNK N   1      48.878  32.304  44.369  0.00  0.00     0.217 HD
ENDBRANCH   5  28
TORSDOF 4
ENDMDL
MODEL 3
REMARK VINA RESULT:      -6.5     27.475     30.222
REMARK  4 active torsions:
REMARK  status: ('A' for Active; 'I' for Inactive)
REMARK    1  A    between atoms: O_3  and  C_9 
REMARK    2  A    between atoms: O_4  and  C_10 
REMARK    3  A    between atoms: O_5  and  C_11 
REMARK    4  A    between atoms: C_12  and  C_19 
ROOT
HETATM    1  O   UNK N   1      27.908  55.006  41.638  0.00  0.00    -0.340 OA
HETATM    2  O   UNK N   1      28.641  58.882  41.006  0.00  0.00    -0.292 OA
HETATM    3  C   UNK N   1      26.880  55.731  41.132  0.00  0.00     0.089 A 
HETATM    4  C   UNK N   1      25.972  57.821  40.239  0.00  0.00     0.085 A 
HETATM    5  C   UNK N   1      24.609  55.801  40.305  0.00  0.00     0.071 A 
HETATM    6  C   UNK N   1      27.052  57.109  40.841  0.00  0.00     0.076 A 
HETATM    7  C   UNK N   1      25.663  55.097  40.883  0.00  0.00     0.074 A 
HETATM    8  C   UNK N   1      24.769  57.151  39.978  0.00  0.00     0.074 A 
HETATM    9  C   UNK N   1      29.220  55.417  41.472  0.00  0.00     0.169 C 
HETATM   10  C   UNK N   1      28.376  57.711  41.214  0.00  0.00     0.167 C 
HETATM   11  C   UNK N   1      29.381  56.860  41.943  0.00  0.00     0.121 C 
ENDROOT
BRANCH   9  12
HETATM   12  C   UNK N   1      30.179  54.502  42.180  0.00  0.00    -0.025 A 
HETATM   13  C   UNK N   1      30.803  54.894  43.374  0.00  0.00     0.049 A 
HETATM   14  C   UNK N   1      31.703  54.028  44.028  0.00  0.00     0.103 A 
HETATM   15  C   UNK N   1      31.975  52.768  43.466  0.00  0.00     0.113 A 
HETATM   16  O   UNK N   1      32.842  51.924  44.080  0.00  0.00    -0.333 OA
HETATM   17  C   UNK N   1      31.354  52.385  42.271  0.00  0.00     0.001 A 
HETATM   18  C   UNK N   1      33.204  50.654  43.623  0.00  0.00     0.078 A 
HETATM   19  C   UNK N   1      32.518  50.258  42.321  0.00  0.00     0.011 A 
HETATM   20  C   UNK N   1      32.825  49.633  44.702  0.00  0.00     0.051 C 
HETATM   21  C   UNK N   1      34.719  50.644  43.396  0.00  0.00     0.051 C 
HETATM   22  C   UNK N   1      31.659  51.070  41.701  0.00  0.00     0.013 A 
HETATM   23  C   UNK N   1      30.460  53.245  41.632  0.00  0.00     0.024 A 
BRANCH  14  24
HETATM   24  O   UNK N   1      32.317  54.377  45.192  0.00  0.00    -0.353 OA
HETATM   25  C   UNK N   1      33.382  55.251  45.288  0.00  0.00     0.210 C 
ENDBRANCH  14  24
ENDBRANCH   9  12
BRANCH   4  26
HETATM   26  O   UNK N   1      26.041  59.128  39.895  0.00  0.00    -0.360 OA
HETATM   27  H   UNK N   1      25.484  59.566  39.247  0.00  0.00     0.217 HD
ENDBRANCH   4  26
BRANCH   5  28
HETATM   28  O   UNK N   1      23.446  55.166  40.052  0.00  0.00    -0.361 OA
HETATM   29  H   UNK N   1      22.708  55.611  39.614  0.00  0.00     0.217 HD
ENDBRANCH   5  28
TORSDOF 4
ENDMDL
MODEL 4
REMARK VINA RESULT:      -6.5     27.130     30.067
REMARK  4 active torsions:
REMARK  status: ('A' for Active; 'I' for Inactive)
REMARK    1  A    between atoms: O_3  and  C_9 
REMARK    2  A    between atoms: O_4  and  C_10 
REMARK    3  A    between atoms: O_5  and  C_11 
REMARK    4  A    between atoms: C_12  and  C_19 
ROOT
HETATM    1  O   UNK N   1      28.346  55.257  42.275  0.00  0.00    -0.340 OA
HETATM    2  O   UNK N   1      29.551  58.353  40.056  0.00  0.00    -0.292 OA
HETATM    3  C   UNK N   1      27.469  56.286  42.162  0.00  0.00     0.089 A 
HETATM    4  C   UNK N   1      26.814  58.443  41.210  0.00  0.00     0.085 A 
HETATM    5  C   UNK N   1      25.295  57.215  42.670  0.00  0.00     0.071 A 
HETATM    6  C   UNK N   1      27.791  57.416  41.367  0.00  0.00     0.076 A 
HETATM    7  C   UNK N   1      26.241  56.203  42.820  0.00  0.00     0.074 A 
HETATM    8  C   UNK N   1      25.580  58.321  41.863  0.00  0.00     0.074 A 
HETATM    9  C   UNK N   1      29.328  55.050  41.322  0.00  0.00     0.169 C 
HETATM   10  C   UNK N   1      29.166  57.438  40.762  0.00  0.00     0.167 C 
HETATM   11  C   UNK N   1      30.128  56.333  41.105  0.00  0.00     0.121 C 
ENDROOT
BRANCH   9  12
HETATM   12  C   UNK N   1      30.227  53.905  41.695  0.00  0.00    -0.025 A 
HETATM   13  C   UNK N   1      30.255  52.729  40.929  0.00  0.00     0.049 A 
HETATM   14  C   UNK N   1      31.101  51.660  41.290  0.00  0.00     0.103 A 
HETATM   15  C   UNK N   1      31.911  51.782  42.433  0.00  0.00     0.113 A 
HETATM   16  O   UNK N   1      32.727  50.761  42.798  0.00  0.00    -0.333 OA
HETATM   17  C   UNK N   1      31.873  52.955  43.197  0.00  0.00     0.001 A 
HETATM   18  C   UNK N   1      33.571  50.752  43.911  0.00  0.00     0.078 A 
HETATM   19  C   UNK N   1      33.514  52.037  44.729  0.00  0.00     0.011 A 
HETATM   20  C   UNK N   1      35.009  50.553  43.417  0.00  0.00     0.051 C 
HETATM   21  C   UNK N   1      33.157  49.584  44.813  0.00  0.00     0.051 C 
HETATM   22  C   UNK N   1      32.722  53.055  44.387  0.00  0.00     0.013 A 
HETATM   23  C   UNK N   1      31.039  54.011  42.830  0.00  0.00     0.024 A 
BRANCH  14  24
HETATM   24  O   UNK N   1      31.155  50.512  40.562  0.00  0.00    -0.353 OA
HETATM   25  C   UNK N   1      30.482  49.348  40.877  0.00  0.00     0.210 C 
ENDBRANCH  14  24
ENDBRANCH   9  12
BRANCH   4  26
HETATM   26  O   UNK N   1      27.008  59.547  40.453  0.00  0.00    -0.360 OA
HETATM   27  H   UNK N   1      26.335  59.994  39.933  0.00  0.00     0.217 HD
ENDBRANCH   4  26
BRANCH   5  28
HETATM   28  O   UNK N   1      24.106  57.109  43.297  0.00  0.00    -0.361 OA
HETATM   29  H   UNK N   1      23.538  57.878  43.445  0.00  0.00     0.217 HD
ENDBRANCH   5  28
TORSDOF 4
ENDMDL
MODEL 5
REMARK VINA RESULT:      -6.3     28.006     30.745
REMARK  4 active torsions:
REMARK  status: ('A' for Active; 'I' for Inactive)
REMARK    1  A    between atoms: O_3  and  C_9 
REMARK    2  A    between atoms: O_4  and  C_10 
REMARK    3  A    between atoms: O_5  and  C_11 
REMARK    4  A    between atoms: C_12  and  C_19 
ROOT
HETATM    1  O   UNK N   1      29.072  57.069  41.980  0.00  0.00    -0.340 OA
HETATM    2  O   UNK N   1      29.629  57.820  38.095  0.00  0.00    -0.292 OA
HETATM    3  C   UNK N   1      28.412  58.142  41.480  0.00  0.00     0.089 A 
HETATM    4  C   UNK N   1      27.749  59.562  39.600  0.00  0.00     0.085 A 
HETATM    5  C   UNK N   1      26.871  59.972  41.837  0.00  0.00     0.071 A 
HETATM    6  C   UNK N   1      28.518  58.472  40.104  0.00  0.00     0.076 A 
HETATM    7  C   UNK N   1      27.611  58.902  42.335  0.00  0.00     0.074 A 
HETATM    8  C   UNK N   1      26.935  60.291  40.477  0.00  0.00     0.074 A 
HETATM    9  C   UNK N   1      29.478  56.034  41.153  0.00  0.00     0.169 C 
HETATM   10  C   UNK N   1      29.461  57.635  39.288  0.00  0.00     0.167 C 
HETATM   11  C   UNK N   1      30.288  56.586  39.982  0.00  0.00     0.121 C 
ENDROOT
BRANCH   9  12
HETATM   12  C   UNK N   1      30.255  54.995  41.911  0.00  0.00    -0.025 A 
HETATM   13  C   UNK N   1      30.806  55.279  43.170  0.00  0.00     0.049 A 
HETATM   14  C   UNK N   1      31.536  54.297  43.870  0.00  0.00     0.103 A 
HETATM   15  C   UNK N   1      31.712  53.028  43.289  0.00  0.00     0.113 A 
HETATM   16  O   UNK N   1      32.415  52.072  43.947  0.00  0.00    -0.333 OA
HETATM   17  C   UNK N   1      31.165  52.752  42.030  0.00  0.00     0.001 A 
HETATM   18  C   UNK N   1      32.668  50.781  43.479  0.00  0.00     0.078 A 
HETATM   19  C   UNK N   1      32.065  50.502  42.107  0.00  0.00     0.011 A 
HETATM   20  C   UNK N   1      32.075  49.785  44.482  0.00  0.00     0.051 C 
HETATM   21  C   UNK N   1      34.187  50.597  43.388  0.00  0.00     0.051 C 
HETATM   22  C   UNK N   1      31.367  51.425  41.443  0.00  0.00     0.013 A 
HETATM   23  C   UNK N   1      30.439  53.728  41.346  0.00  0.00     0.024 A 
BRANCH  14  24
HETATM   24  O   UNK N   1      32.075  54.542  45.095  0.00  0.00    -0.353 OA
HETATM   25  C   UNK N   1      33.222  55.278  45.318  0.00  0.00     0.210 C 
ENDBRANCH  14  24
ENDBRANCH   9  12
BRANCH   4  26
HETATM   26  O   UNK N   1      27.755  59.941  38.301  0.00  0.00    -0.360 OA
HETATM   27  H   UNK N   1      27.455  60.789  37.964  0.00  0.00     0.217 HD
ENDBRANCH   4  26
BRANCH   5  28
HETATM   28  O   UNK N   1      26.087  60.682  42.674  0.00  0.00    -0.361 OA
HETATM   29  H   UNK N   1      26.303  61.591  42.927  0.00  0.00     0.217 HD
ENDBRANCH   5  28
TORSDOF 4
ENDMDL
MODEL 6
REMARK VINA RESULT:      -6.3     27.336     30.600
REMARK  4 active torsions:
REMARK  status: ('A' for Active; 'I' for Inactive)
REMARK    1  A    between atoms: O_3  and  C_9 
REMARK    2  A    between atoms: O_4  and  C_10 
REMARK    3  A    between atoms: O_5  and  C_11 
REMARK    4  A    between atoms: C_12  and  C_19 
ROOT
HETATM    1  O   UNK N   1      31.019  53.239  42.469  0.00  0.00    -0.340 OA
HETATM    2  O   UNK N   1      33.493  54.571  45.309  0.00  0.00    -0.292 OA
HETATM    3  C   UNK N   1      31.879  52.327  42.984  0.00  0.00     0.089 A 
HETATM    4  C   UNK N   1      33.612  51.690  44.591  0.00  0.00     0.085 A 
HETATM    5  C   UNK N   1      32.682  50.046  43.049  0.00  0.00     0.071 A 
HETATM    6  C   UNK N   1      32.775  52.694  44.022  0.00  0.00     0.076 A 
HETATM    7  C   UNK N   1      31.854  51.021  42.495  0.00  0.00     0.074 A 
HETATM    8  C   UNK N   1      33.547  50.380  44.095  0.00  0.00     0.074 A 
HETATM    9  C   UNK N   1      30.661  54.367  43.189  0.00  0.00     0.169 C 
HETATM   10  C   UNK N   1      32.772  54.141  44.426  0.00  0.00     0.167 C 
HETATM   11  C   UNK N   1      31.910  55.107  43.659  0.00  0.00     0.121 C 
ENDROOT
BRANCH   9  12
HETATM   12  C   UNK N   1      29.761  55.268  42.390  0.00  0.00    -0.025 A 
HETATM   13  C   UNK N   1      28.386  55.337  42.657  0.00  0.00     0.049 A 
HETATM   14  C   UNK N   1      27.552  56.185  41.899  0.00  0.00     0.103 A 
HETATM   15  C   UNK N   1      28.113  56.956  40.866  0.00  0.00     0.113 A 
HETATM   16  O   UNK N   1      27.325  57.774  40.124  0.00  0.00    -0.333 OA
HETATM   17  C   UNK N   1      29.486  56.878  40.600  0.00  0.00     0.001 A 
HETATM   18  C   UNK N   1      27.754  58.582  39.069  0.00  0.00     0.078 A 
HETATM   19  C   UNK N   1      29.251  58.481  38.796  0.00  0.00     0.011 A 
HETATM   20  C   UNK N   1      27.421  60.037  39.416  0.00  0.00     0.051 C 
HETATM   21  C   UNK N   1      27.000  58.155  37.805  0.00  0.00     0.051 C 
HETATM   22  C   UNK N   1      30.047  57.687  39.515  0.00  0.00     0.013 A 
HETATM   23  C   UNK N   1      30.306  56.042  41.358  0.00  0.00     0.024 A 
BRANCH  14  24
HETATM   24  O   UNK N   1      26.216  56.279  42.141  0.00  0.00    -0.353 OA
HETATM   25  C   UNK N   1      25.647  57.072  43.118  0.00  0.00     0.210 C 
ENDBRANCH  14  24
ENDBRANCH   9  12
BRANCH   4  26
HETATM   26  O   UNK N   1      34.479  51.927  45.602  0.00  0.00    -0.360 OA
HETATM   27  H   UNK N   1      35.061  52.688  45.674  0.00  0.00     0.217 HD
ENDBRANCH   4  26
BRANCH   5  28
HETATM   28  O   UNK N   1      32.629  48.784  42.577  0.00  0.00    -0.361 OA
HETATM   29  H   UNK N   1      32.867  48.572  41.663  0.00  0.00     0.217 HD
ENDBRANCH   5  28
TORSDOF 4
ENDMDL
MODEL 7
REMARK VINA RESULT:      -6.3     27.617     30.240
REMARK  4 active torsions:
REMARK  status: ('A' for Active; 'I' for Inactive)
REMARK    1  A    between atoms: O_3  and  C_9 
REMARK    2  A    between atoms: O_4  and  C_10 
REMARK    3  A    between atoms: O_5  and  C_11 
REMARK    4  A    between atoms: C_12  and  C_19 
ROOT
HETATM    1  O   UNK N   1      29.902  56.527  40.934  0.00  0.00    -0.340 OA
HETATM    2  O   UNK N   1      26.107  56.878  42.133  0.00  0.00    -0.292 OA
HETATM    3  C   UNK N   1      29.143  57.420  40.253  0.00  0.00     0.089 A 
HETATM    4  C   UNK N   1      27.047  58.644  39.935  0.00  0.00     0.085 A 
HETATM    5  C   UNK N   1      28.981  59.101  38.522  0.00  0.00     0.071 A 
HETATM    6  C   UNK N   1      27.792  57.642  40.625  0.00  0.00     0.076 A 
HETATM    7  C   UNK N   1      29.717  58.131  39.199  0.00  0.00     0.074 A 
HETATM    8  C   UNK N   1      27.659  59.359  38.896  0.00  0.00     0.074 A 
HETATM    9  C   UNK N   1      29.575  56.153  42.226  0.00  0.00     0.169 C 
HETATM   10  C   UNK N   1      27.250  56.774  41.724  0.00  0.00     0.167 C 
HETATM   11  C   UNK N   1      28.123  55.683  42.285  0.00  0.00     0.121 C 
ENDROOT
BRANCH   9  12
HETATM   12  C   UNK N   1      30.509  55.098  42.749  0.00  0.00    -0.025 A 
HETATM   13  C   UNK N   1      31.353  55.357  43.840  0.00  0.00     0.049 A 
HETATM   14  C   UNK N   1      32.227  54.360  44.320  0.00  0.00     0.103 A 
HETATM   15  C   UNK N   1      32.251  53.105  43.688  0.00  0.00     0.113 A 
HETATM   16  O   UNK N   1      33.090  52.136  44.134  0.00  0.00    -0.333 OA
HETATM   17  C   UNK N   1      31.411  52.854  42.595  0.00  0.00     0.001 A 
HETATM   18  C   UNK N   1      33.216  50.855  43.591  0.00  0.00     0.078 A 
HETATM   19  C   UNK N   1      32.294  50.604  42.403  0.00  0.00     0.011 A 
HETATM   20  C   UNK N   1      32.882  49.837  44.688  0.00  0.00     0.051 C 
HETATM   21  C   UNK N   1      34.665  50.675  43.127  0.00  0.00     0.051 C 
HETATM   22  C   UNK N   1      31.458  51.540  41.949  0.00  0.00     0.013 A 
HETATM   23  C   UNK N   1      30.544  53.843  42.130  0.00  0.00     0.024 A 
BRANCH  14  24
HETATM   24  O   UNK N   1      33.051  54.580  45.382  0.00  0.00    -0.353 OA
HETATM   25  C   UNK N   1      33.802  55.723  45.571  0.00  0.00     0.210 C 
ENDBRANCH  14  24
ENDBRANCH   9  12
BRANCH   4  26
HETATM   26  O   UNK N   1      25.764  58.954  40.229  0.00  0.00    -0.360 OA
HETATM   27  H   UNK N   1      25.341  58.834  41.083  0.00  0.00     0.217 HD
ENDBRANCH   4  26
BRANCH   5  28
HETATM   28  O   UNK N   1      29.559  59.793  37.519  0.00  0.00    -0.361 OA
HETATM   29  H   UNK N   1      29.104  59.951  36.680  0.00  0.00     0.217 HD
ENDBRANCH   5  28
TORSDOF 4
ENDMDL
MODEL 8
REMARK VINA RESULT:      -6.2     27.353     30.521
REMARK  4 active torsions:
REMARK  status: ('A' for Active; 'I' for Inactive)
REMARK    1  A    between atoms: O_3  and  C_9 
REMARK    2  A    between atoms: O_4  and  C_10 
REMARK    3  A    between atoms: O_5  and  C_11 
REMARK    4  A    between atoms: C_12  and  C_19 
ROOT
HETATM    1  O   UNK N   1      31.013  53.274  42.526  0.00  0.00    -0.340 OA
HETATM    2  O   UNK N   1      33.628  54.461  45.304  0.00  0.00    -0.292 OA
HETATM    3  C   UNK N   1      31.866  52.325  42.984  0.00  0.00     0.089 A 
HETATM    4  C   UNK N   1      33.639  51.598  44.507  0.00  0.00     0.085 A 
HETATM    5  C   UNK N   1      32.606  50.023  42.958  0.00  0.00     0.071 A 
HETATM    6  C   UNK N   1      32.810  52.640  43.996  0.00  0.00     0.076 A 
HETATM    7  C   UNK N   1      31.786  51.034  42.462  0.00  0.00     0.074 A 
HETATM    8  C   UNK N   1      33.518  50.305  43.980  0.00  0.00     0.074 A 
HETATM    9  C   UNK N   1      30.714  54.392  43.288  0.00  0.00     0.169 C 
HETATM   10  C   UNK N   1      32.863  54.075  44.438  0.00  0.00     0.167 C 
HETATM   11  C   UNK N   1      32.001  55.085  43.730  0.00  0.00     0.121 C 
ENDROOT
BRANCH   9  12
HETATM   12  C   UNK N   1      29.812  55.339  42.548  0.00  0.00    -0.025 A 
HETATM   13  C   UNK N   1      30.317  56.194  41.557  0.00  0.00     0.049 A 
HETATM   14  C   UNK N   1      29.461  57.079  40.871  0.00  0.00     0.103 A 
HETATM   15  C   UNK N   1      28.094  57.103  41.197  0.00  0.00     0.113 A 
HETATM   16  O   UNK N   1      27.256  57.952  40.551  0.00  0.00    -0.333 OA
HETATM   17  C   UNK N   1      27.595  56.252  42.192  0.00  0.00     0.001 A 
HETATM   18  C   UNK N   1      25.885  58.079  40.785  0.00  0.00     0.078 A 
HETATM   19  C   UNK N   1      25.364  57.145  41.871  0.00  0.00     0.011 A 
HETATM   20  C   UNK N   1      25.147  57.765  39.479  0.00  0.00     0.051 C 
HETATM   21  C   UNK N   1      25.607  59.525  41.213  0.00  0.00     0.051 C 
HETATM   22  C   UNK N   1      26.168  56.299  42.518  0.00  0.00     0.013 A 
HETATM   23  C   UNK N   1      28.448  55.374  42.862  0.00  0.00     0.024 A 
BRANCH  14  24
HETATM   24  O   UNK N   1      29.922  57.914  39.900  0.00  0.00    -0.353 OA
HETATM   25  C   UNK N   1      29.762  57.707  38.544  0.00  0.00     0.210 C 
ENDBRANCH  14  24
ENDBRANCH   9  12
BRANCH   4  26
HETATM   26  O   UNK N   1      34.549  51.784  45.491  0.00  0.00    -0.360 OA
HETATM   27  H   UNK N   1      34.599  51.283  46.309  0.00  0.00     0.217 HD
ENDBRANCH   4  26
BRANCH   5  28
HETATM   28  O   UNK N   1      32.500  48.776  42.456  0.00  0.00    -0.361 OA
HETATM   29  H   UNK N   1      31.788  48.531  41.848  0.00  0.00     0.217 HD
ENDBRANCH   5  28
TORSDOF 4
ENDMDL
MODEL 9
REMARK VINA RESULT:      -6.1     27.409     30.206
REMARK  4 active torsions:
REMARK  status: ('A' for Active; 'I' for Inactive)
REMARK    1  A    between atoms: O_3  and  C_9 
REMARK    2  A    between atoms: O_4  and  C_10 
REMARK    3  A    between atoms: O_5  and  C_11 
REMARK    4  A    between atoms: C_12  and  C_19 
ROOT
HETATM    1  O   UNK N   1      29.687  56.262  40.861  0.00  0.00    -0.340 OA
HETATM    2  O   UNK N   1      26.195  56.850  42.711  0.00  0.00    -0.292 OA
HETATM    3  C   UNK N   1      28.986  57.356  40.475  0.00  0.00     0.089 A 
HETATM    4  C   UNK N   1      27.079  58.870  40.718  0.00  0.00     0.085 A 
HETATM    5  C   UNK N   1      28.843  59.343  39.103  0.00  0.00     0.071 A 
HETATM    6  C   UNK N   1      27.750  57.670  41.097  0.00  0.00     0.076 A 
HETATM    7  C   UNK N   1      29.510  58.177  39.476  0.00  0.00     0.074 A 
HETATM    8  C   UNK N   1      27.641  59.688  39.729  0.00  0.00     0.074 A 
HETATM    9  C   UNK N   1      29.491  55.692  42.108  0.00  0.00     0.169 C 
HETATM   10  C   UNK N   1      27.241  56.683  42.108  0.00  0.00     0.167 C 
HETATM   11  C   UNK N   1      28.007  55.406  42.325  0.00  0.00     0.121 C 
ENDROOT
BRANCH   9  12
HETATM   12  C   UNK N   1      30.317  54.450  42.284  0.00  0.00    -0.025 A 
HETATM   13  C   UNK N   1      30.254  53.402  41.353  0.00  0.00     0.049 A 
HETATM   14  C   UNK N   1      31.033  52.240  41.531  0.00  0.00     0.103 A 
HETATM   15  C   UNK N   1      31.869  52.138  42.656  0.00  0.00     0.113 A 
HETATM   16  O   UNK N   1      32.621  51.025  42.845  0.00  0.00    -0.333 OA
HETATM   17  C   UNK N   1      31.923  53.185  43.586  0.00  0.00     0.001 A 
HETATM   18  C   UNK N   1      33.482  50.797  43.921  0.00  0.00     0.078 A 
HETATM   19  C   UNK N   1      33.525  51.948  44.921  0.00  0.00     0.011 A 
HETATM   20  C   UNK N   1      34.895  50.584  43.365  0.00  0.00     0.051 C 
HETATM   21  C   UNK N   1      33.007  49.537  44.652  0.00  0.00     0.051 C 
HETATM   22  C   UNK N   1      32.797  53.054  44.754  0.00  0.00     0.013 A 
HETATM   23  C   UNK N   1      31.154  54.334  43.400  0.00  0.00     0.024 A 
BRANCH  14  24
HETATM   24  O   UNK N   1      30.999  51.211  40.640  0.00  0.00    -0.353 OA
HETATM   25  C   UNK N   1      30.222  50.077  40.777  0.00  0.00     0.210 C 
ENDBRANCH  14  24
ENDBRANCH   9  12
BRANCH   4  26
HETATM   26  O   UNK N   1      25.911  59.276  41.268  0.00  0.00    -0.360 OA
HETATM   27  H   UNK N   1      25.054  59.261  40.836  0.00  0.00     0.217 HD
ENDBRANCH   4  26
BRANCH   5  28
HETATM   28  O   UNK N   1      29.375  60.135  38.150  0.00  0.00    -0.361 OA
HETATM   29  H   UNK N   1      30.053  60.794  38.355  0.00  0.00     0.217 HD
ENDBRANCH   5  28
TORSDOF 4
ENDMDL
