MODEL 1
REMARK VINA RESULT:      -6.4      0.000      0.000
REMARK  7 active torsions:
REMARK  status: ('A' for Active; 'I' for Inactive)
REMARK    1  A    between atoms: O_3  and  C_13 
REMARK    2  A    between atoms: O_3  and  C_23 
REMARK    3  A    between atoms: O_4  and  C_14 
REMARK    4  A    between atoms: O_5  and  C_15 
REMARK    5  A    between atoms: O_9  and  C_25 
REMARK    6  A    between atoms: O_10  and  C_26 
REMARK    7  A    between atoms: C_12  and  C_16 
ROOT
HETATM    1  C   UNK N   1      47.102  33.520  49.684  0.00  0.00     0.088 A 
HETATM    2  C   UNK N   1      45.188  33.300  48.193  0.00  0.00     0.068 A 
HETATM    3  C   UNK N   1      47.919  32.891  48.722  0.00  0.00     0.037 A 
HETATM    4  C   UNK N   1      47.365  32.479  47.485  0.00  0.00    -0.044 A 
HETATM    5  C   UNK N   1      45.733  33.711  49.409  0.00  0.00     0.074 A 
HETATM    6  C   UNK N   1      46.002  32.689  47.234  0.00  0.00     0.044 A 
HETATM    7  C   UNK N   1      48.220  31.836  46.424  0.00  0.00     0.049 C 
ENDROOT
BRANCH   1   8
HETATM    8  O   UNK N   1      47.656  33.962  50.850  0.00  0.00    -0.317 OA
BRANCH   8   9
HETATM    9  C   UNK N   1      47.142  33.662  52.106  0.00  0.00     0.298 C 
HETATM   10  O   UNK N   1      47.473  32.340  52.521  0.00  0.00    -0.348 OA
HETATM   11  C   UNK N   1      48.863  32.205  52.783  0.00  0.00     0.180 C 
HETATM   12  C   UNK N   1      49.325  33.120  53.923  0.00  0.00     0.187 C 
HETATM   13  C   UNK N   1      49.171  30.787  53.245  0.00  0.00     0.205 C 
HETATM   14  O   UNK N   1      50.707  32.937  54.156  0.00  0.00    -0.351 OA
HETATM   15  C   UNK N   1      49.044  34.573  53.509  0.00  0.00     0.183 C 
HETATM   16  C   UNK N   1      51.017  31.584  54.478  0.00  0.00     0.256 C 
HETATM   17  O   UNK N   1      50.552  30.646  53.510  0.00  0.00    -0.359 OA
HETATM   18  C   UNK N   1      50.647  31.201  55.922  0.00  0.00     0.070 C 
HETATM   19  C   UNK N   1      47.552  34.728  53.148  0.00  0.00     0.205 C 
BRANCH  15  20
HETATM   20  O   UNK N   1      49.429  35.484  54.510  0.00  0.00    -0.390 OA
HETATM   21  H   UNK N   1      50.343  35.807  54.294  0.00  0.00     0.210 HD
ENDBRANCH  15  20
BRANCH  19  22
HETATM   22  O   UNK N   1      46.738  34.639  54.296  0.00  0.00    -0.388 OA
HETATM   23  H   UNK N   1      47.062  35.284  54.975  0.00  0.00     0.210 HD
ENDBRANCH  19  22
ENDBRANCH   8   9
ENDBRANCH   1   8
BRANCH   3  24
HETATM   24  C   UNK N   1      49.360  32.731  48.984  0.00  0.00     0.095 A 
HETATM   25  O   UNK N   1      49.800  31.591  49.508  0.00  0.00    -0.274 OA
HETATM   26  C   UNK N   1      51.085  31.376  49.778  0.00  0.00     0.290 A 
HETATM   27  O   UNK N   1      51.431  30.314  50.259  0.00  0.00    -0.260 OA
HETATM   28  C   UNK N   1      52.036  32.365  49.512  0.00  0.00     0.119 A 
HETATM   29  C   UNK N   1      51.616  33.587  48.957  0.00  0.00     0.076 A 
HETATM   30  C   UNK N   1      50.257  33.768  48.692  0.00  0.00     0.075 A 
BRANCH  29  31
HETATM   31  O   UNK N   1      52.482  34.595  48.672  0.00  0.00    -0.356 OA
HETATM   32  C   UNK N   1      53.476  35.043  49.520  0.00  0.00     0.210 C 
ENDBRANCH  29  31
ENDBRANCH   3  24
BRANCH   2  33
HETATM   33  O   UNK N   1      43.878  33.510  47.948  0.00  0.00    -0.361 OA
HETATM   34  H   UNK N   1      43.298  32.800  47.638  0.00  0.00     0.217 HD
ENDBRANCH   2  33
TORSDOF 7
ENDMDL
MODEL 2
REMARK VINA RESULT:      -5.7     25.713     29.723
REMARK  7 active torsions:
REMARK  status: ('A' for Active; 'I' for Inactive)
REMARK    1  A    between atoms: O_3  and  C_13 
REMARK    2  A    between atoms: O_3  and  C_23 
REMARK    3  A    between atoms: O_4  and  C_14 
REMARK    4  A    between atoms: O_5  and  C_15 
REMARK    5  A    between atoms: O_9  and  C_25 
REMARK    6  A    between atoms: O_10  and  C_26 
REMARK    7  A    between atoms: C_12  and  C_16 
ROOT
HETATM    1  C   UNK N   1      31.116  51.425  41.225  0.00  0.00     0.088 A 
HETATM    2  C   UNK N   1      31.407  49.011  41.385  0.00  0.00     0.068 A 
HETATM    3  C   UNK N   1      31.620  51.568  42.534  0.00  0.00     0.037 A 
HETATM    4  C   UNK N   1      32.030  50.424  43.263  0.00  0.00    -0.044 A 
HETATM    5  C   UNK N   1      31.007  50.136  40.664  0.00  0.00     0.074 A 
HETATM    6  C   UNK N   1      31.918  49.155  42.678  0.00  0.00     0.044 A 
HETATM    7  C   UNK N   1      32.604  50.549  44.650  0.00  0.00     0.049 C 
ENDROOT
BRANCH   1   8
HETATM    8  O   UNK N   1      30.775  52.536  40.512  0.00  0.00    -0.317 OA
BRANCH   8   9
HETATM    9  C   UNK N   1      29.850  52.528  39.474  0.00  0.00     0.298 C 
HETATM   10  O   UNK N   1      28.520  52.322  39.940  0.00  0.00    -0.348 OA
HETATM   11  C   UNK N   1      28.047  53.435  40.687  0.00  0.00     0.180 C 
HETATM   12  C   UNK N   1      27.991  54.712  39.839  0.00  0.00     0.187 C 
HETATM   13  C   UNK N   1      26.617  53.185  41.146  0.00  0.00     0.205 C 
HETATM   14  O   UNK N   1      27.500  55.784  40.618  0.00  0.00    -0.351 OA
HETATM   15  C   UNK N   1      29.415  55.021  39.350  0.00  0.00     0.183 C 
HETATM   16  C   UNK N   1      26.205  55.507  41.146  0.00  0.00     0.256 C 
HETATM   17  O   UNK N   1      26.139  54.290  41.886  0.00  0.00    -0.359 OA
HETATM   18  C   UNK N   1      25.079  55.650  40.107  0.00  0.00     0.070 C 
HETATM   19  C   UNK N   1      29.979  53.797  38.600  0.00  0.00     0.205 C 
BRANCH  15  20
HETATM   20  O   UNK N   1      29.452  56.177  38.550  0.00  0.00    -0.390 OA
HETATM   21  H   UNK N   1      28.531  56.349  38.218  0.00  0.00     0.210 HD
ENDBRANCH  15  20
BRANCH  19  22
HETATM   22  O   UNK N   1      29.329  53.614  37.361  0.00  0.00    -0.388 OA
HETATM   23  H   UNK N   1      28.456  54.082  37.380  0.00  0.00     0.210 HD
ENDBRANCH  19  22
ENDBRANCH   8   9
ENDBRANCH   1   8
BRANCH   3  24
HETATM   24  C   UNK N   1      31.782  52.915  43.109  0.00  0.00     0.095 A 
HETATM   25  O   UNK N   1      30.897  53.859  42.803  0.00  0.00    -0.274 OA
HETATM   26  C   UNK N   1      30.980  55.100  43.277  0.00  0.00     0.290 A 
HETATM   27  O   UNK N   1      30.143  55.924  42.962  0.00  0.00    -0.260 OA
HETATM   28  C   UNK N   1      32.026  55.457  44.133  0.00  0.00     0.119 A 
HETATM   29  C   UNK N   1      32.984  54.490  44.484  0.00  0.00     0.076 A 
HETATM   30  C   UNK N   1      32.857  53.202  43.961  0.00  0.00     0.075 A 
BRANCH  29  31
HETATM   31  O   UNK N   1      34.028  54.764  45.310  0.00  0.00    -0.356 OA
HETATM   32  C   UNK N   1      34.367  56.025  45.760  0.00  0.00     0.210 C 
ENDBRANCH  29  31
ENDBRANCH   3  24
BRANCH   2  33
HETATM   33  O   UNK N   1      31.307  47.791  40.817  0.00  0.00    -0.361 OA
HETATM   34  H   UNK N   1      31.592  47.628  39.906  0.00  0.00     0.217 HD
ENDBRANCH   2  33
TORSDOF 7
ENDMDL
MODEL 3
REMARK VINA RESULT:      -5.6      2.052      5.972
REMARK  7 active torsions:
REMARK  status: ('A' for Active; 'I' for Inactive)
REMARK    1  A    between atoms: O_3  and  C_13 
REMARK    2  A    between atoms: O_3  and  C_23 
REMARK    3  A    between atoms: O_4  and  C_14 
REMARK    4  A    between atoms: O_5  and  C_15 
REMARK    5  A    between atoms: O_9  and  C_25 
REMARK    6  A    between atoms: O_10  and  C_26 
REMARK    7  A    between atoms: C_12  and  C_16 
ROOT
HETATM    1  C   UNK N   1      48.677  33.216  50.996  0.00  0.00     0.088 A 
HETATM    2  C   UNK N   1      47.379  34.052  52.881  0.00  0.00     0.068 A 
HETATM    3  C   UNK N   1      49.849  33.286  51.778  0.00  0.00     0.037 A 
HETATM    4  C   UNK N   1      49.777  33.729  53.121  0.00  0.00    -0.044 A 
HETATM    5  C   UNK N   1      47.447  33.610  51.560  0.00  0.00     0.074 A 
HETATM    6  C   UNK N   1      48.539  34.108  53.659  0.00  0.00     0.044 A 
HETATM    7  C   UNK N   1      51.006  33.782  53.991  0.00  0.00     0.049 C 
ENDROOT
BRANCH   1   8
HETATM    8  O   UNK N   1      48.748  32.736  49.721  0.00  0.00    -0.317 OA
BRANCH   8   9
HETATM    9  C   UNK N   1      48.681  33.544  48.593  0.00  0.00     0.298 C 
HETATM   10  O   UNK N   1      49.667  33.199  47.624  0.00  0.00    -0.348 OA
HETATM   11  C   UNK N   1      49.406  31.931  47.038  0.00  0.00     0.180 C 
HETATM   12  C   UNK N   1      48.069  31.910  46.287  0.00  0.00     0.187 C 
HETATM   13  C   UNK N   1      50.467  31.610  45.995  0.00  0.00     0.205 C 
HETATM   14  O   UNK N   1      47.863  30.637  45.709  0.00  0.00    -0.351 OA
HETATM   15  C   UNK N   1      46.953  32.222  47.296  0.00  0.00     0.183 C 
HETATM   16  C   UNK N   1      48.915  30.282  44.816  0.00  0.00     0.256 C 
HETATM   17  O   UNK N   1      50.212  30.351  45.405  0.00  0.00    -0.359 OA
HETATM   18  C   UNK N   1      48.826  30.996  43.455  0.00  0.00     0.070 C 
HETATM   19  C   UNK N   1      47.253  33.561  48.000  0.00  0.00     0.205 C 
BRANCH  15  20
HETATM   20  O   UNK N   1      45.686  32.235  46.684  0.00  0.00    -0.390 OA
HETATM   21  H   UNK N   1      45.015  31.955  47.362  0.00  0.00     0.210 HD
ENDBRANCH  15  20
BRANCH  19  22
HETATM   22  O   UNK N   1      47.095  34.649  47.116  0.00  0.00    -0.388 OA
HETATM   23  H   UNK N   1      46.166  34.656  46.772  0.00  0.00     0.210 HD
ENDBRANCH  19  22
ENDBRANCH   8   9
ENDBRANCH   1   8
BRANCH   3  24
HETATM   24  C   UNK N   1      51.130  32.829  51.211  0.00  0.00     0.095 A 
HETATM   25  O   UNK N   1      51.516  31.573  51.414  0.00  0.00    -0.274 OA
HETATM   26  C   UNK N   1      52.662  31.090  50.940  0.00  0.00     0.290 A 
HETATM   27  O   UNK N   1      52.965  29.933  51.158  0.00  0.00    -0.260 OA
HETATM   28  C   UNK N   1      53.517  31.909  50.196  0.00  0.00     0.119 A 
HETATM   29  C   UNK N   1      53.148  33.244  49.956  0.00  0.00     0.076 A 
HETATM   30  C   UNK N   1      51.937  33.707  50.474  0.00  0.00     0.075 A 
BRANCH  29  31
HETATM   31  O   UNK N   1      53.927  34.099  49.242  0.00  0.00    -0.356 OA
HETATM   32  C   UNK N   1      54.833  34.985  49.791  0.00  0.00     0.210 C 
ENDBRANCH  29  31
ENDBRANCH   3  24
BRANCH   2  33
HETATM   33  O   UNK N   1      46.185  34.408  53.400  0.00  0.00    -0.361 OA
HETATM   34  H   UNK N   1      45.756  35.243  53.164  0.00  0.00     0.217 HD
ENDBRANCH   2  33
TORSDOF 7
ENDMDL
MODEL 4
REMARK VINA RESULT:      -5.4     20.247     22.397
REMARK  7 active torsions:
REMARK  status: ('A' for Active; 'I' for Inactive)
REMARK    1  A    between atoms: O_3  and  C_13 
REMARK    2  A    between atoms: O_3  and  C_23 
REMARK    3  A    between atoms: O_4  and  C_14 
REMARK    4  A    between atoms: O_5  and  C_15 
REMARK    5  A    between atoms: O_9  and  C_25 
REMARK    6  A    between atoms: O_10  and  C_26 
REMARK    7  A    between atoms: C_12  and  C_16 
ROOT
HETATM    1  C   UNK N   1      29.185  40.310  56.265  0.00  0.00     0.088 A 
HETATM    2  C   UNK N   1      28.602  38.085  57.069  0.00  0.00     0.068 A 
HETATM    3  C   UNK N   1      28.300  40.145  55.179  0.00  0.00     0.037 A 
HETATM    4  C   UNK N   1      27.555  38.948  55.050  0.00  0.00    -0.044 A 
HETATM    5  C   UNK N   1      29.333  39.266  57.199  0.00  0.00     0.074 A 
HETATM    6  C   UNK N   1      27.715  37.928  55.999  0.00  0.00     0.044 A 
HETATM    7  C   UNK N   1      26.576  38.757  53.921  0.00  0.00     0.049 C 
ENDROOT
BRANCH   1   8
HETATM    8  O   UNK N   1      29.858  41.488  56.410  0.00  0.00    -0.317 OA
BRANCH   8   9
HETATM    9  C   UNK N   1      29.624  42.382  57.448  0.00  0.00     0.298 C 
HETATM   10  O   UNK N   1      30.070  41.878  58.704  0.00  0.00    -0.348 OA
HETATM   11  C   UNK N   1      31.487  41.794  58.762  0.00  0.00     0.180 C 
HETATM   12  C   UNK N   1      32.151  43.169  58.614  0.00  0.00     0.187 C 
HETATM   13  C   UNK N   1      31.923  41.274  60.124  0.00  0.00     0.205 C 
HETATM   14  O   UNK N   1      33.555  43.036  58.695  0.00  0.00    -0.351 OA
HETATM   15  C   UNK N   1      31.750  43.744  57.246  0.00  0.00     0.183 C 
HETATM   16  C   UNK N   1      33.962  42.443  59.925  0.00  0.00     0.256 C 
HETATM   17  O   UNK N   1      33.333  41.191  60.191  0.00  0.00    -0.359 OA
HETATM   18  C   UNK N   1      33.911  43.415  61.117  0.00  0.00     0.070 C 
HETATM   19  C   UNK N   1      30.212  43.776  57.130  0.00  0.00     0.205 C 
BRANCH  15  20
HETATM   20  O   UNK N   1      32.309  45.018  57.032  0.00  0.00    -0.390 OA
HETATM   21  H   UNK N   1      31.591  45.613  56.688  0.00  0.00     0.210 HD
ENDBRANCH  15  20
BRANCH  19  22
HETATM   22  O   UNK N   1      29.657  44.756  57.979  0.00  0.00    -0.388 OA
HETATM   23  H   UNK N   1      29.622  44.402  58.904  0.00  0.00     0.210 HD
ENDBRANCH  19  22
ENDBRANCH   8   9
ENDBRANCH   1   8
BRANCH   3  24
HETATM   24  C   UNK N   1      28.105  41.251  54.225  0.00  0.00     0.095 A 
HETATM   25  O   UNK N   1      28.927  41.362  53.186  0.00  0.00    -0.274 OA
HETATM   26  C   UNK N   1      28.818  42.337  52.287  0.00  0.00     0.290 A 
HETATM   27  O   UNK N   1      29.599  42.390  51.356  0.00  0.00    -0.260 OA
HETATM   28  C   UNK N   1      27.810  43.298  52.409  0.00  0.00     0.119 A 
HETATM   29  C   UNK N   1      26.917  43.219  53.493  0.00  0.00     0.076 A 
HETATM   30  C   UNK N   1      27.072  42.180  54.412  0.00  0.00     0.075 A 
BRANCH  29  31
HETATM   31  O   UNK N   1      25.914  44.117  53.678  0.00  0.00    -0.356 OA
HETATM   32  C   UNK N   1      24.594  43.909  53.329  0.00  0.00     0.210 C 
ENDBRANCH  29  31
ENDBRANCH   3  24
BRANCH   2  33
HETATM   33  O   UNK N   1      28.750  37.108  57.987  0.00  0.00    -0.361 OA
HETATM   34  H   UNK N   1      29.409  36.407  57.882  0.00  0.00     0.217 HD
ENDBRANCH   2  33
TORSDOF 7
ENDMDL
MODEL 5
REMARK VINA RESULT:      -5.3     20.387     23.787
REMARK  7 active torsions:
REMARK  status: ('A' for Active; 'I' for Inactive)
REMARK    1  A    between atoms: O_3  and  C_13 
REMARK    2  A    between atoms: O_3  and  C_23 
REMARK    3  A    between atoms: O_4  and  C_14 
REMARK    4  A    between atoms: O_5  and  C_15 
REMARK    5  A    between atoms: O_9  and  C_25 
REMARK    6  A    between atoms: O_10  and  C_26 
REMARK    7  A    between atoms: C_12  and  C_16 
ROOT
HETATM    1  C   UNK N   1      27.353  39.011  53.632  0.00  0.00     0.088 A 
HETATM    2  C   UNK N   1      27.139  36.591  53.450  0.00  0.00     0.068 A 
HETATM    3  C   UNK N   1      28.375  38.845  54.589  0.00  0.00     0.037 A 
HETATM    4  C   UNK N   1      28.787  37.543  54.965  0.00  0.00    -0.044 A 
HETATM    5  C   UNK N   1      26.736  37.873  53.076  0.00  0.00     0.074 A 
HETATM    6  C   UNK N   1      28.162  36.427  54.390  0.00  0.00     0.044 A 
HETATM    7  C   UNK N   1      29.900  37.334  55.958  0.00  0.00     0.049 C 
ENDROOT
BRANCH   1   8
HETATM    8  O   UNK N   1      27.001  40.269  53.236  0.00  0.00    -0.317 OA
BRANCH   8   9
HETATM    9  C   UNK N   1      27.514  40.889  52.103  0.00  0.00     0.298 C 
HETATM   10  O   UNK N   1      26.642  40.770  50.983  0.00  0.00    -0.348 OA
HETATM   11  C   UNK N   1      25.452  41.526  51.163  0.00  0.00     0.180 C 
HETATM   12  C   UNK N   1      25.739  43.026  51.301  0.00  0.00     0.187 C 
HETATM   13  C   UNK N   1      24.559  41.391  49.936  0.00  0.00     0.205 C 
HETATM   14  O   UNK N   1      24.526  43.734  51.460  0.00  0.00    -0.351 OA
HETATM   15  C   UNK N   1      26.635  43.226  52.533  0.00  0.00     0.183 C 
HETATM   16  C   UNK N   1      23.639  43.520  50.365  0.00  0.00     0.256 C 
HETATM   17  O   UNK N   1      23.374  42.143  50.107  0.00  0.00    -0.359 OA
HETATM   18  C   UNK N   1      24.024  44.314  49.104  0.00  0.00     0.070 C 
HETATM   19  C   UNK N   1      27.902  42.357  52.396  0.00  0.00     0.205 C 
BRANCH  15  20
HETATM   20  O   UNK N   1      26.960  44.581  52.728  0.00  0.00    -0.390 OA
HETATM   21  H   UNK N   1      26.398  44.926  53.472  0.00  0.00     0.210 HD
ENDBRANCH  15  20
BRANCH  19  22
HETATM   22  O   UNK N   1      28.756  42.855  51.389  0.00  0.00    -0.388 OA
HETATM   23  H   UNK N   1      29.045  42.106  50.809  0.00  0.00     0.210 HD
ENDBRANCH  19  22
ENDBRANCH   8   9
ENDBRANCH   1   8
BRANCH   3  24
HETATM   24  C   UNK N   1      29.057  40.030  55.138  0.00  0.00     0.095 A 
HETATM   25  O   UNK N   1      30.136  40.500  54.520  0.00  0.00    -0.274 OA
HETATM   26  C   UNK N   1      30.809  41.561  54.960  0.00  0.00     0.290 A 
HETATM   27  O   UNK N   1      31.791  41.947  54.355  0.00  0.00    -0.260 OA
HETATM   28  C   UNK N   1      30.391  42.231  56.114  0.00  0.00     0.119 A 
HETATM   29  C   UNK N   1      29.254  41.769  56.799  0.00  0.00     0.076 A 
HETATM   30  C   UNK N   1      28.581  40.651  56.301  0.00  0.00     0.075 A 
BRANCH  29  31
HETATM   31  O   UNK N   1      28.789  42.368  57.927  0.00  0.00    -0.356 OA
HETATM   32  C   UNK N   1      29.567  42.715  59.014  0.00  0.00     0.210 C 
ENDBRANCH  29  31
ENDBRANCH   3  24
BRANCH   2  33
HETATM   33  O   UNK N   1      26.543  35.518  52.890  0.00  0.00    -0.361 OA
HETATM   34  H   UNK N   1      25.718  35.598  52.390  0.00  0.00     0.217 HD
ENDBRANCH   2  33
TORSDOF 7
ENDMDL
MODEL 6
REMARK VINA RESULT:      -5.2     19.892     21.846
REMARK  7 active torsions:
REMARK  status: ('A' for Active; 'I' for Inactive)
REMARK    1  A    between atoms: O_3  and  C_13 
REMARK    2  A    between atoms: O_3  and  C_23 
REMARK    3  A    between atoms: O_4  and  C_14 
REMARK    4  A    between atoms: O_5  and  C_15 
REMARK    5  A    between atoms: O_9  and  C_25 
REMARK    6  A    between atoms: O_10  and  C_26 
REMARK    7  A    between atoms: C_12  and  C_16 
ROOT
HETATM    1  C   UNK N   1      29.369  41.386  54.872  0.00  0.00     0.088 A 
HETATM    2  C   UNK N   1      28.831  42.122  52.612  0.00  0.00     0.068 A 
HETATM    3  C   UNK N   1      28.517  40.275  54.708  0.00  0.00     0.037 A 
HETATM    4  C   UNK N   1      27.832  40.083  53.483  0.00  0.00    -0.044 A 
HETATM    5  C   UNK N   1      29.511  42.309  53.815  0.00  0.00     0.074 A 
HETATM    6  C   UNK N   1      27.997  41.012  52.446  0.00  0.00     0.044 A 
HETATM    7  C   UNK N   1      26.942  38.887  53.267  0.00  0.00     0.049 C 
ENDROOT
BRANCH   1   8
HETATM    8  O   UNK N   1      30.067  41.533  56.035  0.00  0.00    -0.317 OA
BRANCH   8   9
HETATM    9  C   UNK N   1      29.700  42.416  57.043  0.00  0.00     0.298 C 
HETATM   10  O   UNK N   1      29.922  41.872  58.341  0.00  0.00    -0.348 OA
HETATM   11  C   UNK N   1      31.308  41.735  58.622  0.00  0.00     0.180 C 
HETATM   12  C   UNK N   1      32.033  43.087  58.615  0.00  0.00     0.187 C 
HETATM   13  C   UNK N   1      31.503  41.174  60.024  0.00  0.00     0.205 C 
HETATM   14  O   UNK N   1      33.401  42.900  58.916  0.00  0.00    -0.351 OA
HETATM   15  C   UNK N   1      31.876  43.702  57.215  0.00  0.00     0.183 C 
HETATM   16  C   UNK N   1      33.585  42.270  60.181  0.00  0.00     0.256 C 
HETATM   17  O   UNK N   1      32.880  41.037  60.312  0.00  0.00    -0.359 OA
HETATM   18  C   UNK N   1      33.377  43.221  61.372  0.00  0.00     0.070 C 
HETATM   19  C   UNK N   1      30.379  43.793  56.856  0.00  0.00     0.205 C 
BRANCH  15  20
HETATM   20  O   UNK N   1      32.504  44.957  57.124  0.00  0.00    -0.390 OA
HETATM   21  H   UNK N   1      32.980  45.124  57.981  0.00  0.00     0.210 HD
ENDBRANCH  15  20
BRANCH  19  22
HETATM   22  O   UNK N   1      29.728  44.776  57.630  0.00  0.00    -0.388 OA
HETATM   23  H   UNK N   1      30.329  45.063  58.363  0.00  0.00     0.210 HD
ENDBRANCH  19  22
ENDBRANCH   8   9
ENDBRANCH   1   8
BRANCH   3  24
HETATM   24  C   UNK N   1      28.402  39.281  55.790  0.00  0.00     0.095 A 
HETATM   25  O   UNK N   1      27.512  39.479  56.758  0.00  0.00    -0.274 OA
HETATM   26  C   UNK N   1      27.354  38.631  57.771  0.00  0.00     0.290 A 
HETATM   27  O   UNK N   1      26.525  38.863  58.630  0.00  0.00    -0.260 OA
HETATM   28  C   UNK N   1      28.138  37.476  57.851  0.00  0.00     0.119 A 
HETATM   29  C   UNK N   1      29.092  37.226  56.848  0.00  0.00     0.076 A 
HETATM   30  C   UNK N   1      29.223  38.145  55.805  0.00  0.00     0.075 A 
BRANCH  29  31
HETATM   31  O   UNK N   1      29.890  36.126  56.859  0.00  0.00    -0.356 OA
HETATM   32  C   UNK N   1      30.278  35.422  55.737  0.00  0.00     0.210 C 
ENDBRANCH  29  31
ENDBRANCH   3  24
BRANCH   2  33
HETATM   33  O   UNK N   1      28.998  43.011  51.611  0.00  0.00    -0.361 OA
HETATM   34  H   UNK N   1      29.873  43.213  51.250  0.00  0.00     0.217 HD
ENDBRANCH   2  33
TORSDOF 7
ENDMDL
MODEL 7
REMARK VINA RESULT:      -5.1     20.649     23.565
REMARK  7 active torsions:
REMARK  status: ('A' for Active; 'I' for Inactive)
REMARK    1  A    between atoms: O_3  and  C_13 
REMARK    2  A    between atoms: O_3  and  C_23 
REMARK    3  A    between atoms: O_4  and  C_14 
REMARK    4  A    between atoms: O_5  and  C_15 
REMARK    5  A    between atoms: O_9  and  C_25 
REMARK    6  A    between atoms: O_10  and  C_26 
REMARK    7  A    between atoms: C_12  and  C_16 
ROOT
HETATM    1  C   UNK N   1      48.487  56.317  57.057  0.00  0.00     0.088 A 
HETATM    2  C   UNK N   1      46.775  57.912  57.740  0.00  0.00     0.068 A 
HETATM    3  C   UNK N   1      48.723  55.998  58.410  0.00  0.00     0.037 A 
HETATM    4  C   UNK N   1      47.970  56.632  59.428  0.00  0.00    -0.044 A 
HETATM    5  C   UNK N   1      47.513  57.284  56.736  0.00  0.00     0.074 A 
HETATM    6  C   UNK N   1      47.001  57.584  59.081  0.00  0.00     0.044 A 
HETATM    7  C   UNK N   1      48.176  56.286  60.880  0.00  0.00     0.049 C 
ENDROOT
BRANCH   1   8
HETATM    8  O   UNK N   1      49.179  55.662  56.081  0.00  0.00    -0.317 OA
BRANCH   8   9
HETATM    9  C   UNK N   1      49.986  56.304  55.150  0.00  0.00     0.298 C 
HETATM   10  O   UNK N   1      51.367  56.226  55.489  0.00  0.00    -0.348 OA
HETATM   11  C   UNK N   1      51.862  54.899  55.374  0.00  0.00     0.180 C 
HETATM   12  C   UNK N   1      51.764  54.372  53.938  0.00  0.00     0.187 C 
HETATM   13  C   UNK N   1      53.343  54.863  55.723  0.00  0.00     0.205 C 
HETATM   14  O   UNK N   1      52.282  53.059  53.871  0.00  0.00    -0.351 OA
HETATM   15  C   UNK N   1      50.282  54.379  53.530  0.00  0.00     0.183 C 
HETATM   16  C   UNK N   1      53.638  53.001  54.306  0.00  0.00     0.256 C 
HETATM   17  O   UNK N   1      53.844  53.546  55.608  0.00  0.00    -0.359 OA
HETATM   18  C   UNK N   1      54.637  53.528  53.261  0.00  0.00     0.070 C 
HETATM   19  C   UNK N   1      49.701  55.795  53.717  0.00  0.00     0.205 C 
BRANCH  15  20
HETATM   20  O   UNK N   1      50.101  53.919  52.213  0.00  0.00    -0.390 OA
HETATM   21  H   UNK N   1      49.622  53.049  52.255  0.00  0.00     0.210 HD
ENDBRANCH  15  20
BRANCH  19  22
HETATM   22  O   UNK N   1      50.222  56.691  52.760  0.00  0.00    -0.388 OA
HETATM   23  H   UNK N   1      49.800  56.509  51.882  0.00  0.00     0.210 HD
ENDBRANCH  19  22
ENDBRANCH   8   9
ENDBRANCH   1   8
BRANCH   3  24
HETATM   24  C   UNK N   1      49.705  54.953  58.750  0.00  0.00     0.095 A 
HETATM   25  O   UNK N   1      50.984  55.289  58.892  0.00  0.00    -0.274 OA
HETATM   26  C   UNK N   1      51.929  54.401  59.192  0.00  0.00     0.290 A 
HETATM   27  O   UNK N   1      53.083  54.765  59.309  0.00  0.00    -0.260 OA
HETATM   28  C   UNK N   1      51.598  53.055  59.372  0.00  0.00     0.119 A 
HETATM   29  C   UNK N   1      50.258  52.655  59.232  0.00  0.00     0.076 A 
HETATM   30  C   UNK N   1      49.301  53.621  58.915  0.00  0.00     0.075 A 
BRANCH  29  31
HETATM   31  O   UNK N   1      49.861  51.365  59.391  0.00  0.00    -0.356 OA
HETATM   32  C   UNK N   1      48.840  50.950  60.222  0.00  0.00     0.210 C 
ENDBRANCH  29  31
ENDBRANCH   3  24
BRANCH   2  33
HETATM   33  O   UNK N   1      45.838  58.821  57.404  0.00  0.00    -0.361 OA
HETATM   34  H   UNK N   1      45.495  59.460  58.045  0.00  0.00     0.217 HD
ENDBRANCH   2  33
TORSDOF 7
ENDMDL
MODEL 8
REMARK VINA RESULT:      -5.0     20.357     22.188
REMARK  7 active torsions:
REMARK  status: ('A' for Active; 'I' for Inactive)
REMARK    1  A    between atoms: O_3  and  C_13 
REMARK    2  A    between atoms: O_3  and  C_23 
REMARK    3  A    between atoms: O_4  and  C_14 
REMARK    4  A    between atoms: O_5  and  C_15 
REMARK    5  A    between atoms: O_9  and  C_25 
REMARK    6  A    between atoms: O_10  and  C_26 
REMARK    7  A    between atoms: C_12  and  C_16 
ROOT
HETATM    1  C   UNK N   1      29.852  41.612  54.860  0.00  0.00     0.088 A 
HETATM    2  C   UNK N   1      29.283  42.011  52.525  0.00  0.00     0.068 A 
HETATM    3  C   UNK N   1      28.854  40.620  54.930  0.00  0.00     0.037 A 
HETATM    4  C   UNK N   1      28.077  40.316  53.785  0.00  0.00    -0.044 A 
HETATM    5  C   UNK N   1      30.051  42.308  53.651  0.00  0.00     0.074 A 
HETATM    6  C   UNK N   1      28.302  41.017  52.591  0.00  0.00     0.044 A 
HETATM    7  C   UNK N   1      27.027  39.236  53.819  0.00  0.00     0.049 C 
ENDROOT
BRANCH   1   8
HETATM    8  O   UNK N   1      30.631  41.860  55.953  0.00  0.00    -0.317 OA
BRANCH   8   9
HETATM    9  C   UNK N   1      30.663  43.084  56.610  0.00  0.00     0.298 C 
HETATM   10  O   UNK N   1      29.856  43.085  57.784  0.00  0.00    -0.348 OA
HETATM   11  C   UNK N   1      30.398  42.245  58.795  0.00  0.00     0.180 C 
HETATM   12  C   UNK N   1      31.784  42.716  59.251  0.00  0.00     0.187 C 
HETATM   13  C   UNK N   1      29.520  42.293  60.038  0.00  0.00     0.205 C 
HETATM   14  O   UNK N   1      32.273  41.861  60.265  0.00  0.00    -0.351 OA
HETATM   15  C   UNK N   1      32.721  42.682  58.033  0.00  0.00     0.183 C 
HETATM   16  C   UNK N   1      31.394  41.814  61.387  0.00  0.00     0.256 C 
HETATM   17  O   UNK N   1      30.055  41.462  61.049  0.00  0.00    -0.359 OA
HETATM   18  C   UNK N   1      31.488  43.058  62.287  0.00  0.00     0.070 C 
HETATM   19  C   UNK N   1      32.117  43.529  56.894  0.00  0.00     0.205 C 
BRANCH  15  20
HETATM   20  O   UNK N   1      34.019  43.114  58.361  0.00  0.00    -0.390 OA
HETATM   21  H   UNK N   1      34.656  42.669  57.741  0.00  0.00     0.210 HD
ENDBRANCH  15  20
BRANCH  19  22
HETATM   22  O   UNK N   1      32.164  44.905  57.200  0.00  0.00    -0.388 OA
HETATM   23  H   UNK N   1      32.794  45.049  57.951  0.00  0.00     0.210 HD
ENDBRANCH  19  22
ENDBRANCH   8   9
ENDBRANCH   1   8
BRANCH   3  24
HETATM   24  C   UNK N   1      28.673  39.855  56.177  0.00  0.00     0.095 A 
HETATM   25  O   UNK N   1      29.351  38.725  56.347  0.00  0.00    -0.274 OA
HETATM   26  C   UNK N   1      29.236  37.978  57.442  0.00  0.00     0.290 A 
HETATM   27  O   UNK N   1      29.881  36.952  57.544  0.00  0.00    -0.260 OA
HETATM   28  C   UNK N   1      28.376  38.368  58.473  0.00  0.00     0.119 A 
HETATM   29  C   UNK N   1      27.639  39.557  58.336  0.00  0.00     0.076 A 
HETATM   30  C   UNK N   1      27.792  40.308  57.169  0.00  0.00     0.075 A 
BRANCH  29  31
HETATM   31  O   UNK N   1      26.783  39.999  59.295  0.00  0.00    -0.356 OA
HETATM   32  C   UNK N   1      26.777  39.566  60.606  0.00  0.00     0.210 C 
ENDBRANCH  29  31
ENDBRANCH   3  24
BRANCH   2  33
HETATM   33  O   UNK N   1      29.506  42.680  51.375  0.00  0.00    -0.361 OA
HETATM   34  H   UNK N   1      28.864  42.675  50.650  0.00  0.00     0.217 HD
ENDBRANCH   2  33
TORSDOF 7
ENDMDL
MODEL 9
REMARK VINA RESULT:      -5.0     21.510     24.978
REMARK  7 active torsions:
REMARK  status: ('A' for Active; 'I' for Inactive)
REMARK    1  A    between atoms: O_3  and  C_13 
REMARK    2  A    between atoms: O_3  and  C_23 
REMARK    3  A    between atoms: O_4  and  C_14 
REMARK    4  A    between atoms: O_5  and  C_15 
REMARK    5  A    between atoms: O_9  and  C_25 
REMARK    6  A    between atoms: O_10  and  C_26 
REMARK    7  A    between atoms: C_12  and  C_16 
ROOT
HETATM    1  C   UNK N   1      30.974  45.064  60.618  0.00  0.00     0.088 A 
HETATM    2  C   UNK N   1      31.952  44.604  62.802  0.00  0.00     0.068 A 
HETATM    3  C   UNK N   1      31.344  43.775  60.185  0.00  0.00     0.037 A 
HETATM    4  C   UNK N   1      32.010  42.894  61.073  0.00  0.00    -0.044 A 
HETATM    5  C   UNK N   1      31.292  45.470  61.929  0.00  0.00     0.074 A 
HETATM    6  C   UNK N   1      32.307  43.320  62.376  0.00  0.00     0.044 A 
HETATM    7  C   UNK N   1      32.386  41.498  60.650  0.00  0.00     0.049 C 
ENDROOT
BRANCH   1   8
HETATM    8  O   UNK N   1      30.286  45.885  59.773  0.00  0.00    -0.317 OA
BRANCH   8   9
HETATM    9  C   UNK N   1      29.125  46.559  60.134  0.00  0.00     0.298 C 
HETATM   10  O   UNK N   1      29.269  47.973  60.026  0.00  0.00    -0.348 OA
HETATM   11  C   UNK N   1      29.386  48.386  58.671  0.00  0.00     0.180 C 
HETATM   12  C   UNK N   1      28.136  48.038  57.854  0.00  0.00     0.187 C 
HETATM   13  C   UNK N   1      29.514  49.901  58.598  0.00  0.00     0.205 C 
HETATM   14  O   UNK N   1      28.293  48.483  56.522  0.00  0.00    -0.351 OA
HETATM   15  C   UNK N   1      27.958  46.512  57.886  0.00  0.00     0.183 C 
HETATM   16  C   UNK N   1      28.528  49.888  56.456  0.00  0.00     0.256 C 
HETATM   17  O   UNK N   1      29.628  50.321  57.253  0.00  0.00    -0.359 OA
HETATM   18  C   UNK N   1      27.256  50.728  56.665  0.00  0.00     0.070 C 
HETATM   19  C   UNK N   1      27.902  46.029  59.350  0.00  0.00     0.205 C 
BRANCH  15  20
HETATM   20  O   UNK N   1      26.820  46.104  57.166  0.00  0.00    -0.390 OA
HETATM   21  H   UNK N   1      26.873  46.503  56.258  0.00  0.00     0.210 HD
ENDBRANCH  15  20
BRANCH  19  22
HETATM   22  O   UNK N   1      26.702  46.428  59.973  0.00  0.00    -0.388 OA
HETATM   23  H   UNK N   1      26.034  46.654  59.278  0.00  0.00     0.210 HD
ENDBRANCH  19  22
ENDBRANCH   8   9
ENDBRANCH   1   8
BRANCH   3  24
HETATM   24  C   UNK N   1      30.972  43.326  58.832  0.00  0.00     0.095 A 
HETATM   25  O   UNK N   1      31.876  43.387  57.858  0.00  0.00    -0.274 OA
HETATM   26  C   UNK N   1      31.612  43.007  56.611  0.00  0.00     0.290 A 
HETATM   27  O   UNK N   1      32.478  43.086  55.760  0.00  0.00    -0.260 OA
HETATM   28  C   UNK N   1      30.346  42.520  56.276  0.00  0.00     0.119 A 
HETATM   29  C   UNK N   1      29.359  42.437  57.274  0.00  0.00     0.076 A 
HETATM   30  C   UNK N   1      29.681  42.849  58.569  0.00  0.00     0.075 A 
BRANCH  29  31
HETATM   31  O   UNK N   1      28.105  41.975  57.023  0.00  0.00    -0.356 OA
HETATM   32  C   UNK N   1      27.151  42.645  56.284  0.00  0.00     0.210 C 
ENDBRANCH  29  31
ENDBRANCH   3  24
BRANCH   2  33
HETATM   33  O   UNK N   1      32.230  45.013  64.057  0.00  0.00    -0.361 OA
HETATM   34  H   UNK N   1      33.141  45.119  64.368  0.00  0.00     0.217 HD
ENDBRANCH   2  33
TORSDOF 7
ENDMDL
