MODEL 1
REMARK VINA RESULT:      -4.9      0.000      0.000
REMARK  14 active torsions:
REMARK  status: ('A' for Active; 'I' for Inactive)
REMARK    1  A    between atoms: O_3  and  C_15 
REMARK    2  A    between atoms: O_4  and  C_16 
REMARK    3  A    between atoms: O_5  and  C_27 
REMARK    4  A    between atoms: O_7  and  C_29 
REMARK    5  A    between atoms: O_7  and  C_33 
REMARK    6  A    between atoms: O_8  and  C_30 
REMARK    7  A    between atoms: O_9  and  C_31 
REMARK    8  A    between atoms: O_11  and  C_34 
REMARK    9  A    between atoms: C_13  and  C_36 
REMARK   10  A    between atoms: C_18  and  C_28 
REMARK   11  A    between atoms: C_20  and  C_37 
REMARK   12  A    between atoms: C_27  and  C_36 
REMARK   13  A    between atoms: C_32  and  C_34 
REMARK   14  A    between atoms: C_33  and  C_40 
ROOT
HETATM    1  O   UNK N   1      26.866  40.613  54.494  0.00  0.00    -0.368 OA
HETATM    2  C   UNK N   1      27.786  41.461  55.158  0.00  0.00     0.193 C 
HETATM    3  C   UNK N   1      29.081  41.638  54.327  0.00  0.00     0.197 C 
HETATM    4  C   UNK N   1      28.724  42.189  52.939  0.00  0.00     0.181 C 
HETATM    5  C   UNK N   1      27.644  41.289  52.299  0.00  0.00     0.180 C 
HETATM    6  C   UNK N   1      26.441  41.188  53.269  0.00  0.00     0.177 C 
ENDROOT
BRANCH   2   7
HETATM    7  C   UNK N   1      28.083  40.865  56.529  0.00  0.00     0.041 A 
HETATM    8  C   UNK N   1      28.689  39.594  56.636  0.00  0.00     0.102 A 
HETATM    9  O   UNK N   1      28.985  38.926  55.522  0.00  0.00    -0.313 OA
HETATM   10  C   UNK N   1      28.975  39.027  57.905  0.00  0.00     0.055 A 
HETATM   11  C   UNK N   1      29.557  37.731  55.516  0.00  0.00     0.060 A 
HETATM   12  C   UNK N   1      29.869  37.101  56.719  0.00  0.00     0.088 A 
HETATM   13  C   UNK N   1      29.583  37.744  57.924  0.00  0.00     0.187 A 
HETATM   14  O   UNK N   1      29.864  37.182  58.966  0.00  0.00    -0.287 OA
HETATM   15  C   UNK N   1      28.641  39.763  59.082  0.00  0.00    -0.042 A 
HETATM   16  C   UNK N   1      28.030  41.020  58.955  0.00  0.00     0.045 A 
HETATM   17  C   UNK N   1      28.910  39.244  60.473  0.00  0.00     0.049 C 
HETATM   18  C   UNK N   1      27.747  41.567  57.704  0.00  0.00     0.080 A 
BRANCH  11  19
HETATM   19  C   UNK N   1      29.853  37.074  54.195  0.00  0.00     0.096 C 
BRANCH  19  20
HETATM   20  C   UNK N   1      28.583  36.788  53.374  0.00  0.00     0.120 C 
HETATM   21  C   UNK N   1      27.649  35.798  54.080  0.00  0.00     0.040 C 
BRANCH  20  22
HETATM   22  O   UNK N   1      27.904  38.001  53.175  0.00  0.00    -0.396 OA
HETATM   23  H   UNK N   1      27.284  38.114  53.942  0.00  0.00     0.210 HD
ENDBRANCH  20  22
ENDBRANCH  19  20
ENDBRANCH  11  19
BRANCH  18  24
HETATM   24  O   UNK N   1      27.146  42.776  57.639  0.00  0.00    -0.355 OA
HETATM   25  C   UNK N   1      27.853  43.941  57.849  0.00  0.00     0.210 C 
ENDBRANCH  18  24
ENDBRANCH   2   7
BRANCH   3  26
HETATM   26  O   UNK N   1      29.902  42.533  54.988  0.00  0.00    -0.307 OA
BRANCH  26  27
HETATM   27  C   UNK N   1      31.204  42.335  55.312  0.00  0.00     0.283 C 
HETATM   28  O   UNK N   1      31.976  41.804  54.524  0.00  0.00    -0.260 OA
BRANCH  27  29
HETATM   29  C   UNK N   1      31.680  42.848  56.609  0.00  0.00     0.083 C 
HETATM   30  C   UNK N   1      31.303  42.308  57.781  0.00  0.00     0.017 C 
BRANCH  30  31
HETATM   31  C   UNK N   1      31.861  42.763  59.083  0.00  0.00    -0.036 A 
HETATM   32  C   UNK N   1      30.981  43.288  60.042  0.00  0.00     0.014 A 
HETATM   33  C   UNK N   1      31.450  43.665  61.303  0.00  0.00     0.037 A 
HETATM   34  C   UNK N   1      32.813  43.548  61.612  0.00  0.00     0.065 A 
HETATM   35  C   UNK N   1      33.701  43.057  60.651  0.00  0.00     0.037 A 
HETATM   36  C   UNK N   1      33.232  42.657  59.397  0.00  0.00     0.014 A 
BRANCH  34  37
HETATM   37  O   UNK N   1      33.275  43.898  62.829  0.00  0.00    -0.361 OA
HETATM   38  H   UNK N   1      33.266  44.818  63.131  0.00  0.00     0.217 HD
ENDBRANCH  34  37
ENDBRANCH  30  31
ENDBRANCH  27  29
ENDBRANCH  26  27
ENDBRANCH   3  26
BRANCH   6  39
HETATM   39  C   UNK N   1      25.319  40.317  52.694  0.00  0.00     0.198 C 
BRANCH  39  40
HETATM   40  O   UNK N   1      25.845  39.365  51.806  0.00  0.00    -0.398 OA
HETATM   41  H   UNK N   1      25.376  38.509  51.987  0.00  0.00     0.209 HD
ENDBRANCH  39  40
ENDBRANCH   6  39
BRANCH   4  42
HETATM   42  O   UNK N   1      29.881  42.223  52.141  0.00  0.00    -0.390 OA
HETATM   43  H   UNK N   1      29.951  43.141  51.770  0.00  0.00     0.210 HD
ENDBRANCH   4  42
BRANCH   5  44
HETATM   44  O   UNK N   1      27.255  41.789  51.044  0.00  0.00    -0.390 OA
HETATM   45  H   UNK N   1      28.008  42.330  50.688  0.00  0.00     0.210 HD
ENDBRANCH   5  44
TORSDOF 14
ENDMDL
MODEL 2
REMARK VINA RESULT:      -4.8      2.934      6.628
REMARK  14 active torsions:
REMARK  status: ('A' for Active; 'I' for Inactive)
REMARK    1  A    between atoms: O_3  and  C_15 
REMARK    2  A    between atoms: O_4  and  C_16 
REMARK    3  A    between atoms: O_5  and  C_27 
REMARK    4  A    between atoms: O_7  and  C_29 
REMARK    5  A    between atoms: O_7  and  C_33 
REMARK    6  A    between atoms: O_8  and  C_30 
REMARK    7  A    between atoms: O_9  and  C_31 
REMARK    8  A    between atoms: O_11  and  C_34 
REMARK    9  A    between atoms: C_13  and  C_36 
REMARK   10  A    between atoms: C_18  and  C_28 
REMARK   11  A    between atoms: C_20  and  C_37 
REMARK   12  A    between atoms: C_27  and  C_36 
REMARK   13  A    between atoms: C_32  and  C_34 
REMARK   14  A    between atoms: C_33  and  C_40 
ROOT
HETATM    1  O   UNK N   1      26.419  44.786  57.531  0.00  0.00    -0.368 OA
HETATM    2  C   UNK N   1      26.601  43.405  57.789  0.00  0.00     0.193 C 
HETATM    3  C   UNK N   1      26.773  43.140  59.305  0.00  0.00     0.197 C 
HETATM    4  C   UNK N   1      25.553  43.687  60.060  0.00  0.00     0.181 C 
HETATM    5  C   UNK N   1      25.335  45.164  59.666  0.00  0.00     0.180 C 
HETATM    6  C   UNK N   1      25.220  45.258  58.124  0.00  0.00     0.177 C 
ENDROOT
BRANCH   2   7
HETATM    7  C   UNK N   1      27.814  42.927  57.000  0.00  0.00     0.041 A 
HETATM    8  C   UNK N   1      29.101  43.422  57.304  0.00  0.00     0.102 A 
HETATM    9  O   UNK N   1      29.232  44.317  58.281  0.00  0.00    -0.313 OA
HETATM   10  C   UNK N   1      30.240  42.984  56.581  0.00  0.00     0.055 A 
HETATM   11  C   UNK N   1      30.394  44.839  58.645  0.00  0.00     0.060 A 
HETATM   12  C   UNK N   1      31.563  44.466  57.985  0.00  0.00     0.088 A 
HETATM   13  C   UNK N   1      31.498  43.533  56.949  0.00  0.00     0.187 A 
HETATM   14  O   UNK N   1      32.527  43.214  56.384  0.00  0.00    -0.287 OA
HETATM   15  C   UNK N   1      30.070  42.027  55.535  0.00  0.00    -0.042 A 
HETATM   16  C   UNK N   1      28.782  41.555  55.241  0.00  0.00     0.045 A 
HETATM   17  C   UNK N   1      31.221  41.499  54.715  0.00  0.00     0.049 C 
HETATM   18  C   UNK N   1      27.666  41.996  55.953  0.00  0.00     0.080 A 
BRANCH  11  19
HETATM   19  C   UNK N   1      30.423  45.838  59.770  0.00  0.00     0.096 C 
BRANCH  19  20
HETATM   20  C   UNK N   1      29.579  47.091  59.475  0.00  0.00     0.120 C 
HETATM   21  C   UNK N   1      30.072  47.840  58.231  0.00  0.00     0.040 C 
BRANCH  20  22
HETATM   22  O   UNK N   1      28.248  46.691  59.275  0.00  0.00    -0.396 OA
HETATM   23  H   UNK N   1      27.707  47.520  59.195  0.00  0.00     0.210 HD
ENDBRANCH  20  22
ENDBRANCH  19  20
ENDBRANCH  11  19
BRANCH  18  24
HETATM   24  O   UNK N   1      26.446  41.517  55.620  0.00  0.00    -0.355 OA
HETATM   25  C   UNK N   1      26.210  40.950  54.386  0.00  0.00     0.210 C 
ENDBRANCH  18  24
ENDBRANCH   2   7
BRANCH   3  26
HETATM   26  O   UNK N   1      26.868  41.773  59.498  0.00  0.00    -0.307 OA
BRANCH  26  27
HETATM   27  C   UNK N   1      27.726  41.143  60.338  0.00  0.00     0.283 C 
HETATM   28  O   UNK N   1      27.440  40.061  60.835  0.00  0.00    -0.260 OA
BRANCH  27  29
HETATM   29  C   UNK N   1      29.043  41.761  60.572  0.00  0.00     0.083 C 
HETATM   30  C   UNK N   1      30.194  41.079  60.437  0.00  0.00     0.017 C 
BRANCH  30  31
HETATM   31  C   UNK N   1      31.525  41.729  60.577  0.00  0.00    -0.036 A 
HETATM   32  C   UNK N   1      32.576  41.286  59.760  0.00  0.00     0.014 A 
HETATM   33  C   UNK N   1      33.825  41.912  59.810  0.00  0.00     0.037 A 
HETATM   34  C   UNK N   1      34.046  42.974  60.699  0.00  0.00     0.065 A 
HETATM   35  C   UNK N   1      33.013  43.400  61.539  0.00  0.00     0.037 A 
HETATM   36  C   UNK N   1      31.757  42.791  61.477  0.00  0.00     0.014 A 
BRANCH  34  37
HETATM   37  O   UNK N   1      35.242  43.593  60.747  0.00  0.00    -0.361 OA
HETATM   38  H   UNK N   1      35.993  43.212  61.224  0.00  0.00     0.217 HD
ENDBRANCH  34  37
ENDBRANCH  30  31
ENDBRANCH  27  29
ENDBRANCH  26  27
ENDBRANCH   3  26
BRANCH   6  39
HETATM   39  C   UNK N   1      24.990  46.700  57.658  0.00  0.00     0.198 C 
BRANCH  39  40
HETATM   40  O   UNK N   1      26.189  47.262  57.194  0.00  0.00    -0.398 OA
HETATM   41  H   UNK N   1      26.687  46.540  56.729  0.00  0.00     0.209 HD
ENDBRANCH  39  40
ENDBRANCH   6  39
BRANCH   4  42
HETATM   42  O   UNK N   1      25.769  43.566  61.443  0.00  0.00    -0.390 OA
HETATM   43  H   UNK N   1      26.337  42.763  61.580  0.00  0.00     0.210 HD
ENDBRANCH   4  42
BRANCH   5  44
HETATM   44  O   UNK N   1      24.195  45.689  60.301  0.00  0.00    -0.390 OA
HETATM   45  H   UNK N   1      24.501  46.202  61.094  0.00  0.00     0.210 HD
ENDBRANCH   5  44
TORSDOF 14
ENDMDL
MODEL 3
REMARK VINA RESULT:      -4.8      2.444      6.649
REMARK  14 active torsions:
REMARK  status: ('A' for Active; 'I' for Inactive)
REMARK    1  A    between atoms: O_3  and  C_15 
REMARK    2  A    between atoms: O_4  and  C_16 
REMARK    3  A    between atoms: O_5  and  C_27 
REMARK    4  A    between atoms: O_7  and  C_29 
REMARK    5  A    between atoms: O_7  and  C_33 
REMARK    6  A    between atoms: O_8  and  C_30 
REMARK    7  A    between atoms: O_9  and  C_31 
REMARK    8  A    between atoms: O_11  and  C_34 
REMARK    9  A    between atoms: C_13  and  C_36 
REMARK   10  A    between atoms: C_18  and  C_28 
REMARK   11  A    between atoms: C_20  and  C_37 
REMARK   12  A    between atoms: C_27  and  C_36 
REMARK   13  A    between atoms: C_32  and  C_34 
REMARK   14  A    between atoms: C_33  and  C_40 
ROOT
HETATM    1  O   UNK N   1      30.443  42.953  58.445  0.00  0.00    -0.368 OA
HETATM    2  C   UNK N   1      30.214  42.140  59.583  0.00  0.00     0.193 C 
HETATM    3  C   UNK N   1      31.324  41.070  59.735  0.00  0.00     0.197 C 
HETATM    4  C   UNK N   1      32.692  41.763  59.816  0.00  0.00     0.181 C 
HETATM    5  C   UNK N   1      32.850  42.715  58.611  0.00  0.00     0.180 C 
HETATM    6  C   UNK N   1      31.647  43.690  58.584  0.00  0.00     0.177 C 
ENDROOT
BRANCH   2   7
HETATM    7  C   UNK N   1      28.839  41.499  59.443  0.00  0.00     0.041 A 
HETATM    8  C   UNK N   1      28.472  40.856  58.240  0.00  0.00     0.102 A 
HETATM    9  O   UNK N   1      29.342  40.831  57.233  0.00  0.00    -0.313 OA
HETATM   10  C   UNK N   1      27.197  40.251  58.097  0.00  0.00     0.055 A 
HETATM   11  C   UNK N   1      29.096  40.252  56.067  0.00  0.00     0.060 A 
HETATM   12  C   UNK N   1      27.866  39.636  55.840  0.00  0.00     0.088 A 
HETATM   13  C   UNK N   1      26.907  39.628  56.854  0.00  0.00     0.187 A 
HETATM   14  O   UNK N   1      25.839  39.084  56.642  0.00  0.00    -0.287 OA
HETATM   15  C   UNK N   1      26.281  40.298  59.191  0.00  0.00    -0.042 A 
HETATM   16  C   UNK N   1      26.661  40.950  60.375  0.00  0.00     0.045 A 
HETATM   17  C   UNK N   1      24.906  39.680  59.134  0.00  0.00     0.049 C 
HETATM   18  C   UNK N   1      27.914  41.548  60.506  0.00  0.00     0.080 A 
BRANCH  11  19
HETATM   19  C   UNK N   1      30.159  40.278  55.003  0.00  0.00     0.096 C 
BRANCH  19  20
HETATM   20  C   UNK N   1      30.342  41.673  54.379  0.00  0.00     0.120 C 
HETATM   21  C   UNK N   1      29.409  41.899  53.183  0.00  0.00     0.040 C 
BRANCH  20  22
HETATM   22  O   UNK N   1      30.071  42.637  55.363  0.00  0.00    -0.396 OA
HETATM   23  H   UNK N   1      30.578  42.372  56.175  0.00  0.00     0.210 HD
ENDBRANCH  20  22
ENDBRANCH  19  20
ENDBRANCH  11  19
BRANCH  18  24
HETATM   24  O   UNK N   1      28.224  42.173  61.663  0.00  0.00    -0.355 OA
HETATM   25  C   UNK N   1      28.297  41.483  62.855  0.00  0.00     0.210 C 
ENDBRANCH  18  24
ENDBRANCH   2   7
BRANCH   3  26
HETATM   26  O   UNK N   1      31.088  40.363  60.900  0.00  0.00    -0.307 OA
BRANCH  26  27
HETATM   27  C   UNK N   1      30.773  39.047  60.985  0.00  0.00     0.283 C 
HETATM   28  O   UNK N   1      30.658  38.495  62.072  0.00  0.00    -0.260 OA
BRANCH  27  29
HETATM   29  C   UNK N   1      30.498  38.319  59.733  0.00  0.00     0.083 C 
HETATM   30  C   UNK N   1      29.370  37.612  59.543  0.00  0.00     0.017 C 
BRANCH  30  31
HETATM   31  C   UNK N   1      29.049  36.961  58.245  0.00  0.00    -0.036 A 
HETATM   32  C   UNK N   1      30.010  36.994  57.223  0.00  0.00     0.014 A 
HETATM   33  C   UNK N   1      29.779  36.338  56.010  0.00  0.00     0.037 A 
HETATM   34  C   UNK N   1      28.570  35.662  55.795  0.00  0.00     0.065 A 
HETATM   35  C   UNK N   1      27.595  35.651  56.795  0.00  0.00     0.037 A 
HETATM   36  C   UNK N   1      27.830  36.287  58.017  0.00  0.00     0.014 A 
BRANCH  34  37
HETATM   37  O   UNK N   1      28.341  35.016  54.634  0.00  0.00    -0.361 OA
HETATM   38  H   UNK N   1      27.583  34.425  54.522  0.00  0.00     0.217 HD
ENDBRANCH  34  37
ENDBRANCH  30  31
ENDBRANCH  27  29
ENDBRANCH  26  27
ENDBRANCH   3  26
BRANCH   6  39
HETATM   39  C   UNK N   1      31.742  44.678  57.416  0.00  0.00     0.198 C 
BRANCH  39  40
HETATM   40  O   UNK N   1      32.403  44.087  56.328  0.00  0.00    -0.398 OA
HETATM   41  H   UNK N   1      31.963  44.422  55.504  0.00  0.00     0.209 HD
ENDBRANCH  39  40
ENDBRANCH   6  39
BRANCH   4  42
HETATM   42  O   UNK N   1      33.706  40.790  59.820  0.00  0.00    -0.390 OA
HETATM   43  H   UNK N   1      33.279  39.924  59.588  0.00  0.00     0.210 HD
ENDBRANCH   4  42
BRANCH   5  44
HETATM   44  O   UNK N   1      34.073  43.406  58.675  0.00  0.00    -0.390 OA
HETATM   45  H   UNK N   1      34.723  42.824  59.150  0.00  0.00     0.210 HD
ENDBRANCH   5  44
TORSDOF 14
ENDMDL
MODEL 4
REMARK VINA RESULT:      -4.8      5.625      9.134
REMARK  14 active torsions:
REMARK  status: ('A' for Active; 'I' for Inactive)
REMARK    1  A    between atoms: O_3  and  C_15 
REMARK    2  A    between atoms: O_4  and  C_16 
REMARK    3  A    between atoms: O_5  and  C_27 
REMARK    4  A    between atoms: O_7  and  C_29 
REMARK    5  A    between atoms: O_7  and  C_33 
REMARK    6  A    between atoms: O_8  and  C_30 
REMARK    7  A    between atoms: O_9  and  C_31 
REMARK    8  A    between atoms: O_11  and  C_34 
REMARK    9  A    between atoms: C_13  and  C_36 
REMARK   10  A    between atoms: C_18  and  C_28 
REMARK   11  A    between atoms: C_20  and  C_37 
REMARK   12  A    between atoms: C_27  and  C_36 
REMARK   13  A    between atoms: C_32  and  C_34 
REMARK   14  A    between atoms: C_33  and  C_40 
ROOT
HETATM    1  O   UNK N   1      26.428  49.373  58.593  0.00  0.00    -0.368 OA
HETATM    2  C   UNK N   1      26.789  48.969  59.902  0.00  0.00     0.193 C 
HETATM    3  C   UNK N   1      27.909  49.873  60.475  0.00  0.00     0.197 C 
HETATM    4  C   UNK N   1      27.441  51.335  60.458  0.00  0.00     0.181 C 
HETATM    5  C   UNK N   1      26.962  51.697  59.035  0.00  0.00     0.180 C 
HETATM    6  C   UNK N   1      25.877  50.680  58.601  0.00  0.00     0.177 C 
ENDROOT
BRANCH   2   7
HETATM    7  C   UNK N   1      27.226  47.510  59.848  0.00  0.00     0.041 A 
HETATM    8  C   UNK N   1      28.341  47.129  59.070  0.00  0.00     0.102 A 
HETATM    9  O   UNK N   1      28.994  48.062  58.380  0.00  0.00    -0.313 OA
HETATM   10  C   UNK N   1      28.762  45.775  59.013  0.00  0.00     0.055 A 
HETATM   11  C   UNK N   1      30.051  47.809  57.624  0.00  0.00     0.060 A 
HETATM   12  C   UNK N   1      30.530  46.505  57.510  0.00  0.00     0.088 A 
HETATM   13  C   UNK N   1      29.892  45.477  58.205  0.00  0.00     0.187 A 
HETATM   14  O   UNK N   1      30.323  44.344  58.097  0.00  0.00    -0.287 OA
HETATM   15  C   UNK N   1      28.040  44.794  59.758  0.00  0.00    -0.042 A 
HETATM   16  C   UNK N   1      26.929  45.191  60.517  0.00  0.00     0.045 A 
HETATM   17  C   UNK N   1      28.416  43.333  59.763  0.00  0.00     0.049 C 
HETATM   18  C   UNK N   1      26.518  46.523  60.563  0.00  0.00     0.080 A 
BRANCH  11  19
HETATM   19  C   UNK N   1      30.714  48.946  56.895  0.00  0.00     0.096 C 
BRANCH  19  20
HETATM   20  C   UNK N   1      29.707  49.985  56.372  0.00  0.00     0.120 C 
HETATM   21  C   UNK N   1      30.227  50.721  55.131  0.00  0.00     0.040 C 
BRANCH  20  22
HETATM   22  O   UNK N   1      28.514  49.320  56.047  0.00  0.00    -0.396 OA
HETATM   23  H   UNK N   1      28.555  48.427  56.479  0.00  0.00     0.210 HD
ENDBRANCH  20  22
ENDBRANCH  19  20
ENDBRANCH  11  19
BRANCH  18  24
HETATM   24  O   UNK N   1      25.433  46.848  61.301  0.00  0.00    -0.355 OA
HETATM   25  C   UNK N   1      25.477  46.853  62.678  0.00  0.00     0.210 C 
ENDBRANCH  18  24
ENDBRANCH   2   7
BRANCH   3  26
HETATM   26  O   UNK N   1      28.160  49.478  61.777  0.00  0.00    -0.307 OA
BRANCH  26  27
HETATM   27  C   UNK N   1      29.383  49.276  62.328  0.00  0.00     0.283 C 
HETATM   28  O   UNK N   1      29.937  50.157  62.973  0.00  0.00    -0.260 OA
BRANCH  27  29
HETATM   29  C   UNK N   1      29.989  47.939  62.194  0.00  0.00     0.083 C 
HETATM   30  C   UNK N   1      29.486  46.854  62.807  0.00  0.00     0.017 C 
BRANCH  30  31
HETATM   31  C   UNK N   1      30.040  45.490  62.593  0.00  0.00    -0.036 A 
HETATM   32  C   UNK N   1      31.128  45.339  61.719  0.00  0.00     0.014 A 
HETATM   33  C   UNK N   1      31.723  44.087  61.538  0.00  0.00     0.037 A 
HETATM   34  C   UNK N   1      31.220  42.964  62.210  0.00  0.00     0.065 A 
HETATM   35  C   UNK N   1      30.117  43.101  63.058  0.00  0.00     0.037 A 
HETATM   36  C   UNK N   1      29.533  44.354  63.258  0.00  0.00     0.014 A 
BRANCH  34  37
HETATM   37  O   UNK N   1      31.794  41.755  62.053  0.00  0.00    -0.361 OA
HETATM   38  H   UNK N   1      31.554  41.170  61.320  0.00  0.00     0.217 HD
ENDBRANCH  34  37
ENDBRANCH  30  31
ENDBRANCH  27  29
ENDBRANCH  26  27
ENDBRANCH   3  26
BRANCH   6  39
HETATM   39  C   UNK N   1      25.342  50.984  57.197  0.00  0.00     0.198 C 
BRANCH  39  40
HETATM   40  O   UNK N   1      26.402  51.261  56.319  0.00  0.00    -0.398 OA
HETATM   41  H   UNK N   1      27.220  51.358  56.873  0.00  0.00     0.209 HD
ENDBRANCH  39  40
ENDBRANCH   6  39
BRANCH   4  42
HETATM   42  O   UNK N   1      28.503  52.167  60.852  0.00  0.00    -0.390 OA
HETATM   43  H   UNK N   1      28.515  52.939  60.229  0.00  0.00     0.210 HD
ENDBRANCH   4  42
BRANCH   5  44
HETATM   44  O   UNK N   1      26.480  53.017  58.989  0.00  0.00    -0.390 OA
HETATM   45  H   UNK N   1      26.708  53.390  58.097  0.00  0.00     0.210 HD
ENDBRANCH   5  44
TORSDOF 14
ENDMDL
MODEL 5
REMARK VINA RESULT:      -4.8      3.583      6.653
REMARK  14 active torsions:
REMARK  status: ('A' for Active; 'I' for Inactive)
REMARK    1  A    between atoms: O_3  and  C_15 
REMARK    2  A    between atoms: O_4  and  C_16 
REMARK    3  A    between atoms: O_5  and  C_27 
REMARK    4  A    between atoms: O_7  and  C_29 
REMARK    5  A    between atoms: O_7  and  C_33 
REMARK    6  A    between atoms: O_8  and  C_30 
REMARK    7  A    between atoms: O_9  and  C_31 
REMARK    8  A    between atoms: O_11  and  C_34 
REMARK    9  A    between atoms: C_13  and  C_36 
REMARK   10  A    between atoms: C_18  and  C_28 
REMARK   11  A    between atoms: C_20  and  C_37 
REMARK   12  A    between atoms: C_27  and  C_36 
REMARK   13  A    between atoms: C_32  and  C_34 
REMARK   14  A    between atoms: C_33  and  C_40 
ROOT
HETATM    1  O   UNK N   1      28.820  40.822  58.432  0.00  0.00    -0.368 OA
HETATM    2  C   UNK N   1      29.081  42.188  58.161  0.00  0.00     0.193 C 
HETATM    3  C   UNK N   1      30.234  42.343  57.138  0.00  0.00     0.197 C 
HETATM    4  C   UNK N   1      29.878  41.583  55.852  0.00  0.00     0.181 C 
HETATM    5  C   UNK N   1      29.501  40.129  56.210  0.00  0.00     0.180 C 
HETATM    6  C   UNK N   1      28.368  40.153  57.266  0.00  0.00     0.177 C 
ENDROOT
BRANCH   2   7
HETATM    7  C   UNK N   1      29.410  42.882  59.478  0.00  0.00     0.041 A 
HETATM    8  C   UNK N   1      28.569  43.900  59.975  0.00  0.00     0.102 A 
HETATM    9  O   UNK N   1      27.493  44.248  59.271  0.00  0.00    -0.313 OA
HETATM   10  C   UNK N   1      28.859  44.552  61.201  0.00  0.00     0.055 A 
HETATM   11  C   UNK N   1      26.640  45.187  59.653  0.00  0.00     0.060 A 
HETATM   12  C   UNK N   1      26.852  45.879  60.843  0.00  0.00     0.088 A 
HETATM   13  C   UNK N   1      27.962  45.567  61.629  0.00  0.00     0.187 A 
HETATM   14  O   UNK N   1      28.133  46.178  62.667  0.00  0.00    -0.287 OA
HETATM   15  C   UNK N   1      30.022  44.164  61.933  0.00  0.00    -0.042 A 
HETATM   16  C   UNK N   1      30.852  43.157  61.416  0.00  0.00     0.045 A 
HETATM   17  C   UNK N   1      30.410  44.796  63.246  0.00  0.00     0.049 C 
HETATM   18  C   UNK N   1      30.562  42.525  60.207  0.00  0.00     0.080 A 
BRANCH  11  19
HETATM   19  C   UNK N   1      25.453  45.490  58.779  0.00  0.00     0.096 C 
BRANCH  19  20
HETATM   20  C   UNK N   1      25.840  46.225  57.483  0.00  0.00     0.120 C 
HETATM   21  C   UNK N   1      26.241  47.682  57.742  0.00  0.00     0.040 C 
BRANCH  20  22
HETATM   22  O   UNK N   1      26.920  45.547  56.896  0.00  0.00    -0.396 OA
HETATM   23  H   UNK N   1      27.688  45.632  57.520  0.00  0.00     0.210 HD
ENDBRANCH  20  22
ENDBRANCH  19  20
ENDBRANCH  11  19
BRANCH  18  24
HETATM   24  O   UNK N   1      31.402  41.570  59.750  0.00  0.00    -0.355 OA
HETATM   25  C   UNK N   1      32.728  41.540  60.126  0.00  0.00     0.210 C 
ENDBRANCH  18  24
ENDBRANCH   2   7
BRANCH   3  26
HETATM   26  O   UNK N   1      30.387  43.689  56.858  0.00  0.00    -0.307 OA
BRANCH  26  27
HETATM   27  C   UNK N   1      31.408  44.479  57.272  0.00  0.00     0.283 C 
HETATM   28  O   UNK N   1      32.535  44.024  57.426  0.00  0.00    -0.260 OA
BRANCH  27  29
HETATM   29  C   UNK N   1      31.140  45.917  57.453  0.00  0.00     0.083 C 
HETATM   30  C   UNK N   1      30.052  46.372  58.098  0.00  0.00     0.017 C 
BRANCH  30  31
HETATM   31  C   UNK N   1      29.834  47.819  58.366  0.00  0.00    -0.036 A 
HETATM   32  C   UNK N   1      29.994  48.728  57.309  0.00  0.00     0.014 A 
HETATM   33  C   UNK N   1      29.735  50.088  57.499  0.00  0.00     0.037 A 
HETATM   34  C   UNK N   1      29.336  50.562  58.756  0.00  0.00     0.065 A 
HETATM   35  C   UNK N   1      29.204  49.667  59.822  0.00  0.00     0.037 A 
HETATM   36  C   UNK N   1      29.442  48.304  59.632  0.00  0.00     0.014 A 
BRANCH  34  37
HETATM   37  O   UNK N   1      29.071  51.869  58.947  0.00  0.00    -0.361 OA
HETATM   38  H   UNK N   1      28.366  52.164  59.540  0.00  0.00     0.217 HD
ENDBRANCH  34  37
ENDBRANCH  30  31
ENDBRANCH  27  29
ENDBRANCH  26  27
ENDBRANCH   3  26
BRANCH   6  39
HETATM   39  C   UNK N   1      27.931  38.738  57.663  0.00  0.00     0.198 C 
BRANCH  39  40
HETATM   40  O   UNK N   1      29.006  37.843  57.544  0.00  0.00    -0.398 OA
HETATM   41  H   UNK N   1      29.825  38.389  57.420  0.00  0.00     0.209 HD
ENDBRANCH  39  40
ENDBRANCH   6  39
BRANCH   4  42
HETATM   42  O   UNK N   1      30.977  41.612  54.976  0.00  0.00    -0.390 OA
HETATM   43  H   UNK N   1      31.490  40.775  55.125  0.00  0.00     0.210 HD
ENDBRANCH   4  42
BRANCH   5  44
HETATM   44  O   UNK N   1      29.122  39.412  55.062  0.00  0.00    -0.390 OA
HETATM   45  H   UNK N   1      29.414  38.470  55.184  0.00  0.00     0.210 HD
ENDBRANCH   5  44
TORSDOF 14
ENDMDL
MODEL 6
REMARK VINA RESULT:      -4.8      3.584      6.902
REMARK  14 active torsions:
REMARK  status: ('A' for Active; 'I' for Inactive)
REMARK    1  A    between atoms: O_3  and  C_15 
REMARK    2  A    between atoms: O_4  and  C_16 
REMARK    3  A    between atoms: O_5  and  C_27 
REMARK    4  A    between atoms: O_7  and  C_29 
REMARK    5  A    between atoms: O_7  and  C_33 
REMARK    6  A    between atoms: O_8  and  C_30 
REMARK    7  A    between atoms: O_9  and  C_31 
REMARK    8  A    between atoms: O_11  and  C_34 
REMARK    9  A    between atoms: C_13  and  C_36 
REMARK   10  A    between atoms: C_18  and  C_28 
REMARK   11  A    between atoms: C_20  and  C_37 
REMARK   12  A    between atoms: C_27  and  C_36 
REMARK   13  A    between atoms: C_32  and  C_34 
REMARK   14  A    between atoms: C_33  and  C_40 
ROOT
HETATM    1  O   UNK N   1      29.615  40.783  58.297  0.00  0.00    -0.368 OA
HETATM    2  C   UNK N   1      30.715  41.412  58.931  0.00  0.00     0.193 C 
HETATM    3  C   UNK N   1      30.648  41.235  60.468  0.00  0.00     0.197 C 
HETATM    4  C   UNK N   1      30.596  39.738  60.807  0.00  0.00     0.181 C 
HETATM    5  C   UNK N   1      29.447  39.079  60.014  0.00  0.00     0.180 C 
HETATM    6  C   UNK N   1      29.644  39.381  58.507  0.00  0.00     0.177 C 
ENDROOT
BRANCH   2   7
HETATM    7  C   UNK N   1      30.714  42.885  58.540  0.00  0.00     0.041 A 
HETATM    8  C   UNK N   1      29.543  43.659  58.686  0.00  0.00     0.102 A 
HETATM    9  O   UNK N   1      28.442  43.078  59.160  0.00  0.00    -0.313 OA
HETATM   10  C   UNK N   1      29.527  45.032  58.331  0.00  0.00     0.055 A 
HETATM   11  C   UNK N   1      27.295  43.717  59.336  0.00  0.00     0.060 A 
HETATM   12  C   UNK N   1      27.192  45.068  59.010  0.00  0.00     0.088 A 
HETATM   13  C   UNK N   1      28.307  45.738  58.507  0.00  0.00     0.187 A 
HETATM   14  O   UNK N   1      28.203  46.918  58.228  0.00  0.00    -0.287 OA
HETATM   15  C   UNK N   1      30.720  45.628  57.820  0.00  0.00    -0.042 A 
HETATM   16  C   UNK N   1      31.871  44.839  57.673  0.00  0.00     0.045 A 
HETATM   17  C   UNK N   1      30.801  47.081  57.419  0.00  0.00     0.049 C 
HETATM   18  C   UNK N   1      31.877  43.488  58.019  0.00  0.00     0.080 A 
BRANCH  11  19
HETATM   19  C   UNK N   1      26.118  42.959  59.887  0.00  0.00     0.096 C 
BRANCH  19  20
HETATM   20  C   UNK N   1      25.507  41.984  58.865  0.00  0.00     0.120 C 
HETATM   21  C   UNK N   1      24.455  42.660  57.977  0.00  0.00     0.040 C 
BRANCH  20  22
HETATM   22  O   UNK N   1      26.541  41.486  58.056  0.00  0.00    -0.396 OA
HETATM   23  H   UNK N   1      26.778  42.206  57.415  0.00  0.00     0.210 HD
ENDBRANCH  20  22
ENDBRANCH  19  20
ENDBRANCH  11  19
BRANCH  18  24
HETATM   24  O   UNK N   1      33.010  42.772  57.845  0.00  0.00    -0.355 OA
HETATM   25  C   UNK N   1      34.051  42.846  58.746  0.00  0.00     0.210 C 
ENDBRANCH  18  24
ENDBRANCH   2   7
BRANCH   3  26
HETATM   26  O   UNK N   1      31.784  41.800  61.019  0.00  0.00    -0.307 OA
BRANCH  26  27
HETATM   27  C   UNK N   1      31.823  42.637  62.085  0.00  0.00     0.283 C 
HETATM   28  O   UNK N   1      31.174  42.400  63.097  0.00  0.00    -0.260 OA
BRANCH  27  29
HETATM   29  C   UNK N   1      32.730  43.797  62.021  0.00  0.00     0.083 C 
HETATM   30  C   UNK N   1      33.669  44.031  62.955  0.00  0.00     0.017 C 
BRANCH  30  31
HETATM   31  C   UNK N   1      34.647  45.146  62.837  0.00  0.00    -0.036 A 
HETATM   32  C   UNK N   1      35.866  44.901  62.186  0.00  0.00     0.014 A 
HETATM   33  C   UNK N   1      36.786  45.935  61.993  0.00  0.00     0.037 A 
HETATM   34  C   UNK N   1      36.510  47.223  62.473  0.00  0.00     0.065 A 
HETATM   35  C   UNK N   1      35.313  47.468  63.150  0.00  0.00     0.037 A 
HETATM   36  C   UNK N   1      34.380  46.442  63.327  0.00  0.00     0.014 A 
BRANCH  34  37
HETATM   37  O   UNK N   1      37.385  48.231  62.282  0.00  0.00    -0.361 OA
HETATM   38  H   UNK N   1      38.329  48.065  62.146  0.00  0.00     0.217 HD
ENDBRANCH  34  37
ENDBRANCH  30  31
ENDBRANCH  27  29
ENDBRANCH  26  27
ENDBRANCH   3  26
BRANCH   6  39
HETATM   39  C   UNK N   1      28.542  38.744  57.652  0.00  0.00     0.198 C 
BRANCH  39  40
HETATM   40  O   UNK N   1      27.339  38.680  58.372  0.00  0.00    -0.398 OA
HETATM   41  H   UNK N   1      27.532  38.194  59.216  0.00  0.00     0.209 HD
ENDBRANCH  39  40
ENDBRANCH   6  39
BRANCH   4  42
HETATM   42  O   UNK N   1      30.402  39.582  62.190  0.00  0.00    -0.390 OA
HETATM   43  H   UNK N   1      31.301  39.568  62.611  0.00  0.00     0.210 HD
ENDBRANCH   4  42
BRANCH   5  44
HETATM   44  O   UNK N   1      29.398  37.695  60.261  0.00  0.00    -0.390 OA
HETATM   45  H   UNK N   1      30.295  37.414  60.582  0.00  0.00     0.210 HD
ENDBRANCH   5  44
TORSDOF 14
ENDMDL
MODEL 7
REMARK VINA RESULT:      -4.7     21.662     24.358
REMARK  14 active torsions:
REMARK  status: ('A' for Active; 'I' for Inactive)
REMARK    1  A    between atoms: O_3  and  C_15 
REMARK    2  A    between atoms: O_4  and  C_16 
REMARK    3  A    between atoms: O_5  and  C_27 
REMARK    4  A    between atoms: O_7  and  C_29 
REMARK    5  A    between atoms: O_7  and  C_33 
REMARK    6  A    between atoms: O_8  and  C_30 
REMARK    7  A    between atoms: O_9  and  C_31 
REMARK    8  A    between atoms: O_11  and  C_34 
REMARK    9  A    between atoms: C_13  and  C_36 
REMARK   10  A    between atoms: C_18  and  C_28 
REMARK   11  A    between atoms: C_20  and  C_37 
REMARK   12  A    between atoms: C_27  and  C_36 
REMARK   13  A    between atoms: C_32  and  C_34 
REMARK   14  A    between atoms: C_33  and  C_40 
ROOT
HETATM    1  O   UNK N   1      48.728  33.819  49.082  0.00  0.00    -0.368 OA
HETATM    2  C   UNK N   1      49.860  32.972  48.993  0.00  0.00     0.193 C 
HETATM    3  C   UNK N   1      49.467  31.572  48.459  0.00  0.00     0.197 C 
HETATM    4  C   UNK N   1      48.780  31.722  47.094  0.00  0.00     0.181 C 
HETATM    5  C   UNK N   1      47.619  32.732  47.219  0.00  0.00     0.180 C 
HETATM    6  C   UNK N   1      48.173  34.058  47.799  0.00  0.00     0.177 C 
ENDROOT
BRANCH   2   7
HETATM    7  C   UNK N   1      50.499  32.881  50.373  0.00  0.00     0.041 A 
HETATM    8  C   UNK N   1      49.777  32.335  51.457  0.00  0.00     0.102 A 
HETATM    9  O   UNK N   1      48.531  31.912  51.253  0.00  0.00    -0.313 OA
HETATM   10  C   UNK N   1      50.360  32.240  52.747  0.00  0.00     0.055 A 
HETATM   11  C   UNK N   1      47.773  31.382  52.201  0.00  0.00     0.060 A 
HETATM   12  C   UNK N   1      48.266  31.254  53.498  0.00  0.00     0.088 A 
HETATM   13  C   UNK N   1      49.564  31.679  53.782  0.00  0.00     0.187 A 
HETATM   14  O   UNK N   1      49.983  31.559  54.918  0.00  0.00    -0.287 OA
HETATM   15  C   UNK N   1      51.695  32.706  52.939  0.00  0.00    -0.042 A 
HETATM   16  C   UNK N   1      52.392  33.255  51.852  0.00  0.00     0.045 A 
HETATM   17  C   UNK N   1      52.399  32.643  54.272  0.00  0.00     0.049 C 
HETATM   18  C   UNK N   1      51.810  33.350  50.588  0.00  0.00     0.080 A 
BRANCH  11  19
HETATM   19  C   UNK N   1      46.381  30.930  51.852  0.00  0.00     0.096 C 
BRANCH  19  20
HETATM   20  C   UNK N   1      45.944  31.381  50.447  0.00  0.00     0.120 C 
HETATM   21  C   UNK N   1      44.518  30.927  50.111  0.00  0.00     0.040 C 
BRANCH  20  22
HETATM   22  O   UNK N   1      46.006  32.783  50.393  0.00  0.00    -0.396 OA
HETATM   23  H   UNK N   1      45.451  33.067  49.621  0.00  0.00     0.210 HD
ENDBRANCH  20  22
ENDBRANCH  19  20
ENDBRANCH  11  19
BRANCH  18  24
HETATM   24  O   UNK N   1      52.522  33.900  49.579  0.00  0.00    -0.355 OA
HETATM   25  C   UNK N   1      53.550  34.785  49.825  0.00  0.00     0.210 C 
ENDBRANCH  18  24
ENDBRANCH   2   7
BRANCH   3  26
HETATM   26  O   UNK N   1      50.621  30.821  48.322  0.00  0.00    -0.307 OA
BRANCH  26  27
HETATM   27  C   UNK N   1      51.645  31.078  47.472  0.00  0.00     0.283 C 
HETATM   28  O   UNK N   1      52.767  31.330  47.894  0.00  0.00    -0.260 OA
BRANCH  27  29
HETATM   29  C   UNK N   1      51.386  30.969  46.025  0.00  0.00     0.083 C 
HETATM   30  C   UNK N   1      51.655  31.968  45.166  0.00  0.00     0.017 C 
BRANCH  30  31
HETATM   31  C   UNK N   1      51.486  31.820  43.696  0.00  0.00    -0.036 A 
HETATM   32  C   UNK N   1      50.609  30.834  43.218  0.00  0.00     0.014 A 
HETATM   33  C   UNK N   1      50.368  30.704  41.847  0.00  0.00     0.037 A 
HETATM   34  C   UNK N   1      51.023  31.542  40.934  0.00  0.00     0.065 A 
HETATM   35  C   UNK N   1      51.922  32.505  41.399  0.00  0.00     0.037 A 
HETATM   36  C   UNK N   1      52.149  32.654  42.770  0.00  0.00     0.014 A 
BRANCH  34  37
HETATM   37  O   UNK N   1      50.789  31.433  39.611  0.00  0.00    -0.361 OA
HETATM   38  H   UNK N   1      50.025  30.948  39.268  0.00  0.00     0.217 HD
ENDBRANCH  34  37
ENDBRANCH  30  31
ENDBRANCH  27  29
ENDBRANCH  26  27
ENDBRANCH   3  26
BRANCH   6  39
HETATM   39  C   UNK N   1      47.075  35.118  47.940  0.00  0.00     0.198 C 
BRANCH  39  40
HETATM   40  O   UNK N   1      47.506  36.160  48.776  0.00  0.00    -0.398 OA
HETATM   41  H   UNK N   1      47.249  37.011  48.335  0.00  0.00     0.209 HD
ENDBRANCH  39  40
ENDBRANCH   6  39
BRANCH   4  42
HETATM   42  O   UNK N   1      48.306  30.467  46.673  0.00  0.00    -0.390 OA
HETATM   43  H   UNK N   1      48.831  29.779  47.159  0.00  0.00     0.210 HD
ENDBRANCH   4  42
BRANCH   5  44
HETATM   44  O   UNK N   1      46.994  32.933  45.976  0.00  0.00    -0.390 OA
HETATM   45  H   UNK N   1      46.310  33.644  46.094  0.00  0.00     0.210 HD
ENDBRANCH   5  44
TORSDOF 14
ENDMDL
MODEL 8
REMARK VINA RESULT:      -4.7     20.225     23.637
REMARK  14 active torsions:
REMARK  status: ('A' for Active; 'I' for Inactive)
REMARK    1  A    between atoms: O_3  and  C_15 
REMARK    2  A    between atoms: O_4  and  C_16 
REMARK    3  A    between atoms: O_5  and  C_27 
REMARK    4  A    between atoms: O_7  and  C_29 
REMARK    5  A    between atoms: O_7  and  C_33 
REMARK    6  A    between atoms: O_8  and  C_30 
REMARK    7  A    between atoms: O_9  and  C_31 
REMARK    8  A    between atoms: O_11  and  C_34 
REMARK    9  A    between atoms: C_13  and  C_36 
REMARK   10  A    between atoms: C_18  and  C_28 
REMARK   11  A    between atoms: C_20  and  C_37 
REMARK   12  A    between atoms: C_27  and  C_36 
REMARK   13  A    between atoms: C_32  and  C_34 
REMARK   14  A    between atoms: C_33  and  C_40 
ROOT
HETATM    1  O   UNK N   1      51.864  49.988  59.409  0.00  0.00    -0.368 OA
HETATM    2  C   UNK N   1      50.794  49.708  60.295  0.00  0.00     0.193 C 
HETATM    3  C   UNK N   1      49.619  49.028  59.551  0.00  0.00     0.197 C 
HETATM    4  C   UNK N   1      50.121  47.747  58.869  0.00  0.00     0.181 C 
HETATM    5  C   UNK N   1      51.350  48.085  57.997  0.00  0.00     0.180 C 
HETATM    6  C   UNK N   1      52.409  48.790  58.880  0.00  0.00     0.177 C 
ENDROOT
BRANCH   2   7
HETATM    7  C   UNK N   1      50.358  51.016  60.945  0.00  0.00     0.041 A 
HETATM    8  C   UNK N   1      50.054  52.141  60.147  0.00  0.00     0.102 A 
HETATM    9  O   UNK N   1      50.165  52.040  58.824  0.00  0.00    -0.313 OA
HETATM   10  C   UNK N   1      49.642  53.363  60.737  0.00  0.00     0.055 A 
HETATM   11  C   UNK N   1      49.901  53.034  57.989  0.00  0.00     0.060 A 
HETATM   12  C   UNK N   1      49.493  54.271  58.485  0.00  0.00     0.088 A 
HETATM   13  C   UNK N   1      49.358  54.446  59.863  0.00  0.00     0.187 A 
HETATM   14  O   UNK N   1      48.998  55.531  60.281  0.00  0.00    -0.287 OA
HETATM   15  C   UNK N   1      49.537  53.445  62.159  0.00  0.00    -0.042 A 
HETATM   16  C   UNK N   1      49.853  52.319  62.935  0.00  0.00     0.045 A 
HETATM   17  C   UNK N   1      49.104  54.700  62.876  0.00  0.00     0.049 C 
HETATM   18  C   UNK N   1      50.263  51.122  62.347  0.00  0.00     0.080 A 
BRANCH  11  19
HETATM   19  C   UNK N   1      50.053  52.803  56.511  0.00  0.00     0.096 C 
BRANCH  19  20
HETATM   20  C   UNK N   1      51.360  52.072  56.155  0.00  0.00     0.120 C 
HETATM   21  C   UNK N   1      52.545  52.565  56.994  0.00  0.00     0.040 C 
BRANCH  20  22
HETATM   22  O   UNK N   1      51.174  50.699  56.380  0.00  0.00    -0.396 OA
HETATM   23  H   UNK N   1      52.000  50.364  56.818  0.00  0.00     0.210 HD
ENDBRANCH  20  22
ENDBRANCH  19  20
ENDBRANCH  11  19
BRANCH  18  24
HETATM   24  O   UNK N   1      50.567  50.073  63.142  0.00  0.00    -0.355 OA
HETATM   25  C   UNK N   1      49.612  49.471  63.934  0.00  0.00     0.210 C 
ENDBRANCH  18  24
ENDBRANCH   2   7
BRANCH   3  26
HETATM   26  O   UNK N   1      48.643  48.712  60.479  0.00  0.00    -0.307 OA
BRANCH  26  27
HETATM   27  C   UNK N   1      47.305  48.854  60.311  0.00  0.00     0.283 C 
HETATM   28  O   UNK N   1      46.583  47.880  60.146  0.00  0.00    -0.260 OA
BRANCH  27  29
HETATM   29  C   UNK N   1      46.736  50.210  60.413  0.00  0.00     0.083 C 
HETATM   30  C   UNK N   1      46.613  50.855  61.586  0.00  0.00     0.017 C 
BRANCH  30  31
HETATM   31  C   UNK N   1      46.131  52.260  61.675  0.00  0.00    -0.036 A 
HETATM   32  C   UNK N   1      45.799  52.776  62.937  0.00  0.00     0.014 A 
HETATM   33  C   UNK N   1      45.406  54.110  63.076  0.00  0.00     0.037 A 
HETATM   34  C   UNK N   1      45.315  54.939  61.950  0.00  0.00     0.065 A 
HETATM   35  C   UNK N   1      45.613  54.424  60.685  0.00  0.00     0.037 A 
HETATM   36  C   UNK N   1      46.027  53.097  60.544  0.00  0.00     0.014 A 
BRANCH  34  37
HETATM   37  O   UNK N   1      44.948  56.230  62.074  0.00  0.00    -0.361 OA
HETATM   38  H   UNK N   1      44.739  56.776  61.302  0.00  0.00     0.217 HD
ENDBRANCH  34  37
ENDBRANCH  30  31
ENDBRANCH  27  29
ENDBRANCH  26  27
ENDBRANCH   3  26
BRANCH   6  39
HETATM   39  C   UNK N   1      53.668  49.147  58.082  0.00  0.00     0.198 C 
BRANCH  39  40
HETATM   40  O   UNK N   1      53.412  49.067  56.704  0.00  0.00    -0.398 OA
HETATM   41  H   UNK N   1      52.426  49.053  56.592  0.00  0.00     0.209 HD
ENDBRANCH  39  40
ENDBRANCH   6  39
BRANCH   4  42
HETATM   42  O   UNK N   1      49.089  47.202  58.086  0.00  0.00    -0.390 OA
HETATM   43  H   UNK N   1      48.460  46.750  58.708  0.00  0.00     0.210 HD
ENDBRANCH   4  42
BRANCH   5  44
HETATM   44  O   UNK N   1      51.869  46.927  57.393  0.00  0.00    -0.390 OA
HETATM   45  H   UNK N   1      51.749  46.174  58.030  0.00  0.00     0.210 HD
ENDBRANCH   5  44
TORSDOF 14
ENDMDL
MODEL 9
REMARK VINA RESULT:      -4.7      2.692      8.592
REMARK  14 active torsions:
REMARK  status: ('A' for Active; 'I' for Inactive)
REMARK    1  A    between atoms: O_3  and  C_15 
REMARK    2  A    between atoms: O_4  and  C_16 
REMARK    3  A    between atoms: O_5  and  C_27 
REMARK    4  A    between atoms: O_7  and  C_29 
REMARK    5  A    between atoms: O_7  and  C_33 
REMARK    6  A    between atoms: O_8  and  C_30 
REMARK    7  A    between atoms: O_9  and  C_31 
REMARK    8  A    between atoms: O_11  and  C_34 
REMARK    9  A    between atoms: C_13  and  C_36 
REMARK   10  A    between atoms: C_18  and  C_28 
REMARK   11  A    between atoms: C_20  and  C_37 
REMARK   12  A    between atoms: C_27  and  C_36 
REMARK   13  A    between atoms: C_32  and  C_34 
REMARK   14  A    between atoms: C_33  and  C_40 
ROOT
HETATM    1  O   UNK N   1      30.077  43.272  60.609  0.00  0.00    -0.368 OA
HETATM    2  C   UNK N   1      30.090  42.586  59.369  0.00  0.00     0.193 C 
HETATM    3  C   UNK N   1      31.321  42.991  58.521  0.00  0.00     0.197 C 
HETATM    4  C   UNK N   1      32.603  42.712  59.320  0.00  0.00     0.181 C 
HETATM    5  C   UNK N   1      32.497  43.394  60.702  0.00  0.00     0.180 C 
HETATM    6  C   UNK N   1      31.200  42.912  61.398  0.00  0.00     0.177 C 
ENDROOT
BRANCH   2   7
HETATM    7  C   UNK N   1      28.788  42.894  58.639  0.00  0.00     0.041 A 
HETATM    8  C   UNK N   1      28.410  44.232  58.391  0.00  0.00     0.102 A 
HETATM    9  O   UNK N   1      29.205  45.214  58.812  0.00  0.00    -0.313 OA
HETATM   10  C   UNK N   1      27.203  44.534  57.709  0.00  0.00     0.055 A 
HETATM   11  C   UNK N   1      28.942  46.499  58.626  0.00  0.00     0.060 A 
HETATM   12  C   UNK N   1      27.776  46.884  57.967  0.00  0.00     0.088 A 
HETATM   13  C   UNK N   1      26.897  45.906  57.501  0.00  0.00     0.187 A 
HETATM   14  O   UNK N   1      25.884  46.257  56.926  0.00  0.00    -0.287 OA
HETATM   15  C   UNK N   1      26.368  43.461  57.273  0.00  0.00    -0.042 A 
HETATM   16  C   UNK N   1      26.755  42.139  57.539  0.00  0.00     0.045 A 
HETATM   17  C   UNK N   1      25.069  43.684  56.538  0.00  0.00     0.049 C 
HETATM   18  C   UNK N   1      27.940  41.851  58.215  0.00  0.00     0.080 A 
BRANCH  11  19
HETATM   19  C   UNK N   1      29.918  47.522  59.139  0.00  0.00     0.096 C 
BRANCH  19  20
HETATM   20  C   UNK N   1      29.402  48.964  58.989  0.00  0.00     0.120 C 
HETATM   21  C   UNK N   1      29.199  49.651  60.345  0.00  0.00     0.040 C 
BRANCH  20  22
HETATM   22  O   UNK N   1      30.339  49.693  58.239  0.00  0.00    -0.396 OA
HETATM   23  H   UNK N   1      30.369  49.281  57.336  0.00  0.00     0.210 HD
ENDBRANCH  20  22
ENDBRANCH  19  20
ENDBRANCH  11  19
BRANCH  18  24
HETATM   24  O   UNK N   1      28.259  40.559  58.455  0.00  0.00    -0.355 OA
HETATM   25  C   UNK N   1      28.658  39.717  57.440  0.00  0.00     0.210 C 
ENDBRANCH  18  24
ENDBRANCH   2   7
BRANCH   3  26
HETATM   26  O   UNK N   1      31.318  42.234  57.364  0.00  0.00    -0.307 OA
BRANCH  26  27
HETATM   27  C   UNK N   1      31.585  42.686  56.113  0.00  0.00     0.283 C 
HETATM   28  O   UNK N   1      32.508  43.463  55.908  0.00  0.00    -0.260 OA
BRANCH  27  29
HETATM   29  C   UNK N   1      30.781  42.152  54.999  0.00  0.00     0.083 C 
HETATM   30  C   UNK N   1      29.457  42.358  54.902  0.00  0.00     0.017 C 
BRANCH  30  31
HETATM   31  C   UNK N   1      28.665  41.903  53.727  0.00  0.00    -0.036 A 
HETATM   32  C   UNK N   1      27.463  41.215  53.954  0.00  0.00     0.014 A 
HETATM   33  C   UNK N   1      26.655  40.828  52.882  0.00  0.00     0.037 A 
HETATM   34  C   UNK N   1      27.051  41.102  51.565  0.00  0.00     0.065 A 
HETATM   35  C   UNK N   1      28.262  41.758  51.329  0.00  0.00     0.037 A 
HETATM   36  C   UNK N   1      29.063  42.166  52.399  0.00  0.00     0.014 A 
BRANCH  34  37
HETATM   37  O   UNK N   1      26.273  40.744  50.524  0.00  0.00    -0.361 OA
HETATM   38  H   UNK N   1      26.537  40.045  49.910  0.00  0.00     0.217 HD
ENDBRANCH  34  37
ENDBRANCH  30  31
ENDBRANCH  27  29
ENDBRANCH  26  27
ENDBRANCH   3  26
BRANCH   6  39
HETATM   39  C   UNK N   1      31.032  43.540  62.786  0.00  0.00     0.198 C 
BRANCH  39  40
HETATM   40  O   UNK N   1      31.693  42.768  63.755  0.00  0.00    -0.398 OA
HETATM   41  H   UNK N   1      32.420  43.331  64.128  0.00  0.00     0.209 HD
ENDBRANCH  39  40
ENDBRANCH   6  39
BRANCH   4  42
HETATM   42  O   UNK N   1      33.711  43.201  58.606  0.00  0.00    -0.390 OA
HETATM   43  H   UNK N   1      34.068  42.446  58.070  0.00  0.00     0.210 HD
ENDBRANCH   4  42
BRANCH   5  44
HETATM   44  O   UNK N   1      33.634  43.121  61.483  0.00  0.00    -0.390 OA
HETATM   45  H   UNK N   1      33.668  43.797  62.211  0.00  0.00     0.210 HD
ENDBRANCH   5  44
TORSDOF 14
ENDMDL
