MODEL 1
REMARK VINA RESULT:      -6.6      0.000      0.000
REMARK  10 active torsions:
REMARK  status: ('A' for Active; 'I' for Inactive)
REMARK    1  A    between atoms: O_3  and  C_13 
REMARK    2  A    between atoms: O_3  and  C_22 
REMARK    3  A    between atoms: O_4  and  C_14 
REMARK    4  A    between atoms: O_5  and  C_15 
REMARK    5  A    between atoms: O_7  and  C_23 
REMARK    6  A    between atoms: O_8  and  C_24 
REMARK    7  A    between atoms: O_9  and  C_25 
REMARK    8  A    between atoms: O_10  and  C_27 
REMARK    9  A    between atoms: C_12  and  C_16 
REMARK   10  A    between atoms: C_26  and  C_27 
ROOT
HETATM    1  C   UNK N   1      41.671  43.529  47.666  0.00  0.00     0.088 A 
HETATM    2  C   UNK N   1      42.518  41.453  46.719  0.00  0.00     0.068 A 
HETATM    3  C   UNK N   1      41.885  44.176  46.435  0.00  0.00     0.037 A 
HETATM    4  C   UNK N   1      42.445  43.466  45.350  0.00  0.00    -0.044 A 
HETATM    5  C   UNK N   1      41.981  42.161  47.797  0.00  0.00     0.074 A 
HETATM    6  C   UNK N   1      42.754  42.105  45.502  0.00  0.00     0.044 A 
HETATM    7  C   UNK N   1      42.739  44.156  44.044  0.00  0.00     0.049 C 
ENDROOT
BRANCH   1   8
HETATM    8  O   UNK N   1      41.197  44.258  48.709  0.00  0.00    -0.317 OA
BRANCH   8   9
HETATM    9  C   UNK N   1      41.542  44.079  50.036  0.00  0.00     0.298 C 
HETATM   10  O   UNK N   1      40.435  43.583  50.774  0.00  0.00    -0.348 OA
HETATM   11  C   UNK N   1      40.838  43.275  52.105  0.00  0.00     0.179 C 
HETATM   12  C   UNK N   1      41.252  44.567  52.853  0.00  0.00     0.180 C 
HETATM   13  C   UNK N   1      42.391  45.249  52.067  0.00  0.00     0.183 C 
HETATM   14  C   UNK N   1      41.987  45.441  50.599  0.00  0.00     0.205 C 
BRANCH  11  15
HETATM   15  C   UNK N   1      39.678  42.574  52.829  0.00  0.00     0.198 C 
BRANCH  15  16
HETATM   16  O   UNK N   1      39.193  43.375  53.873  0.00  0.00    -0.398 OA
HETATM   17  H   UNK N   1      38.417  42.895  54.265  0.00  0.00     0.209 HD
ENDBRANCH  15  16
ENDBRANCH  11  15
BRANCH  12  18
HETATM   18  O   UNK N   1      41.689  44.243  54.150  0.00  0.00    -0.390 OA
HETATM   19  H   UNK N   1      42.591  43.839  54.062  0.00  0.00     0.210 HD
ENDBRANCH  12  18
BRANCH  13  20
HETATM   20  O   UNK N   1      42.758  46.474  52.651  0.00  0.00    -0.390 OA
HETATM   21  H   UNK N   1      43.566  46.311  53.206  0.00  0.00     0.210 HD
ENDBRANCH  13  20
BRANCH  14  22
HETATM   22  O   UNK N   1      43.092  45.935  49.885  0.00  0.00    -0.388 OA
HETATM   23  H   UNK N   1      43.868  45.933  50.504  0.00  0.00     0.210 HD
ENDBRANCH  14  22
ENDBRANCH   8   9
ENDBRANCH   1   8
BRANCH   3  24
HETATM   24  C   UNK N   1      41.588  45.617  46.314  0.00  0.00     0.095 A 
HETATM   25  O   UNK N   1      42.479  46.502  46.752  0.00  0.00    -0.274 OA
HETATM   26  C   UNK N   1      42.283  47.816  46.670  0.00  0.00     0.290 A 
HETATM   27  O   UNK N   1      43.134  48.579  47.082  0.00  0.00    -0.260 OA
HETATM   28  C   UNK N   1      41.104  48.320  46.111  0.00  0.00     0.119 A 
HETATM   29  C   UNK N   1      40.133  47.422  45.638  0.00  0.00     0.076 A 
HETATM   30  C   UNK N   1      40.383  46.051  45.742  0.00  0.00     0.075 A 
BRANCH  29  31
HETATM   31  O   UNK N   1      38.960  47.837  45.086  0.00  0.00    -0.356 OA
HETATM   32  C   UNK N   1      38.831  48.893  44.206  0.00  0.00     0.210 C 
ENDBRANCH  29  31
ENDBRANCH   3  24
BRANCH   2  33
HETATM   33  O   UNK N   1      42.818  40.147  46.868  0.00  0.00    -0.361 OA
HETATM   34  H   UNK N   1      43.404  39.685  46.251  0.00  0.00     0.217 HD
ENDBRANCH   2  33
TORSDOF 10
ENDMDL
MODEL 2
REMARK VINA RESULT:      -6.1     12.661     16.718
REMARK  10 active torsions:
REMARK  status: ('A' for Active; 'I' for Inactive)
REMARK    1  A    between atoms: O_3  and  C_13 
REMARK    2  A    between atoms: O_3  and  C_22 
REMARK    3  A    between atoms: O_4  and  C_14 
REMARK    4  A    between atoms: O_5  and  C_15 
REMARK    5  A    between atoms: O_7  and  C_23 
REMARK    6  A    between atoms: O_8  and  C_24 
REMARK    7  A    between atoms: O_9  and  C_25 
REMARK    8  A    between atoms: O_10  and  C_27 
REMARK    9  A    between atoms: C_12  and  C_16 
REMARK   10  A    between atoms: C_26  and  C_27 
ROOT
HETATM    1  C   UNK N   1      48.277  32.225  46.684  0.00  0.00     0.088 A 
HETATM    2  C   UNK N   1      46.078  33.155  46.218  0.00  0.00     0.068 A 
HETATM    3  C   UNK N   1      48.397  33.071  47.803  0.00  0.00     0.037 A 
HETATM    4  C   UNK N   1      47.364  33.982  48.114  0.00  0.00    -0.044 A 
HETATM    5  C   UNK N   1      47.108  32.267  45.901  0.00  0.00     0.074 A 
HETATM    6  C   UNK N   1      46.208  34.014  47.318  0.00  0.00     0.044 A 
HETATM    7  C   UNK N   1      47.499  34.938  49.270  0.00  0.00     0.049 C 
ENDROOT
BRANCH   1   8
HETATM    8  O   UNK N   1      49.318  31.411  46.372  0.00  0.00    -0.317 OA
BRANCH   8   9
HETATM    9  C   UNK N   1      50.240  31.636  45.367  0.00  0.00     0.298 C 
HETATM   10  O   UNK N   1      49.727  31.200  44.117  0.00  0.00    -0.348 OA
HETATM   11  C   UNK N   1      50.626  31.559  43.071  0.00  0.00     0.179 C 
HETATM   12  C   UNK N   1      51.964  30.794  43.227  0.00  0.00     0.180 C 
HETATM   13  C   UNK N   1      52.559  31.117  44.613  0.00  0.00     0.183 C 
HETATM   14  C   UNK N   1      51.522  30.857  45.714  0.00  0.00     0.205 C 
BRANCH  11  15
HETATM   15  C   UNK N   1      49.971  31.242  41.718  0.00  0.00     0.198 C 
BRANCH  15  16
HETATM   16  O   UNK N   1      50.128  32.316  40.831  0.00  0.00    -0.398 OA
HETATM   17  H   UNK N   1      49.762  33.119  41.285  0.00  0.00     0.209 HD
ENDBRANCH  15  16
ENDBRANCH  11  15
BRANCH  12  18
HETATM   18  O   UNK N   1      52.856  31.190  42.215  0.00  0.00    -0.390 OA
HETATM   19  H   UNK N   1      53.375  30.385  41.952  0.00  0.00     0.210 HD
ENDBRANCH  12  18
BRANCH  13  20
HETATM   20  O   UNK N   1      53.737  30.387  44.851  0.00  0.00    -0.390 OA
HETATM   21  H   UNK N   1      54.282  30.902  45.502  0.00  0.00     0.210 HD
ENDBRANCH  13  20
BRANCH  14  22
HETATM   22  O   UNK N   1      52.047  31.291  46.944  0.00  0.00    -0.388 OA
HETATM   23  H   UNK N   1      51.386  31.915  47.343  0.00  0.00     0.210 HD
ENDBRANCH  14  22
ENDBRANCH   8   9
ENDBRANCH   1   8
BRANCH   3  24
HETATM   24  C   UNK N   1      49.639  33.045  48.600  0.00  0.00     0.095 A 
HETATM   25  O   UNK N   1      50.639  33.858  48.269  0.00  0.00    -0.274 OA
HETATM   26  C   UNK N   1      51.784  33.895  48.945  0.00  0.00     0.290 A 
HETATM   27  O   UNK N   1      52.662  34.662  48.601  0.00  0.00    -0.260 OA
HETATM   28  C   UNK N   1      51.980  33.057  50.049  0.00  0.00     0.119 A 
HETATM   29  C   UNK N   1      50.953  32.179  50.431  0.00  0.00     0.076 A 
HETATM   30  C   UNK N   1      49.766  32.177  49.694  0.00  0.00     0.075 A 
BRANCH  29  31
HETATM   31  O   UNK N   1      51.072  31.333  51.490  0.00  0.00    -0.356 OA
HETATM   32  C   UNK N   1      50.033  30.948  52.316  0.00  0.00     0.210 C 
ENDBRANCH  29  31
ENDBRANCH   3  24
BRANCH   2  33
HETATM   33  O   UNK N   1      44.970  33.187  45.451  0.00  0.00    -0.361 OA
HETATM   34  H   UNK N   1      44.269  33.840  45.592  0.00  0.00     0.217 HD
ENDBRANCH   2  33
TORSDOF 10
ENDMDL
MODEL 3
REMARK VINA RESULT:      -6.1      1.752      5.422
REMARK  10 active torsions:
REMARK  status: ('A' for Active; 'I' for Inactive)
REMARK    1  A    between atoms: O_3  and  C_13 
REMARK    2  A    between atoms: O_3  and  C_22 
REMARK    3  A    between atoms: O_4  and  C_14 
REMARK    4  A    between atoms: O_5  and  C_15 
REMARK    5  A    between atoms: O_7  and  C_23 
REMARK    6  A    between atoms: O_8  and  C_24 
REMARK    7  A    between atoms: O_9  and  C_25 
REMARK    8  A    between atoms: O_10  and  C_27 
REMARK    9  A    between atoms: C_12  and  C_16 
REMARK   10  A    between atoms: C_26  and  C_27 
ROOT
HETATM    1  C   UNK N   1      40.951  44.399  49.107  0.00  0.00     0.088 A 
HETATM    2  C   UNK N   1      41.424  43.661  51.377  0.00  0.00     0.068 A 
HETATM    3  C   UNK N   1      41.628  45.606  49.360  0.00  0.00     0.037 A 
HETATM    4  C   UNK N   1      42.182  45.853  50.636  0.00  0.00    -0.044 A 
HETATM    5  C   UNK N   1      40.862  43.425  50.120  0.00  0.00     0.074 A 
HETATM    6  C   UNK N   1      42.077  44.873  51.635  0.00  0.00     0.044 A 
HETATM    7  C   UNK N   1      42.856  47.164  50.945  0.00  0.00     0.049 C 
ENDROOT
BRANCH   1   8
HETATM    8  O   UNK N   1      40.370  44.223  47.892  0.00  0.00    -0.317 OA
BRANCH   8   9
HETATM    9  C   UNK N   1      40.927  43.537  46.829  0.00  0.00     0.298 C 
HETATM   10  O   UNK N   1      42.169  42.961  47.206  0.00  0.00    -0.348 OA
HETATM   11  C   UNK N   1      42.667  42.147  46.149  0.00  0.00     0.179 C 
HETATM   12  C   UNK N   1      43.006  43.019  44.914  0.00  0.00     0.180 C 
HETATM   13  C   UNK N   1      41.736  43.780  44.483  0.00  0.00     0.183 C 
HETATM   14  C   UNK N   1      41.135  44.537  45.676  0.00  0.00     0.205 C 
BRANCH  11  15
HETATM   15  C   UNK N   1      43.912  41.393  46.641  0.00  0.00     0.198 C 
BRANCH  15  16
HETATM   16  O   UNK N   1      45.080  42.086  46.290  0.00  0.00    -0.398 OA
HETATM   17  H   UNK N   1      45.843  41.486  46.499  0.00  0.00     0.209 HD
ENDBRANCH  15  16
ENDBRANCH  11  15
BRANCH  12  18
HETATM   18  O   UNK N   1      43.455  42.198  43.863  0.00  0.00    -0.390 OA
HETATM   19  H   UNK N   1      42.774  42.247  43.143  0.00  0.00     0.210 HD
ENDBRANCH  12  18
BRANCH  13  20
HETATM   20  O   UNK N   1      41.997  44.655  43.414  0.00  0.00    -0.390 OA
HETATM   21  H   UNK N   1      41.646  45.550  43.667  0.00  0.00     0.210 HD
ENDBRANCH  13  20
BRANCH  14  22
HETATM   22  O   UNK N   1      39.910  45.102  45.284  0.00  0.00    -0.388 OA
HETATM   23  H   UNK N   1      39.517  45.540  46.084  0.00  0.00     0.210 HD
ENDBRANCH  14  22
ENDBRANCH   8   9
ENDBRANCH   1   8
BRANCH   3  24
HETATM   24  C   UNK N   1      41.690  46.637  48.304  0.00  0.00     0.095 A 
HETATM   25  O   UNK N   1      42.876  47.087  47.907  0.00  0.00    -0.274 OA
HETATM   26  C   UNK N   1      43.010  48.009  46.956  0.00  0.00     0.290 A 
HETATM   27  O   UNK N   1      44.120  48.380  46.629  0.00  0.00    -0.260 OA
HETATM   28  C   UNK N   1      41.880  48.550  46.334  0.00  0.00     0.119 A 
HETATM   29  C   UNK N   1      40.606  48.108  46.726  0.00  0.00     0.076 A 
HETATM   30  C   UNK N   1      40.514  47.136  47.726  0.00  0.00     0.075 A 
BRANCH  29  31
HETATM   31  O   UNK N   1      39.461  48.589  46.170  0.00  0.00    -0.356 OA
HETATM   32  C   UNK N   1      39.217  48.680  44.813  0.00  0.00     0.210 C 
ENDBRANCH  29  31
ENDBRANCH   3  24
BRANCH   2  33
HETATM   33  O   UNK N   1      41.319  42.719  52.337  0.00  0.00    -0.361 OA
HETATM   34  H   UNK N   1      40.470  42.498  52.745  0.00  0.00     0.217 HD
ENDBRANCH   2  33
TORSDOF 10
ENDMDL
MODEL 4
REMARK VINA RESULT:      -6.0     12.384     16.227
REMARK  10 active torsions:
REMARK  status: ('A' for Active; 'I' for Inactive)
REMARK    1  A    between atoms: O_3  and  C_13 
REMARK    2  A    between atoms: O_3  and  C_22 
REMARK    3  A    between atoms: O_4  and  C_14 
REMARK    4  A    between atoms: O_5  and  C_15 
REMARK    5  A    between atoms: O_7  and  C_23 
REMARK    6  A    between atoms: O_8  and  C_24 
REMARK    7  A    between atoms: O_9  and  C_25 
REMARK    8  A    between atoms: O_10  and  C_27 
REMARK    9  A    between atoms: C_12  and  C_16 
REMARK   10  A    between atoms: C_26  and  C_27 
ROOT
HETATM    1  C   UNK N   1      47.196  32.237  47.142  0.00  0.00     0.088 A 
HETATM    2  C   UNK N   1      45.288  33.354  46.125  0.00  0.00     0.068 A 
HETATM    3  C   UNK N   1      46.739  32.619  48.417  0.00  0.00     0.037 A 
HETATM    4  C   UNK N   1      45.567  33.396  48.544  0.00  0.00    -0.044 A 
HETATM    5  C   UNK N   1      46.458  32.600  45.999  0.00  0.00     0.074 A 
HETATM    6  C   UNK N   1      44.848  33.755  47.393  0.00  0.00     0.044 A 
HETATM    7  C   UNK N   1      45.096  33.868  49.895  0.00  0.00     0.049 C 
ENDROOT
BRANCH   1   8
HETATM    8  O   UNK N   1      48.364  31.550  47.050  0.00  0.00    -0.317 OA
BRANCH   8   9
HETATM    9  C   UNK N   1      49.403  31.846  46.188  0.00  0.00     0.298 C 
HETATM   10  O   UNK N   1      49.320  31.046  45.017  0.00  0.00    -0.348 OA
HETATM   11  C   UNK N   1      50.312  31.452  44.080  0.00  0.00     0.179 C 
HETATM   12  C   UNK N   1      51.728  31.168  44.640  0.00  0.00     0.180 C 
HETATM   13  C   UNK N   1      51.887  31.913  45.982  0.00  0.00     0.183 C 
HETATM   14  C   UNK N   1      50.726  31.569  46.925  0.00  0.00     0.205 C 
BRANCH  11  15
HETATM   15  C   UNK N   1      50.090  30.701  42.758  0.00  0.00     0.198 C 
BRANCH  15  16
HETATM   16  O   UNK N   1      49.359  31.491  41.859  0.00  0.00    -0.398 OA
HETATM   17  H   UNK N   1      49.016  32.268  42.373  0.00  0.00     0.209 HD
ENDBRANCH  15  16
ENDBRANCH  11  15
BRANCH  12  18
HETATM   18  O   UNK N   1      52.698  31.614  43.725  0.00  0.00    -0.390 OA
HETATM   19  H   UNK N   1      52.862  30.870  43.088  0.00  0.00     0.210 HD
ENDBRANCH  12  18
BRANCH  13  20
HETATM   20  O   UNK N   1      53.124  31.630  46.585  0.00  0.00    -0.390 OA
HETATM   21  H   UNK N   1      53.210  32.215  47.383  0.00  0.00     0.210 HD
ENDBRANCH  13  20
BRANCH  14  22
HETATM   22  O   UNK N   1      50.826  32.367  48.078  0.00  0.00    -0.388 OA
HETATM   23  H   UNK N   1      49.932  32.768  48.238  0.00  0.00     0.210 HD
ENDBRANCH  14  22
ENDBRANCH   8   9
ENDBRANCH   1   8
BRANCH   3  24
HETATM   24  C   UNK N   1      47.535  32.263  49.608  0.00  0.00     0.095 A 
HETATM   25  O   UNK N   1      48.671  32.912  49.847  0.00  0.00    -0.274 OA
HETATM   26  C   UNK N   1      49.437  32.650  50.903  0.00  0.00     0.290 A 
HETATM   27  O   UNK N   1      50.463  33.279  51.075  0.00  0.00    -0.260 OA
HETATM   28  C   UNK N   1      49.065  31.656  51.815  0.00  0.00     0.119 A 
HETATM   29  C   UNK N   1      47.875  30.941  51.600  0.00  0.00     0.076 A 
HETATM   30  C   UNK N   1      47.101  31.253  50.479  0.00  0.00     0.075 A 
BRANCH  29  31
HETATM   31  O   UNK N   1      47.450  29.959  52.440  0.00  0.00    -0.356 OA
HETATM   32  C   UNK N   1      47.157  30.134  53.779  0.00  0.00     0.210 C 
ENDBRANCH  29  31
ENDBRANCH   3  24
BRANCH   2  33
HETATM   33  O   UNK N   1      44.601  33.701  45.019  0.00  0.00    -0.361 OA
HETATM   34  H   UNK N   1      44.348  33.048  44.350  0.00  0.00     0.217 HD
ENDBRANCH   2  33
TORSDOF 10
ENDMDL
MODEL 5
REMARK VINA RESULT:      -5.9     12.273     15.907
REMARK  10 active torsions:
REMARK  status: ('A' for Active; 'I' for Inactive)
REMARK    1  A    between atoms: O_3  and  C_13 
REMARK    2  A    between atoms: O_3  and  C_22 
REMARK    3  A    between atoms: O_4  and  C_14 
REMARK    4  A    between atoms: O_5  and  C_15 
REMARK    5  A    between atoms: O_7  and  C_23 
REMARK    6  A    between atoms: O_8  and  C_24 
REMARK    7  A    between atoms: O_9  and  C_25 
REMARK    8  A    between atoms: O_10  and  C_27 
REMARK    9  A    between atoms: C_12  and  C_16 
REMARK   10  A    between atoms: C_26  and  C_27 
ROOT
HETATM    1  C   UNK N   1      46.996  31.934  47.458  0.00  0.00     0.088 A 
HETATM    2  C   UNK N   1      45.314  33.303  46.356  0.00  0.00     0.068 A 
HETATM    3  C   UNK N   1      46.724  32.583  48.677  0.00  0.00     0.037 A 
HETATM    4  C   UNK N   1      45.763  33.616  48.729  0.00  0.00    -0.044 A 
HETATM    5  C   UNK N   1      46.278  32.294  46.302  0.00  0.00     0.074 A 
HETATM    6  C   UNK N   1      45.061  33.965  47.565  0.00  0.00     0.044 A 
HETATM    7  C   UNK N   1      45.502  34.364  50.010  0.00  0.00     0.049 C 
ENDROOT
BRANCH   1   8
HETATM    8  O   UNK N   1      47.976  30.994  47.429  0.00  0.00    -0.317 OA
BRANCH   8   9
HETATM    9  C   UNK N   1      49.233  31.162  46.878  0.00  0.00     0.298 C 
HETATM   10  O   UNK N   1      49.801  32.391  47.306  0.00  0.00    -0.348 OA
HETATM   11  C   UNK N   1      51.145  32.492  46.844  0.00  0.00     0.179 C 
HETATM   12  C   UNK N   1      51.176  32.570  45.297  0.00  0.00     0.180 C 
HETATM   13  C   UNK N   1      50.479  31.319  44.725  0.00  0.00     0.183 C 
HETATM   14  C   UNK N   1      49.086  31.152  45.346  0.00  0.00     0.205 C 
BRANCH  11  15
HETATM   15  C   UNK N   1      51.797  33.736  47.466  0.00  0.00     0.198 C 
BRANCH  15  16
HETATM   16  O   UNK N   1      50.984  34.265  48.479  0.00  0.00    -0.398 OA
HETATM   17  H   UNK N   1      50.452  33.510  48.843  0.00  0.00     0.209 HD
ENDBRANCH  15  16
ENDBRANCH  11  15
BRANCH  12  18
HETATM   18  O   UNK N   1      52.509  32.625  44.853  0.00  0.00    -0.390 OA
HETATM   19  H   UNK N   1      53.087  32.618  45.660  0.00  0.00     0.210 HD
ENDBRANCH  12  18
BRANCH  13  20
HETATM   20  O   UNK N   1      50.401  31.369  43.322  0.00  0.00    -0.390 OA
HETATM   21  H   UNK N   1      50.105  32.283  43.071  0.00  0.00     0.210 HD
ENDBRANCH  13  20
BRANCH  14  22
HETATM   22  O   UNK N   1      48.538  29.933  44.910  0.00  0.00    -0.388 OA
HETATM   23  H   UNK N   1      48.134  29.491  45.701  0.00  0.00     0.210 HD
ENDBRANCH  14  22
ENDBRANCH   8   9
ENDBRANCH   1   8
BRANCH   3  24
HETATM   24  C   UNK N   1      47.504  32.223  49.879  0.00  0.00     0.095 A 
HETATM   25  O   UNK N   1      48.662  32.835  50.107  0.00  0.00    -0.274 OA
HETATM   26  C   UNK N   1      49.415  32.569  51.172  0.00  0.00     0.290 A 
HETATM   27  O   UNK N   1      50.463  33.163  51.333  0.00  0.00    -0.260 OA
HETATM   28  C   UNK N   1      49.004  31.609  52.104  0.00  0.00     0.119 A 
HETATM   29  C   UNK N   1      47.790  30.934  51.900  0.00  0.00     0.076 A 
HETATM   30  C   UNK N   1      47.031  31.249  50.770  0.00  0.00     0.075 A 
BRANCH  29  31
HETATM   31  O   UNK N   1      47.327  29.987  52.760  0.00  0.00    -0.356 OA
HETATM   32  C   UNK N   1      47.215  30.146  54.128  0.00  0.00     0.210 C 
ENDBRANCH  29  31
ENDBRANCH   3  24
BRANCH   2  33
HETATM   33  O   UNK N   1      44.644  33.640  45.236  0.00  0.00    -0.361 OA
HETATM   34  H   UNK N   1      44.077  33.008  44.771  0.00  0.00     0.217 HD
ENDBRANCH   2  33
TORSDOF 10
ENDMDL
MODEL 6
REMARK VINA RESULT:      -5.5     13.030     17.910
REMARK  10 active torsions:
REMARK  status: ('A' for Active; 'I' for Inactive)
REMARK    1  A    between atoms: O_3  and  C_13 
REMARK    2  A    between atoms: O_3  and  C_22 
REMARK    3  A    between atoms: O_4  and  C_14 
REMARK    4  A    between atoms: O_5  and  C_15 
REMARK    5  A    between atoms: O_7  and  C_23 
REMARK    6  A    between atoms: O_8  and  C_24 
REMARK    7  A    between atoms: O_9  and  C_25 
REMARK    8  A    between atoms: O_10  and  C_27 
REMARK    9  A    between atoms: C_12  and  C_16 
REMARK   10  A    between atoms: C_26  and  C_27 
ROOT
HETATM    1  C   UNK N   1      30.600  52.730  41.270  0.00  0.00     0.088 A 
HETATM    2  C   UNK N   1      32.185  51.524  42.669  0.00  0.00     0.068 A 
HETATM    3  C   UNK N   1      30.540  53.759  42.229  0.00  0.00     0.037 A 
HETATM    4  C   UNK N   1      31.284  53.656  43.424  0.00  0.00    -0.044 A 
HETATM    5  C   UNK N   1      31.435  51.618  41.494  0.00  0.00     0.074 A 
HETATM    6  C   UNK N   1      32.105  52.537  43.632  0.00  0.00     0.044 A 
HETATM    7  C   UNK N   1      31.185  54.717  44.489  0.00  0.00     0.049 C 
ENDROOT
BRANCH   1   8
HETATM    8  O   UNK N   1      29.819  52.827  40.164  0.00  0.00    -0.317 OA
BRANCH   8   9
HETATM    9  C   UNK N   1      28.436  52.824  40.155  0.00  0.00     0.298 C 
HETATM   10  O   UNK N   1      27.942  51.507  40.350  0.00  0.00    -0.348 OA
HETATM   11  C   UNK N   1      26.524  51.534  40.474  0.00  0.00     0.179 C 
HETATM   12  C   UNK N   1      25.877  51.997  39.145  0.00  0.00     0.180 C 
HETATM   13  C   UNK N   1      26.434  53.389  38.782  0.00  0.00     0.183 C 
HETATM   14  C   UNK N   1      27.968  53.370  38.794  0.00  0.00     0.205 C 
BRANCH  11  15
HETATM   15  C   UNK N   1      26.028  50.132  40.862  0.00  0.00     0.198 C 
BRANCH  15  16
HETATM   16  O   UNK N   1      24.731  50.197  41.392  0.00  0.00    -0.398 OA
HETATM   17  H   UNK N   1      24.248  50.899  40.883  0.00  0.00     0.209 HD
ENDBRANCH  15  16
ENDBRANCH  11  15
BRANCH  12  18
HETATM   18  O   UNK N   1      24.480  52.061  39.295  0.00  0.00    -0.390 OA
HETATM   19  H   UNK N   1      24.112  51.192  38.986  0.00  0.00     0.210 HD
ENDBRANCH  12  18
BRANCH  13  20
HETATM   20  O   UNK N   1      25.947  53.831  37.540  0.00  0.00    -0.390 OA
HETATM   21  H   UNK N   1      26.718  54.184  37.024  0.00  0.00     0.210 HD
ENDBRANCH  13  20
BRANCH  14  22
HETATM   22  O   UNK N   1      28.439  54.680  38.598  0.00  0.00    -0.388 OA
HETATM   23  H   UNK N   1      28.766  55.011  39.475  0.00  0.00     0.210 HD
ENDBRANCH  14  22
ENDBRANCH   8   9
ENDBRANCH   1   8
BRANCH   3  24
HETATM   24  C   UNK N   1      29.638  54.906  42.003  0.00  0.00     0.095 A 
HETATM   25  O   UNK N   1      28.398  54.859  42.479  0.00  0.00    -0.274 OA
HETATM   26  C   UNK N   1      27.532  55.857  42.321  0.00  0.00     0.290 A 
HETATM   27  O   UNK N   1      26.412  55.762  42.782  0.00  0.00    -0.260 OA
HETATM   28  C   UNK N   1      27.907  57.014  41.627  0.00  0.00     0.119 A 
HETATM   29  C   UNK N   1      29.206  57.105  41.103  0.00  0.00     0.076 A 
HETATM   30  C   UNK N   1      30.082  56.034  41.297  0.00  0.00     0.075 A 
BRANCH  29  31
HETATM   31  O   UNK N   1      29.642  58.195  40.415  0.00  0.00    -0.356 OA
HETATM   32  C   UNK N   1      29.404  58.432  39.074  0.00  0.00     0.210 C 
ENDBRANCH  29  31
ENDBRANCH   3  24
BRANCH   2  33
HETATM   33  O   UNK N   1      32.970  50.446  42.869  0.00  0.00    -0.361 OA
HETATM   34  H   UNK N   1      32.604  49.587  43.123  0.00  0.00     0.217 HD
ENDBRANCH   2  33
TORSDOF 10
ENDMDL
MODEL 7
REMARK VINA RESULT:      -5.2     13.184     16.360
REMARK  10 active torsions:
REMARK  status: ('A' for Active; 'I' for Inactive)
REMARK    1  A    between atoms: O_3  and  C_13 
REMARK    2  A    between atoms: O_3  and  C_22 
REMARK    3  A    between atoms: O_4  and  C_14 
REMARK    4  A    between atoms: O_5  and  C_15 
REMARK    5  A    between atoms: O_7  and  C_23 
REMARK    6  A    between atoms: O_8  and  C_24 
REMARK    7  A    between atoms: O_9  and  C_25 
REMARK    8  A    between atoms: O_10  and  C_27 
REMARK    9  A    between atoms: C_12  and  C_16 
REMARK   10  A    between atoms: C_26  and  C_27 
ROOT
HETATM    1  C   UNK N   1      30.680  45.028  60.477  0.00  0.00     0.088 A 
HETATM    2  C   UNK N   1      31.749  44.800  62.651  0.00  0.00     0.068 A 
HETATM    3  C   UNK N   1      31.159  43.756  60.110  0.00  0.00     0.037 A 
HETATM    4  C   UNK N   1      31.959  43.016  61.007  0.00  0.00    -0.044 A 
HETATM    5  C   UNK N   1      30.972  45.539  61.756  0.00  0.00     0.074 A 
HETATM    6  C   UNK N   1      32.245  43.545  62.275  0.00  0.00     0.044 A 
HETATM    7  C   UNK N   1      32.532  41.681  60.610  0.00  0.00     0.049 C 
ENDROOT
BRANCH   1   8
HETATM    8  O   UNK N   1      29.972  45.743  59.565  0.00  0.00    -0.317 OA
BRANCH   8   9
HETATM    9  C   UNK N   1      30.181  47.073  59.251  0.00  0.00     0.298 C 
HETATM   10  O   UNK N   1      29.116  47.872  59.745  0.00  0.00    -0.348 OA
HETATM   11  C   UNK N   1      29.406  49.251  59.535  0.00  0.00     0.179 C 
HETATM   12  C   UNK N   1      29.454  49.565  58.019  0.00  0.00     0.180 C 
HETATM   13  C   UNK N   1      30.517  48.662  57.360  0.00  0.00     0.183 C 
HETATM   14  C   UNK N   1      30.266  47.191  57.718  0.00  0.00     0.205 C 
BRANCH  11  15
HETATM   15  C   UNK N   1      28.334  50.101  60.234  0.00  0.00     0.198 C 
BRANCH  15  16
HETATM   16  O   UNK N   1      28.741  51.440  60.313  0.00  0.00    -0.398 OA
HETATM   17  H   UNK N   1      28.746  51.681  61.277  0.00  0.00     0.209 HD
ENDBRANCH  15  16
ENDBRANCH  11  15
BRANCH  12  18
HETATM   18  O   UNK N   1      29.784  50.918  57.825  0.00  0.00    -0.390 OA
HETATM   19  H   UNK N   1      30.746  50.952  57.582  0.00  0.00     0.210 HD
ENDBRANCH  12  18
BRANCH  13  20
HETATM   20  O   UNK N   1      30.552  48.840  55.966  0.00  0.00    -0.390 OA
HETATM   21  H   UNK N   1      30.685  49.809  55.791  0.00  0.00     0.210 HD
ENDBRANCH  13  20
BRANCH  14  22
HETATM   22  O   UNK N   1      31.326  46.415  57.220  0.00  0.00    -0.388 OA
HETATM   23  H   UNK N   1      32.025  46.383  57.924  0.00  0.00     0.210 HD
ENDBRANCH  14  22
ENDBRANCH   8   9
ENDBRANCH   1   8
BRANCH   3  24
HETATM   24  C   UNK N   1      30.876  43.240  58.756  0.00  0.00     0.095 A 
HETATM   25  O   UNK N   1      31.777  43.416  57.794  0.00  0.00    -0.274 OA
HETATM   26  C   UNK N   1      31.595  42.973  56.552  0.00  0.00     0.290 A 
HETATM   27  O   UNK N   1      32.455  43.157  55.714  0.00  0.00    -0.260 OA
HETATM   28  C   UNK N   1      30.420  42.295  56.210  0.00  0.00     0.119 A 
HETATM   29  C   UNK N   1      29.438  42.090  57.194  0.00  0.00     0.076 A 
HETATM   30  C   UNK N   1      29.674  42.570  58.485  0.00  0.00     0.075 A 
BRANCH  29  31
HETATM   31  O   UNK N   1      28.269  41.443  56.936  0.00  0.00    -0.356 OA
HETATM   32  C   UNK N   1      27.488  41.638  55.813  0.00  0.00     0.210 C 
ENDBRANCH  29  31
ENDBRANCH   3  24
BRANCH   2  33
HETATM   33  O   UNK N   1      32.026  45.311  63.867  0.00  0.00    -0.361 OA
HETATM   34  H   UNK N   1      32.906  45.648  64.091  0.00  0.00     0.217 HD
ENDBRANCH   2  33
TORSDOF 10
ENDMDL
MODEL 8
REMARK VINA RESULT:      -5.2     13.549     16.381
REMARK  10 active torsions:
REMARK  status: ('A' for Active; 'I' for Inactive)
REMARK    1  A    between atoms: O_3  and  C_13 
REMARK    2  A    between atoms: O_3  and  C_22 
REMARK    3  A    between atoms: O_4  and  C_14 
REMARK    4  A    between atoms: O_5  and  C_15 
REMARK    5  A    between atoms: O_7  and  C_23 
REMARK    6  A    between atoms: O_8  and  C_24 
REMARK    7  A    between atoms: O_9  and  C_25 
REMARK    8  A    between atoms: O_10  and  C_27 
REMARK    9  A    between atoms: C_12  and  C_16 
REMARK   10  A    between atoms: C_26  and  C_27 
ROOT
HETATM    1  C   UNK N   1      49.346  56.372  40.841  0.00  0.00     0.088 A 
HETATM    2  C   UNK N   1      47.348  55.781  39.585  0.00  0.00     0.068 A 
HETATM    3  C   UNK N   1      50.141  56.050  39.725  0.00  0.00     0.037 A 
HETATM    4  C   UNK N   1      49.539  55.566  38.544  0.00  0.00    -0.044 A 
HETATM    5  C   UNK N   1      47.946  56.244  40.759  0.00  0.00     0.074 A 
HETATM    6  C   UNK N   1      48.142  55.438  38.483  0.00  0.00     0.044 A 
HETATM    7  C   UNK N   1      50.377  55.158  37.361  0.00  0.00     0.049 C 
ENDROOT
BRANCH   1   8
HETATM    8  O   UNK N   1      49.962  56.768  41.985  0.00  0.00    -0.317 OA
BRANCH   8   9
HETATM    9  C   UNK N   1      49.958  56.074  43.181  0.00  0.00     0.298 C 
HETATM   10  O   UNK N   1      48.866  56.487  43.990  0.00  0.00    -0.348 OA
HETATM   11  C   UNK N   1      48.792  55.674  45.157  0.00  0.00     0.179 C 
HETATM   12  C   UNK N   1      50.040  55.898  46.047  0.00  0.00     0.180 C 
HETATM   13  C   UNK N   1      51.301  55.577  45.221  0.00  0.00     0.183 C 
HETATM   14  C   UNK N   1      51.289  56.359  43.900  0.00  0.00     0.205 C 
BRANCH  11  15
HETATM   15  C   UNK N   1      47.506  56.016  45.924  0.00  0.00     0.198 C 
BRANCH  15  16
HETATM   16  O   UNK N   1      47.131  57.347  45.692  0.00  0.00    -0.398 OA
HETATM   17  H   UNK N   1      47.188  57.817  46.564  0.00  0.00     0.209 HD
ENDBRANCH  15  16
ENDBRANCH  11  15
BRANCH  12  18
HETATM   18  O   UNK N   1      49.975  55.058  47.173  0.00  0.00    -0.390 OA
HETATM   19  H   UNK N   1      49.089  54.610  47.153  0.00  0.00     0.210 HD
ENDBRANCH  12  18
BRANCH  13  20
HETATM   20  O   UNK N   1      52.475  55.841  45.949  0.00  0.00    -0.390 OA
HETATM   21  H   UNK N   1      52.738  55.000  46.408  0.00  0.00     0.210 HD
ENDBRANCH  13  20
BRANCH  14  22
HETATM   22  O   UNK N   1      52.376  55.940  43.114  0.00  0.00    -0.388 OA
HETATM   23  H   UNK N   1      52.117  55.085  42.683  0.00  0.00     0.210 HD
ENDBRANCH  14  22
ENDBRANCH   8   9
ENDBRANCH   1   8
BRANCH   3  24
HETATM   24  C   UNK N   1      51.610  56.156  39.829  0.00  0.00     0.095 A 
HETATM   25  O   UNK N   1      52.325  55.058  40.058  0.00  0.00    -0.274 OA
HETATM   26  C   UNK N   1      53.652  55.074  40.156  0.00  0.00     0.290 A 
HETATM   27  O   UNK N   1      54.254  54.039  40.361  0.00  0.00    -0.260 OA
HETATM   28  C   UNK N   1      54.354  56.278  40.025  0.00  0.00     0.119 A 
HETATM   29  C   UNK N   1      53.640  57.464  39.787  0.00  0.00     0.076 A 
HETATM   30  C   UNK N   1      52.248  57.397  39.688  0.00  0.00     0.075 A 
BRANCH  29  31
HETATM   31  O   UNK N   1      54.252  58.671  39.652  0.00  0.00    -0.356 OA
HETATM   32  C   UNK N   1      53.603  59.864  39.397  0.00  0.00     0.210 C 
ENDBRANCH  29  31
ENDBRANCH   3  24
BRANCH   2  33
HETATM   33  O   UNK N   1      46.007  55.656  39.529  0.00  0.00    -0.361 OA
HETATM   34  H   UNK N   1      45.440  56.375  39.213  0.00  0.00     0.217 HD
ENDBRANCH   2  33
TORSDOF 10
ENDMDL
MODEL 9
REMARK VINA RESULT:      -5.1     12.139     16.188
REMARK  10 active torsions:
REMARK  status: ('A' for Active; 'I' for Inactive)
REMARK    1  A    between atoms: O_3  and  C_13 
REMARK    2  A    between atoms: O_3  and  C_22 
REMARK    3  A    between atoms: O_4  and  C_14 
REMARK    4  A    between atoms: O_5  and  C_15 
REMARK    5  A    between atoms: O_7  and  C_23 
REMARK    6  A    between atoms: O_8  and  C_24 
REMARK    7  A    between atoms: O_9  and  C_25 
REMARK    8  A    between atoms: O_10  and  C_27 
REMARK    9  A    between atoms: C_12  and  C_16 
REMARK   10  A    between atoms: C_26  and  C_27 
ROOT
HETATM    1  C   UNK N   1      47.125  32.115  49.699  0.00  0.00     0.088 A 
HETATM    2  C   UNK N   1      45.224  33.622  49.512  0.00  0.00     0.068 A 
HETATM    3  C   UNK N   1      47.594  32.846  50.807  0.00  0.00     0.037 A 
HETATM    4  C   UNK N   1      46.889  33.986  51.251  0.00  0.00    -0.044 A 
HETATM    5  C   UNK N   1      45.931  32.505  49.062  0.00  0.00     0.074 A 
HETATM    6  C   UNK N   1      45.704  34.363  50.600  0.00  0.00     0.044 A 
HETATM    7  C   UNK N   1      47.407  34.816  52.396  0.00  0.00     0.049 C 
ENDROOT
BRANCH   1   8
HETATM    8  O   UNK N   1      47.864  31.066  49.253  0.00  0.00    -0.317 OA
BRANCH   8   9
HETATM    9  C   UNK N   1      48.673  31.073  48.132  0.00  0.00     0.298 C 
HETATM   10  O   UNK N   1      49.513  32.218  48.134  0.00  0.00    -0.348 OA
HETATM   11  C   UNK N   1      50.433  32.147  47.049  0.00  0.00     0.179 C 
HETATM   12  C   UNK N   1      49.678  32.223  45.698  0.00  0.00     0.180 C 
HETATM   13  C   UNK N   1      48.653  31.072  45.639  0.00  0.00     0.183 C 
HETATM   14  C   UNK N   1      47.763  31.084  46.890  0.00  0.00     0.205 C 
BRANCH  11  15
HETATM   15  C   UNK N   1      51.444  33.297  47.173  0.00  0.00     0.198 C 
BRANCH  15  16
HETATM   16  O   UNK N   1      51.146  34.098  48.285  0.00  0.00    -0.398 OA
HETATM   17  H   UNK N   1      51.245  35.042  47.993  0.00  0.00     0.209 HD
ENDBRANCH  15  16
ENDBRANCH  11  15
BRANCH  12  18
HETATM   18  O   UNK N   1      50.594  32.107  44.637  0.00  0.00    -0.390 OA
HETATM   19  H   UNK N   1      51.498  32.025  45.039  0.00  0.00     0.210 HD
ENDBRANCH  12  18
BRANCH  13  20
HETATM   20  O   UNK N   1      47.875  31.134  44.470  0.00  0.00    -0.390 OA
HETATM   21  H   UNK N   1      47.204  31.856  44.595  0.00  0.00     0.210 HD
ENDBRANCH  13  20
BRANCH  14  22
HETATM   22  O   UNK N   1      46.938  29.946  46.871  0.00  0.00    -0.388 OA
HETATM   23  H   UNK N   1      46.507  29.879  47.763  0.00  0.00     0.210 HD
ENDBRANCH  14  22
ENDBRANCH   8   9
ENDBRANCH   1   8
BRANCH   3  24
HETATM   24  C   UNK N   1      48.863  32.451  51.449  0.00  0.00     0.095 A 
HETATM   25  O   UNK N   1      50.005  32.960  50.995  0.00  0.00    -0.274 OA
HETATM   26  C   UNK N   1      51.186  32.656  51.528  0.00  0.00     0.290 A 
HETATM   27  O   UNK N   1      52.198  33.155  51.076  0.00  0.00    -0.260 OA
HETATM   28  C   UNK N   1      51.266  31.767  52.606  0.00  0.00     0.119 A 
HETATM   29  C   UNK N   1      50.086  31.202  53.115  0.00  0.00     0.076 A 
HETATM   30  C   UNK N   1      48.868  31.552  52.526  0.00  0.00     0.075 A 
BRANCH  29  31
HETATM   31  O   UNK N   1      50.084  30.327  54.157  0.00  0.00    -0.356 OA
HETATM   32  C   UNK N   1      50.490  30.628  55.443  0.00  0.00     0.210 C 
ENDBRANCH  29  31
ENDBRANCH   3  24
BRANCH   2  33
HETATM   33  O   UNK N   1      44.088  33.985  48.883  0.00  0.00    -0.361 OA
HETATM   34  H   UNK N   1      43.314  33.404  48.851  0.00  0.00     0.217 HD
ENDBRANCH   2  33
TORSDOF 10
ENDMDL
