MODEL 1
REMARK VINA RESULT:      -7.2      0.000      0.000
REMARK  10 active torsions:
REMARK  status: ('A' for Active; 'I' for Inactive)
REMARK    1  A    between atoms: O_3  and  C_14 
REMARK    2  A    between atoms: O_3  and  C_26 
REMARK    3  A    between atoms: O_4  and  C_15 
REMARK    4  A    between atoms: O_5  and  C_16 
REMARK    5  A    between atoms: O_7  and  C_27 
REMARK    6  A    between atoms: O_8  and  C_28 
REMARK    7  A    between atoms: O_9  and  C_29 
REMARK    8  A    between atoms: O_10  and  C_31 
REMARK    9  A    between atoms: C_12  and  C_18 
REMARK   10  A    between atoms: C_30  and  C_31 
ROOT
HETATM    1  O   UNK N   1      40.587  46.070  49.067  0.00  0.00    -0.309 OA
HETATM    2  O   UNK N   1      42.113  43.765  46.217  0.00  0.00    -0.287 OA
HETATM    3  C   UNK N   1      40.563  46.523  47.816  0.00  0.00     0.095 A 
HETATM    4  C   UNK N   1      41.053  44.867  49.390  0.00  0.00     0.090 A 
HETATM    5  C   UNK N   1      41.627  44.480  47.076  0.00  0.00     0.190 A 
HETATM    6  C   UNK N   1      39.955  48.279  46.247  0.00  0.00     0.077 A 
HETATM    7  C   UNK N   1      41.073  46.266  45.444  0.00  0.00     0.085 A 
HETATM    8  C   UNK N   1      41.096  45.749  46.761  0.00  0.00     0.081 A 
HETATM    9  C   UNK N   1      41.582  44.031  48.395  0.00  0.00     0.094 A 
HETATM   10  C   UNK N   1      39.997  47.774  47.560  0.00  0.00     0.075 A 
HETATM   11  C   UNK N   1      40.495  47.522  45.203  0.00  0.00     0.074 A 
ENDROOT
BRANCH   6  12
HETATM   12  O   UNK N   1      39.437  49.501  45.956  0.00  0.00    -0.318 OA
BRANCH  12  13
HETATM   13  C   UNK N   1      38.800  49.852  44.778  0.00  0.00     0.298 C 
HETATM   14  O   UNK N   1      38.167  48.723  44.190  0.00  0.00    -0.348 OA
HETATM   15  C   UNK N   1      37.400  49.125  43.058  0.00  0.00     0.179 C 
HETATM   16  C   UNK N   1      38.321  49.707  41.954  0.00  0.00     0.180 C 
HETATM   17  C   UNK N   1      39.126  50.882  42.541  0.00  0.00     0.183 C 
HETATM   18  C   UNK N   1      39.849  50.428  43.819  0.00  0.00     0.205 C 
BRANCH  15  19
HETATM   19  C   UNK N   1      36.616  47.918  42.519  0.00  0.00     0.198 C 
BRANCH  19  20
HETATM   20  O   UNK N   1      36.556  46.899  43.479  0.00  0.00    -0.398 OA
HETATM   21  H   UNK N   1      37.472  46.799  43.846  0.00  0.00     0.209 HD
ENDBRANCH  19  20
ENDBRANCH  15  19
BRANCH  16  22
HETATM   22  O   UNK N   1      37.545  50.151  40.870  0.00  0.00    -0.390 OA
HETATM   23  H   UNK N   1      37.334  51.106  41.035  0.00  0.00     0.210 HD
ENDBRANCH  16  22
BRANCH  17  24
HETATM   24  O   UNK N   1      40.031  51.405  41.602  0.00  0.00    -0.390 OA
HETATM   25  H   UNK N   1      39.740  52.330  41.389  0.00  0.00     0.210 HD
ENDBRANCH  17  24
BRANCH  18  26
HETATM   26  O   UNK N   1      40.485  51.521  44.430  0.00  0.00    -0.388 OA
HETATM   27  H   UNK N   1      40.975  52.004  43.717  0.00  0.00     0.210 HD
ENDBRANCH  18  26
ENDBRANCH  12  13
ENDBRANCH   6  12
BRANCH   7  28
HETATM   28  O   UNK N   1      41.604  45.567  44.417  0.00  0.00    -0.360 OA
HETATM   29  H   UNK N   1      41.055  45.050  43.811  0.00  0.00     0.217 HD
ENDBRANCH   7  28
BRANCH   4  30
HETATM   30  C   UNK N   1      40.988  44.436  50.803  0.00  0.00    -0.002 A 
HETATM   31  C   UNK N   1      41.802  45.062  51.760  0.00  0.00     0.017 A 
HETATM   32  C   UNK N   1      41.748  44.666  53.099  0.00  0.00     0.037 A 
HETATM   33  C   UNK N   1      40.853  43.665  53.502  0.00  0.00     0.065 A 
HETATM   34  C   UNK N   1      40.025  43.053  52.556  0.00  0.00     0.037 A 
HETATM   35  C   UNK N   1      40.101  43.423  51.210  0.00  0.00     0.017 A 
BRANCH  33  36
HETATM   36  O   UNK N   1      40.780  43.287  54.795  0.00  0.00    -0.361 OA
HETATM   37  H   UNK N   1      40.609  42.368  55.047  0.00  0.00     0.217 HD
ENDBRANCH  33  36
ENDBRANCH   4  30
TORSDOF 10
ENDMDL
MODEL 2
REMARK VINA RESULT:      -6.4     14.789     16.435
REMARK  10 active torsions:
REMARK  status: ('A' for Active; 'I' for Inactive)
REMARK    1  A    between atoms: O_3  and  C_14 
REMARK    2  A    between atoms: O_3  and  C_26 
REMARK    3  A    between atoms: O_4  and  C_15 
REMARK    4  A    between atoms: O_5  and  C_16 
REMARK    5  A    between atoms: O_7  and  C_27 
REMARK    6  A    between atoms: O_8  and  C_28 
REMARK    7  A    between atoms: O_9  and  C_29 
REMARK    8  A    between atoms: O_10  and  C_31 
REMARK    9  A    between atoms: C_12  and  C_18 
REMARK   10  A    between atoms: C_30  and  C_31 
ROOT
HETATM    1  O   UNK N   1      46.812  53.676  59.801  0.00  0.00    -0.309 OA
HETATM    2  O   UNK N   1      44.804  56.054  62.265  0.00  0.00    -0.287 OA
HETATM    3  C   UNK N   1      46.929  54.992  59.635  0.00  0.00     0.095 A 
HETATM    4  C   UNK N   1      46.094  53.133  60.780  0.00  0.00     0.090 A 
HETATM    5  C   UNK N   1      45.438  55.341  61.509  0.00  0.00     0.190 A 
HETATM    6  C   UNK N   1      47.903  56.861  58.421  0.00  0.00     0.077 A 
HETATM    7  C   UNK N   1      46.365  57.279  60.267  0.00  0.00     0.085 A 
HETATM    8  C   UNK N   1      46.235  55.887  60.479  0.00  0.00     0.081 A 
HETATM    9  C   UNK N   1      45.389  53.956  61.670  0.00  0.00     0.094 A 
HETATM   10  C   UNK N   1      47.757  55.475  58.619  0.00  0.00     0.075 A 
HETATM   11  C   UNK N   1      47.205  57.748  59.245  0.00  0.00     0.074 A 
ENDROOT
BRANCH   6  12
HETATM   12  O   UNK N   1      48.676  57.374  57.429  0.00  0.00    -0.318 OA
BRANCH  12  13
HETATM   13  C   UNK N   1      48.818  56.848  56.157  0.00  0.00     0.298 C 
HETATM   14  O   UNK N   1      50.004  56.070  56.061  0.00  0.00    -0.348 OA
HETATM   15  C   UNK N   1      50.064  55.423  54.793  0.00  0.00     0.179 C 
HETATM   16  C   UNK N   1      50.160  56.468  53.650  0.00  0.00     0.180 C 
HETATM   17  C   UNK N   1      48.955  57.422  53.744  0.00  0.00     0.183 C 
HETATM   18  C   UNK N   1      48.869  58.013  55.159  0.00  0.00     0.205 C 
BRANCH  15  19
HETATM   19  C   UNK N   1      51.279  54.481  54.759  0.00  0.00     0.198 C 
BRANCH  19  20
HETATM   20  O   UNK N   1      51.152  53.548  53.721  0.00  0.00    -0.398 OA
HETATM   21  H   UNK N   1      51.648  53.915  52.944  0.00  0.00     0.209 HD
ENDBRANCH  19  20
ENDBRANCH  15  19
BRANCH  16  22
HETATM   22  O   UNK N   1      50.161  55.815  52.406  0.00  0.00    -0.390 OA
HETATM   23  H   UNK N   1      49.758  56.441  51.749  0.00  0.00     0.210 HD
ENDBRANCH  16  22
BRANCH  17  24
HETATM   24  O   UNK N   1      49.026  58.436  52.772  0.00  0.00    -0.390 OA
HETATM   25  H   UNK N   1      49.770  58.209  52.155  0.00  0.00     0.210 HD
ENDBRANCH  17  24
BRANCH  18  26
HETATM   26  O   UNK N   1      47.705  58.787  55.292  0.00  0.00    -0.388 OA
HETATM   27  H   UNK N   1      47.558  59.237  54.421  0.00  0.00     0.210 HD
ENDBRANCH  18  26
ENDBRANCH  12  13
ENDBRANCH   6  12
BRANCH   7  28
HETATM   28  O   UNK N   1      45.689  58.162  61.033  0.00  0.00    -0.360 OA
HETATM   29  H   UNK N   1      45.038  57.878  61.690  0.00  0.00     0.217 HD
ENDBRANCH   7  28
BRANCH   4  30
HETATM   30  C   UNK N   1      46.069  51.661  60.909  0.00  0.00    -0.002 A 
HETATM   31  C   UNK N   1      44.844  50.998  61.090  0.00  0.00     0.017 A 
HETATM   32  C   UNK N   1      44.805  49.607  61.211  0.00  0.00     0.037 A 
HETATM   33  C   UNK N   1      45.988  48.859  61.116  0.00  0.00     0.065 A 
HETATM   34  C   UNK N   1      47.207  49.512  60.915  0.00  0.00     0.037 A 
HETATM   35  C   UNK N   1      47.253  50.907  60.828  0.00  0.00     0.017 A 
BRANCH  33  36
HETATM   36  O   UNK N   1      45.961  47.514  61.214  0.00  0.00    -0.361 OA
HETATM   37  H   UNK N   1      45.197  46.998  60.920  0.00  0.00     0.217 HD
ENDBRANCH  33  36
ENDBRANCH   4  30
TORSDOF 10
ENDMDL
MODEL 3
REMARK VINA RESULT:      -6.3     13.638     15.866
REMARK  10 active torsions:
REMARK  status: ('A' for Active; 'I' for Inactive)
REMARK    1  A    between atoms: O_3  and  C_14 
REMARK    2  A    between atoms: O_3  and  C_26 
REMARK    3  A    between atoms: O_4  and  C_15 
REMARK    4  A    between atoms: O_5  and  C_16 
REMARK    5  A    between atoms: O_7  and  C_27 
REMARK    6  A    between atoms: O_8  and  C_28 
REMARK    7  A    between atoms: O_9  and  C_29 
REMARK    8  A    between atoms: O_10  and  C_31 
REMARK    9  A    between atoms: C_12  and  C_18 
REMARK   10  A    between atoms: C_30  and  C_31 
ROOT
HETATM    1  O   UNK N   1      26.641  40.557  51.684  0.00  0.00    -0.309 OA
HETATM    2  O   UNK N   1      26.056  44.241  53.044  0.00  0.00    -0.287 OA
HETATM    3  C   UNK N   1      25.951  41.403  50.922  0.00  0.00     0.095 A 
HETATM    4  C   UNK N   1      27.177  40.907  52.849  0.00  0.00     0.090 A 
HETATM    5  C   UNK N   1      26.237  43.120  52.604  0.00  0.00     0.190 A 
HETATM    6  C   UNK N   1      24.748  41.840  48.854  0.00  0.00     0.077 A 
HETATM    7  C   UNK N   1      24.956  43.597  50.533  0.00  0.00     0.085 A 
HETATM    8  C   UNK N   1      25.708  42.726  51.356  0.00  0.00     0.081 A 
HETATM    9  C   UNK N   1      26.995  42.209  53.341  0.00  0.00     0.094 A 
HETATM   10  C   UNK N   1      25.478  40.967  49.683  0.00  0.00     0.075 A 
HETATM   11  C   UNK N   1      24.493  43.144  49.288  0.00  0.00     0.074 A 
ENDROOT
BRANCH   6  12
HETATM   12  O   UNK N   1      24.247  41.450  47.653  0.00  0.00    -0.318 OA
BRANCH  12  13
HETATM   13  C   UNK N   1      24.894  40.653  46.725  0.00  0.00     0.298 C 
HETATM   14  O   UNK N   1      25.980  41.350  46.129  0.00  0.00    -0.348 OA
HETATM   15  C   UNK N   1      26.720  40.473  45.283  0.00  0.00     0.179 C 
HETATM   16  C   UNK N   1      25.841  39.986  44.101  0.00  0.00     0.180 C 
HETATM   17  C   UNK N   1      24.581  39.302  44.663  0.00  0.00     0.183 C 
HETATM   18  C   UNK N   1      23.877  40.245  45.652  0.00  0.00     0.205 C 
BRANCH  15  19
HETATM   19  C   UNK N   1      27.966  41.204  44.756  0.00  0.00     0.198 C 
BRANCH  19  20
HETATM   20  O   UNK N   1      27.670  41.895  43.574  0.00  0.00    -0.398 OA
HETATM   21  H   UNK N   1      26.871  42.454  43.761  0.00  0.00     0.209 HD
ENDBRANCH  19  20
ENDBRANCH  15  19
BRANCH  16  22
HETATM   22  O   UNK N   1      26.566  39.079  43.309  0.00  0.00    -0.390 OA
HETATM   23  H   UNK N   1      25.969  38.796  42.569  0.00  0.00     0.210 HD
ENDBRANCH  16  22
BRANCH  17  24
HETATM   24  O   UNK N   1      23.711  38.900  43.635  0.00  0.00    -0.390 OA
HETATM   25  H   UNK N   1      24.185  39.034  42.772  0.00  0.00     0.210 HD
ENDBRANCH  17  24
BRANCH  18  26
HETATM   26  O   UNK N   1      22.797  39.587  46.264  0.00  0.00    -0.388 OA
HETATM   27  H   UNK N   1      22.027  39.660  45.643  0.00  0.00     0.210 HD
ENDBRANCH  18  26
ENDBRANCH  12  13
ENDBRANCH   6  12
BRANCH   7  28
HETATM   28  O   UNK N   1      24.676  44.856  50.931  0.00  0.00    -0.360 OA
HETATM   29  H   UNK N   1      25.151  45.623  50.580  0.00  0.00     0.217 HD
ENDBRANCH   7  28
BRANCH   4  30
HETATM   30  C   UNK N   1      27.969  39.907  53.596  0.00  0.00    -0.002 A 
HETATM   31  C   UNK N   1      27.694  38.539  53.434  0.00  0.00     0.017 A 
HETATM   32  C   UNK N   1      28.436  37.583  54.131  0.00  0.00     0.037 A 
HETATM   33  C   UNK N   1      29.486  37.982  54.971  0.00  0.00     0.065 A 
HETATM   34  C   UNK N   1      29.777  39.341  55.120  0.00  0.00     0.037 A 
HETATM   35  C   UNK N   1      29.014  40.302  54.450  0.00  0.00     0.017 A 
BRANCH  33  36
HETATM   36  O   UNK N   1      30.221  37.067  55.636  0.00  0.00    -0.361 OA
HETATM   37  H   UNK N   1      29.810  36.408  56.214  0.00  0.00     0.217 HD
ENDBRANCH  33  36
ENDBRANCH   4  30
TORSDOF 10
ENDMDL
MODEL 4
REMARK VINA RESULT:      -6.3     13.685     15.913
REMARK  10 active torsions:
REMARK  status: ('A' for Active; 'I' for Inactive)
REMARK    1  A    between atoms: O_3  and  C_14 
REMARK    2  A    between atoms: O_3  and  C_26 
REMARK    3  A    between atoms: O_4  and  C_15 
REMARK    4  A    between atoms: O_5  and  C_16 
REMARK    5  A    between atoms: O_7  and  C_27 
REMARK    6  A    between atoms: O_8  and  C_28 
REMARK    7  A    between atoms: O_9  and  C_29 
REMARK    8  A    between atoms: O_10  and  C_31 
REMARK    9  A    between atoms: C_12  and  C_18 
REMARK   10  A    between atoms: C_30  and  C_31 
ROOT
HETATM    1  O   UNK N   1      29.482  45.014  57.644  0.00  0.00    -0.309 OA
HETATM    2  O   UNK N   1      31.218  42.975  60.575  0.00  0.00    -0.287 OA
HETATM    3  C   UNK N   1      29.512  43.687  57.551  0.00  0.00     0.095 A 
HETATM    4  C   UNK N   1      29.964  45.675  58.693  0.00  0.00     0.090 A 
HETATM    5  C   UNK N   1      30.669  43.583  59.673  0.00  0.00     0.190 A 
HETATM    6  C   UNK N   1      28.938  41.672  56.316  0.00  0.00     0.077 A 
HETATM    7  C   UNK N   1      30.152  41.501  58.425  0.00  0.00     0.085 A 
HETATM    8  C   UNK N   1      30.120  42.909  58.561  0.00  0.00     0.081 A 
HETATM    9  C   UNK N   1      30.567  44.972  59.747  0.00  0.00     0.094 A 
HETATM   10  C   UNK N   1      28.925  43.074  56.442  0.00  0.00     0.075 A 
HETATM   11  C   UNK N   1      29.553  40.900  57.307  0.00  0.00     0.074 A 
ENDROOT
BRANCH   6  12
HETATM   12  O   UNK N   1      28.402  41.034  55.243  0.00  0.00    -0.318 OA
BRANCH  12  13
HETATM   13  C   UNK N   1      28.002  41.633  54.061  0.00  0.00     0.298 C 
HETATM   14  O   UNK N   1      26.765  41.091  53.614  0.00  0.00    -0.348 OA
HETATM   15  C   UNK N   1      26.298  41.812  52.477  0.00  0.00     0.179 C 
HETATM   16  C   UNK N   1      27.278  41.649  51.286  0.00  0.00     0.180 C 
HETATM   17  C   UNK N   1      28.677  42.122  51.721  0.00  0.00     0.183 C 
HETATM   18  C   UNK N   1      29.093  41.396  53.010  0.00  0.00     0.205 C 
BRANCH  15  19
HETATM   19  C   UNK N   1      24.899  41.304  52.091  0.00  0.00     0.198 C 
BRANCH  19  20
HETATM   20  O   UNK N   1      24.990  40.298  51.120  0.00  0.00    -0.398 OA
HETATM   21  H   UNK N   1      25.236  40.745  50.269  0.00  0.00     0.209 HD
ENDBRANCH  19  20
ENDBRANCH  15  19
BRANCH  16  22
HETATM   22  O   UNK N   1      26.832  42.411  50.192  0.00  0.00    -0.390 OA
HETATM   23  H   UNK N   1      27.406  42.174  49.419  0.00  0.00     0.210 HD
ENDBRANCH  16  22
BRANCH  17  24
HETATM   24  O   UNK N   1      29.625  41.931  50.700  0.00  0.00    -0.390 OA
HETATM   25  H   UNK N   1      29.919  40.984  50.738  0.00  0.00     0.210 HD
ENDBRANCH  17  24
BRANCH  18  26
HETATM   26  O   UNK N   1      30.312  41.908  53.484  0.00  0.00    -0.388 OA
HETATM   27  H   UNK N   1      30.744  41.184  54.005  0.00  0.00     0.210 HD
ENDBRANCH  18  26
ENDBRANCH  12  13
ENDBRANCH   6  12
BRANCH   7  28
HETATM   28  O   UNK N   1      30.755  40.729  59.354  0.00  0.00    -0.360 OA
HETATM   29  H   UNK N   1      30.693  40.924  60.301  0.00  0.00     0.217 HD
ENDBRANCH   7  28
BRANCH   4  30
HETATM   30  C   UNK N   1      29.837  47.148  58.725  0.00  0.00    -0.002 A 
HETATM   31  C   UNK N   1      30.156  47.898  57.581  0.00  0.00     0.017 A 
HETATM   32  C   UNK N   1      30.037  49.290  57.596  0.00  0.00     0.037 A 
HETATM   33  C   UNK N   1      29.564  49.945  58.743  0.00  0.00     0.065 A 
HETATM   34  C   UNK N   1      29.225  49.200  59.876  0.00  0.00     0.037 A 
HETATM   35  C   UNK N   1      29.375  47.810  59.876  0.00  0.00     0.017 A 
BRANCH  33  36
HETATM   36  O   UNK N   1      29.429  51.287  58.763  0.00  0.00    -0.361 OA
HETATM   37  H   UNK N   1      30.168  51.868  58.990  0.00  0.00     0.217 HD
ENDBRANCH  33  36
ENDBRANCH   4  30
TORSDOF 10
ENDMDL
MODEL 5
REMARK VINA RESULT:      -6.2      1.042      2.456
REMARK  10 active torsions:
REMARK  status: ('A' for Active; 'I' for Inactive)
REMARK    1  A    between atoms: O_3  and  C_14 
REMARK    2  A    between atoms: O_3  and  C_26 
REMARK    3  A    between atoms: O_4  and  C_15 
REMARK    4  A    between atoms: O_5  and  C_16 
REMARK    5  A    between atoms: O_7  and  C_27 
REMARK    6  A    between atoms: O_8  and  C_28 
REMARK    7  A    between atoms: O_9  and  C_29 
REMARK    8  A    between atoms: O_10  and  C_31 
REMARK    9  A    between atoms: C_12  and  C_18 
REMARK   10  A    between atoms: C_30  and  C_31 
ROOT
HETATM    1  O   UNK N   1      41.140  45.633  49.047  0.00  0.00    -0.309 OA
HETATM    2  O   UNK N   1      42.440  42.844  46.540  0.00  0.00    -0.287 OA
HETATM    3  C   UNK N   1      41.067  45.882  47.742  0.00  0.00     0.095 A 
HETATM    4  C   UNK N   1      41.583  44.479  49.539  0.00  0.00     0.090 A 
HETATM    5  C   UNK N   1      42.024  43.705  47.293  0.00  0.00     0.190 A 
HETATM    6  C   UNK N   1      40.435  47.387  45.940  0.00  0.00     0.077 A 
HETATM    7  C   UNK N   1      41.444  45.228  45.422  0.00  0.00     0.085 A 
HETATM    8  C   UNK N   1      41.518  44.928  46.802  0.00  0.00     0.081 A 
HETATM    9  C   UNK N   1      42.033  43.475  48.669  0.00  0.00     0.094 A 
HETATM   10  C   UNK N   1      40.528  47.097  47.314  0.00  0.00     0.075 A 
HETATM   11  C   UNK N   1      40.895  46.452  45.008  0.00  0.00     0.074 A 
ENDROOT
BRANCH   6  12
HETATM   12  O   UNK N   1      39.942  48.567  45.479  0.00  0.00    -0.318 OA
BRANCH  12  13
HETATM   13  C   UNK N   1      39.479  48.807  44.197  0.00  0.00     0.298 C 
HETATM   14  O   UNK N   1      39.755  50.145  43.802  0.00  0.00    -0.348 OA
HETATM   15  C   UNK N   1      39.401  50.335  42.435  0.00  0.00     0.179 C 
HETATM   16  C   UNK N   1      37.874  50.150  42.236  0.00  0.00     0.180 C 
HETATM   17  C   UNK N   1      37.470  48.751  42.737  0.00  0.00     0.183 C 
HETATM   18  C   UNK N   1      37.967  48.552  44.178  0.00  0.00     0.205 C 
BRANCH  15  19
HETATM   19  C   UNK N   1      39.831  51.742  41.989  0.00  0.00     0.198 C 
BRANCH  19  20
HETATM   20  O   UNK N   1      40.141  52.539  43.099  0.00  0.00    -0.398 OA
HETATM   21  H   UNK N   1      40.706  51.987  43.699  0.00  0.00     0.209 HD
ENDBRANCH  19  20
ENDBRANCH  15  19
BRANCH  16  22
HETATM   22  O   UNK N   1      37.550  50.285  40.875  0.00  0.00    -0.390 OA
HETATM   23  H   UNK N   1      36.570  50.429  40.822  0.00  0.00     0.210 HD
ENDBRANCH  16  22
BRANCH  17  24
HETATM   24  O   UNK N   1      36.081  48.552  42.645  0.00  0.00    -0.390 OA
HETATM   25  H   UNK N   1      35.645  49.201  43.257  0.00  0.00     0.210 HD
ENDBRANCH  17  24
BRANCH  18  26
HETATM   26  O   UNK N   1      37.714  47.237  44.601  0.00  0.00    -0.388 OA
HETATM   27  H   UNK N   1      36.777  47.030  44.351  0.00  0.00     0.210 HD
ENDBRANCH  18  26
ENDBRANCH  12  13
ENDBRANCH   6  12
BRANCH   7  28
HETATM   28  O   UNK N   1      41.898  44.354  44.498  0.00  0.00    -0.360 OA
HETATM   29  H   UNK N   1      41.556  44.341  43.593  0.00  0.00     0.217 HD
ENDBRANCH   7  28
BRANCH   4  30
HETATM   30  C   UNK N   1      41.578  44.283  51.004  0.00  0.00    -0.002 A 
HETATM   31  C   UNK N   1      41.202  43.039  51.538  0.00  0.00     0.017 A 
HETATM   32  C   UNK N   1      41.194  42.839  52.921  0.00  0.00     0.037 A 
HETATM   33  C   UNK N   1      41.598  43.868  53.784  0.00  0.00     0.065 A 
HETATM   34  C   UNK N   1      41.993  45.101  53.256  0.00  0.00     0.037 A 
HETATM   35  C   UNK N   1      41.969  45.315  51.875  0.00  0.00     0.017 A 
BRANCH  33  36
HETATM   36  O   UNK N   1      41.612  43.681  55.120  0.00  0.00    -0.361 OA
HETATM   37  H   UNK N   1      41.721  44.420  55.735  0.00  0.00     0.217 HD
ENDBRANCH  33  36
ENDBRANCH   4  30
TORSDOF 10
ENDMDL
MODEL 6
REMARK VINA RESULT:      -6.2      9.789     13.394
REMARK  10 active torsions:
REMARK  status: ('A' for Active; 'I' for Inactive)
REMARK    1  A    between atoms: O_3  and  C_14 
REMARK    2  A    between atoms: O_3  and  C_26 
REMARK    3  A    between atoms: O_4  and  C_15 
REMARK    4  A    between atoms: O_5  and  C_16 
REMARK    5  A    between atoms: O_7  and  C_27 
REMARK    6  A    between atoms: O_8  and  C_28 
REMARK    7  A    between atoms: O_9  and  C_29 
REMARK    8  A    between atoms: O_10  and  C_31 
REMARK    9  A    between atoms: C_12  and  C_18 
REMARK   10  A    between atoms: C_30  and  C_31 
ROOT
HETATM    1  O   UNK N   1      31.739  53.012  42.808  0.00  0.00    -0.309 OA
HETATM    2  O   UNK N   1      33.174  49.390  43.572  0.00  0.00    -0.287 OA
HETATM    3  C   UNK N   1      31.265  51.989  42.101  0.00  0.00     0.095 A 
HETATM    4  C   UNK N   1      32.631  52.863  43.784  0.00  0.00     0.090 A 
HETATM    5  C   UNK N   1      32.712  50.491  43.334  0.00  0.00     0.190 A 
HETATM    6  C   UNK N   1      29.760  51.167  40.376  0.00  0.00     0.077 A 
HETATM    7  C   UNK N   1      31.232  49.614  41.546  0.00  0.00     0.085 A 
HETATM    8  C   UNK N   1      31.742  50.678  42.326  0.00  0.00     0.081 A 
HETATM    9  C   UNK N   1      33.139  51.590  44.080  0.00  0.00     0.094 A 
HETATM   10  C   UNK N   1      30.282  52.230  41.138  0.00  0.00     0.075 A 
HETATM   11  C   UNK N   1      30.241  49.872  40.586  0.00  0.00     0.074 A 
ENDROOT
BRANCH   6  12
HETATM   12  O   UNK N   1      28.823  51.359  39.412  0.00  0.00    -0.318 OA
BRANCH  12  13
HETATM   13  C   UNK N   1      27.481  51.624  39.626  0.00  0.00     0.298 C 
HETATM   14  O   UNK N   1      26.701  50.447  39.464  0.00  0.00    -0.348 OA
HETATM   15  C   UNK N   1      25.346  50.704  39.824  0.00  0.00     0.179 C 
HETATM   16  C   UNK N   1      24.718  51.753  38.870  0.00  0.00     0.180 C 
HETATM   17  C   UNK N   1      25.568  53.036  38.908  0.00  0.00     0.183 C 
HETATM   18  C   UNK N   1      27.038  52.694  38.620  0.00  0.00     0.205 C 
BRANCH  15  19
HETATM   19  C   UNK N   1      24.548  49.390  39.775  0.00  0.00     0.198 C 
BRANCH  19  20
HETATM   20  O   UNK N   1      24.283  48.925  41.069  0.00  0.00    -0.398 OA
HETATM   21  H   UNK N   1      25.110  48.480  41.389  0.00  0.00     0.209 HD
ENDBRANCH  19  20
ENDBRANCH  15  19
BRANCH  16  22
HETATM   22  O   UNK N   1      23.401  52.036  39.274  0.00  0.00    -0.390 OA
HETATM   23  H   UNK N   1      23.338  51.813  40.239  0.00  0.00     0.210 HD
ENDBRANCH  16  22
BRANCH  17  24
HETATM   24  O   UNK N   1      25.083  54.001  38.008  0.00  0.00    -0.390 OA
HETATM   25  H   UNK N   1      24.542  53.527  37.324  0.00  0.00     0.210 HD
ENDBRANCH  17  24
BRANCH  18  26
HETATM   26  O   UNK N   1      27.841  53.836  38.774  0.00  0.00    -0.388 OA
HETATM   27  H   UNK N   1      27.251  54.558  39.111  0.00  0.00     0.210 HD
ENDBRANCH  18  26
ENDBRANCH  12  13
ENDBRANCH   6  12
BRANCH   7  28
HETATM   28  O   UNK N   1      31.689  48.354  41.711  0.00  0.00    -0.360 OA
HETATM   29  H   UNK N   1      32.309  48.122  42.417  0.00  0.00     0.217 HD
ENDBRANCH   7  28
BRANCH   4  30
HETATM   30  C   UNK N   1      33.057  54.057  44.545  0.00  0.00    -0.002 A 
HETATM   31  C   UNK N   1      34.200  54.767  44.144  0.00  0.00     0.017 A 
HETATM   32  C   UNK N   1      34.612  55.899  44.852  0.00  0.00     0.037 A 
HETATM   33  C   UNK N   1      33.864  56.355  45.948  0.00  0.00     0.065 A 
HETATM   34  C   UNK N   1      32.713  55.663  46.338  0.00  0.00     0.037 A 
HETATM   35  C   UNK N   1      32.318  54.511  45.652  0.00  0.00     0.017 A 
BRANCH  33  36
HETATM   36  O   UNK N   1      34.242  57.456  46.629  0.00  0.00    -0.361 OA
HETATM   37  H   UNK N   1      35.128  57.834  46.533  0.00  0.00     0.217 HD
ENDBRANCH  33  36
ENDBRANCH   4  30
TORSDOF 10
ENDMDL
MODEL 7
REMARK VINA RESULT:      -6.1     14.269     17.201
REMARK  10 active torsions:
REMARK  status: ('A' for Active; 'I' for Inactive)
REMARK    1  A    between atoms: O_3  and  C_14 
REMARK    2  A    between atoms: O_3  and  C_26 
REMARK    3  A    between atoms: O_4  and  C_15 
REMARK    4  A    between atoms: O_5  and  C_16 
REMARK    5  A    between atoms: O_7  and  C_27 
REMARK    6  A    between atoms: O_8  and  C_28 
REMARK    7  A    between atoms: O_9  and  C_29 
REMARK    8  A    between atoms: O_10  and  C_31 
REMARK    9  A    between atoms: C_12  and  C_18 
REMARK   10  A    between atoms: C_30  and  C_31 
ROOT
HETATM    1  O   UNK N   1      29.007  38.264  55.348  0.00  0.00    -0.309 OA
HETATM    2  O   UNK N   1      26.746  39.478  52.319  0.00  0.00    -0.287 OA
HETATM    3  C   UNK N   1      28.835  39.573  55.181  0.00  0.00     0.095 A 
HETATM    4  C   UNK N   1      28.418  37.354  54.577  0.00  0.00     0.090 A 
HETATM    5  C   UNK N   1      27.431  39.124  53.261  0.00  0.00     0.190 A 
HETATM    6  C   UNK N   1      29.275  41.845  55.928  0.00  0.00     0.077 A 
HETATM    7  C   UNK N   1      27.895  41.461  53.955  0.00  0.00     0.085 A 
HETATM    8  C   UNK N   1      28.044  40.064  54.117  0.00  0.00     0.081 A 
HETATM    9  C   UNK N   1      27.603  37.762  53.510  0.00  0.00     0.094 A 
HETATM   10  C   UNK N   1      29.441  40.455  56.078  0.00  0.00     0.075 A 
HETATM   11  C   UNK N   1      28.506  42.334  54.868  0.00  0.00     0.074 A 
ENDROOT
BRANCH   6  12
HETATM   12  O   UNK N   1      29.867  42.740  56.762  0.00  0.00    -0.318 OA
BRANCH  12  13
HETATM   13  C   UNK N   1      30.751  42.437  57.782  0.00  0.00     0.298 C 
HETATM   14  O   UNK N   1      30.176  42.724  59.051  0.00  0.00    -0.348 OA
HETATM   15  C   UNK N   1      31.040  42.276  60.092  0.00  0.00     0.179 C 
HETATM   16  C   UNK N   1      32.382  43.052  60.060  0.00  0.00     0.180 C 
HETATM   17  C   UNK N   1      33.028  42.876  58.673  0.00  0.00     0.183 C 
HETATM   18  C   UNK N   1      32.023  43.269  57.579  0.00  0.00     0.205 C 
BRANCH  15  19
HETATM   19  C   UNK N   1      30.343  42.469  61.450  0.00  0.00     0.198 C 
BRANCH  19  20
HETATM   20  O   UNK N   1      30.849  41.568  62.396  0.00  0.00    -0.398 OA
HETATM   21  H   UNK N   1      30.576  41.907  63.288  0.00  0.00     0.209 HD
ENDBRANCH  19  20
ENDBRANCH  15  19
BRANCH  16  22
HETATM   22  O   UNK N   1      33.243  42.559  61.056  0.00  0.00    -0.390 OA
HETATM   23  H   UNK N   1      33.434  41.612  60.833  0.00  0.00     0.210 HD
ENDBRANCH  16  22
BRANCH  17  24
HETATM   24  O   UNK N   1      34.218  43.617  58.561  0.00  0.00    -0.390 OA
HETATM   25  H   UNK N   1      34.849  43.087  58.008  0.00  0.00     0.210 HD
ENDBRANCH  17  24
BRANCH  18  26
HETATM   26  O   UNK N   1      32.557  42.995  56.309  0.00  0.00    -0.388 OA
HETATM   27  H   UNK N   1      33.101  42.171  56.397  0.00  0.00     0.210 HD
ENDBRANCH  18  26
ENDBRANCH  12  13
ENDBRANCH   6  12
BRANCH   7  28
HETATM   28  O   UNK N   1      27.175  41.965  52.930  0.00  0.00    -0.360 OA
HETATM   29  H   UNK N   1      26.240  42.197  53.025  0.00  0.00     0.217 HD
ENDBRANCH   7  28
BRANCH   4  30
HETATM   30  C   UNK N   1      28.633  35.923  54.877  0.00  0.00    -0.002 A 
HETATM   31  C   UNK N   1      27.741  34.963  54.370  0.00  0.00     0.017 A 
HETATM   32  C   UNK N   1      27.934  33.607  54.643  0.00  0.00     0.037 A 
HETATM   33  C   UNK N   1      29.042  33.191  55.397  0.00  0.00     0.065 A 
HETATM   34  C   UNK N   1      29.943  34.141  55.886  0.00  0.00     0.037 A 
HETATM   35  C   UNK N   1      29.734  35.501  55.643  0.00  0.00     0.017 A 
BRANCH  33  36
HETATM   36  O   UNK N   1      29.248  31.883  55.653  0.00  0.00    -0.361 OA
HETATM   37  H   UNK N   1      29.916  31.371  55.176  0.00  0.00     0.217 HD
ENDBRANCH  33  36
ENDBRANCH   4  30
TORSDOF 10
ENDMDL
MODEL 8
REMARK VINA RESULT:      -6.1     13.671     16.374
REMARK  10 active torsions:
REMARK  status: ('A' for Active; 'I' for Inactive)
REMARK    1  A    between atoms: O_3  and  C_14 
REMARK    2  A    between atoms: O_3  and  C_26 
REMARK    3  A    between atoms: O_4  and  C_15 
REMARK    4  A    between atoms: O_5  and  C_16 
REMARK    5  A    between atoms: O_7  and  C_27 
REMARK    6  A    between atoms: O_8  and  C_28 
REMARK    7  A    between atoms: O_9  and  C_29 
REMARK    8  A    between atoms: O_10  and  C_31 
REMARK    9  A    between atoms: C_12  and  C_18 
REMARK   10  A    between atoms: C_30  and  C_31 
ROOT
HETATM    1  O   UNK N   1      29.264  43.073  55.986  0.00  0.00    -0.309 OA
HETATM    2  O   UNK N   1      29.865  40.012  58.442  0.00  0.00    -0.287 OA
HETATM    3  C   UNK N   1      29.631  43.337  57.237  0.00  0.00     0.095 A 
HETATM    4  C   UNK N   1      29.139  41.834  55.517  0.00  0.00     0.090 A 
HETATM    5  C   UNK N   1      29.699  40.963  57.699  0.00  0.00     0.190 A 
HETATM    6  C   UNK N   1      30.188  44.980  58.943  0.00  0.00     0.077 A 
HETATM    7  C   UNK N   1      30.225  42.603  59.487  0.00  0.00     0.085 A 
HETATM    8  C   UNK N   1      29.854  42.289  58.158  0.00  0.00     0.081 A 
HETATM    9  C   UNK N   1      29.362  40.739  56.365  0.00  0.00     0.094 A 
HETATM   10  C   UNK N   1      29.799  44.668  57.626  0.00  0.00     0.075 A 
HETATM   11  C   UNK N   1      30.396  43.945  59.859  0.00  0.00     0.074 A 
ENDROOT
BRANCH   6  12
HETATM   12  O   UNK N   1      30.339  46.260  59.371  0.00  0.00    -0.318 OA
BRANCH  12  13
HETATM   13  C   UNK N   1      29.702  47.371  58.846  0.00  0.00     0.298 C 
HETATM   14  O   UNK N   1      30.532  48.027  57.896  0.00  0.00    -0.348 OA
HETATM   15  C   UNK N   1      29.812  49.082  57.263  0.00  0.00     0.179 C 
HETATM   16  C   UNK N   1      29.421  50.172  58.295  0.00  0.00     0.180 C 
HETATM   17  C   UNK N   1      28.599  49.521  59.422  0.00  0.00     0.183 C 
HETATM   18  C   UNK N   1      29.368  48.323  60.001  0.00  0.00     0.205 C 
BRANCH  15  19
HETATM   19  C   UNK N   1      30.677  49.690  56.146  0.00  0.00     0.198 C 
BRANCH  19  20
HETATM   20  O   UNK N   1      29.871  50.192  55.116  0.00  0.00    -0.398 OA
HETATM   21  H   UNK N   1      30.317  51.011  54.776  0.00  0.00     0.209 HD
ENDBRANCH  19  20
ENDBRANCH  15  19
BRANCH  16  22
HETATM   22  O   UNK N   1      28.665  51.176  57.666  0.00  0.00    -0.390 OA
HETATM   23  H   UNK N   1      27.758  51.153  58.070  0.00  0.00     0.210 HD
ENDBRANCH  16  22
BRANCH  17  24
HETATM   24  O   UNK N   1      28.274  50.451  60.426  0.00  0.00    -0.390 OA
HETATM   25  H   UNK N   1      28.220  51.345  59.998  0.00  0.00     0.210 HD
ENDBRANCH  17  24
BRANCH  18  26
HETATM   26  O   UNK N   1      28.576  47.647  60.943  0.00  0.00    -0.388 OA
HETATM   27  H   UNK N   1      28.108  48.341  61.475  0.00  0.00     0.210 HD
ENDBRANCH  18  26
ENDBRANCH  12  13
ENDBRANCH   6  12
BRANCH   7  28
HETATM   28  O   UNK N   1      30.414  41.627  60.401  0.00  0.00    -0.360 OA
HETATM   29  H   UNK N   1      30.870  41.791  61.239  0.00  0.00     0.217 HD
ENDBRANCH   7  28
BRANCH   4  30
HETATM   30  C   UNK N   1      28.777  41.646  54.096  0.00  0.00    -0.002 A 
HETATM   31  C   UNK N   1      27.674  40.844  53.759  0.00  0.00     0.017 A 
HETATM   32  C   UNK N   1      27.318  40.661  52.420  0.00  0.00     0.037 A 
HETATM   33  C   UNK N   1      28.040  41.306  51.405  0.00  0.00     0.065 A 
HETATM   34  C   UNK N   1      29.126  42.121  51.737  0.00  0.00     0.037 A 
HETATM   35  C   UNK N   1      29.505  42.280  53.073  0.00  0.00     0.017 A 
BRANCH  33  36
HETATM   36  O   UNK N   1      27.696  41.149  50.110  0.00  0.00    -0.361 OA
HETATM   37  H   UNK N   1      28.039  40.418  49.578  0.00  0.00     0.217 HD
ENDBRANCH  33  36
ENDBRANCH   4  30
TORSDOF 10
ENDMDL
MODEL 9
REMARK VINA RESULT:      -6.1     12.766     16.770
REMARK  10 active torsions:
REMARK  status: ('A' for Active; 'I' for Inactive)
REMARK    1  A    between atoms: O_3  and  C_14 
REMARK    2  A    between atoms: O_3  and  C_26 
REMARK    3  A    between atoms: O_4  and  C_15 
REMARK    4  A    between atoms: O_5  and  C_16 
REMARK    5  A    between atoms: O_7  and  C_27 
REMARK    6  A    between atoms: O_8  and  C_28 
REMARK    7  A    between atoms: O_9  and  C_29 
REMARK    8  A    between atoms: O_10  and  C_31 
REMARK    9  A    between atoms: C_12  and  C_18 
REMARK   10  A    between atoms: C_30  and  C_31 
ROOT
HETATM    1  O   UNK N   1      29.385  55.131  42.900  0.00  0.00    -0.309 OA
HETATM    2  O   UNK N   1      30.389  56.541  39.327  0.00  0.00    -0.287 OA
HETATM    3  C   UNK N   1      28.453  55.764  42.192  0.00  0.00     0.095 A 
HETATM    4  C   UNK N   1      30.615  54.913  42.442  0.00  0.00     0.090 A 
HETATM    5  C   UNK N   1      30.059  56.103  40.414  0.00  0.00     0.190 A 
HETATM    6  C   UNK N   1      26.160  56.555  42.000  0.00  0.00     0.077 A 
HETATM    7  C   UNK N   1      27.746  56.975  40.195  0.00  0.00     0.085 A 
HETATM    8  C   UNK N   1      28.753  56.291  40.916  0.00  0.00     0.081 A 
HETATM    9  C   UNK N   1      30.985  55.389  41.175  0.00  0.00     0.094 A 
HETATM   10  C   UNK N   1      27.168  55.893  42.726  0.00  0.00     0.075 A 
HETATM   11  C   UNK N   1      26.459  57.090  40.744  0.00  0.00     0.074 A 
ENDROOT
BRANCH   6  12
HETATM   12  O   UNK N   1      24.905  56.726  42.492  0.00  0.00    -0.318 OA
BRANCH  12  13
HETATM   13  C   UNK N   1      24.474  57.792  43.262  0.00  0.00     0.298 C 
HETATM   14  O   UNK N   1      25.578  58.547  43.743  0.00  0.00    -0.348 OA
HETATM   15  C   UNK N   1      25.116  59.717  44.413  0.00  0.00     0.179 C 
HETATM   16  C   UNK N   1      24.293  59.336  45.671  0.00  0.00     0.180 C 
HETATM   17  C   UNK N   1      23.125  58.426  45.249  0.00  0.00     0.183 C 
HETATM   18  C   UNK N   1      23.662  57.237  44.438  0.00  0.00     0.205 C 
BRANCH  15  19
HETATM   19  C   UNK N   1      26.321  60.589  44.805  0.00  0.00     0.198 C 
BRANCH  19  20
HETATM   20  O   UNK N   1      26.652  60.394  46.153  0.00  0.00    -0.398 OA
HETATM   21  H   UNK N   1      25.938  59.826  46.544  0.00  0.00     0.209 HD
ENDBRANCH  19  20
ENDBRANCH  15  19
BRANCH  16  22
HETATM   22  O   UNK N   1      23.799  60.499  46.288  0.00  0.00    -0.390 OA
HETATM   23  H   UNK N   1      24.446  61.227  46.098  0.00  0.00     0.210 HD
ENDBRANCH  16  22
BRANCH  17  24
HETATM   24  O   UNK N   1      22.383  57.992  46.361  0.00  0.00    -0.390 OA
HETATM   25  H   UNK N   1      22.912  57.286  46.817  0.00  0.00     0.210 HD
ENDBRANCH  17  24
BRANCH  18  26
HETATM   26  O   UNK N   1      22.596  56.468  43.942  0.00  0.00    -0.388 OA
HETATM   27  H   UNK N   1      21.763  56.862  44.308  0.00  0.00     0.210 HD
ENDBRANCH  18  26
ENDBRANCH  12  13
ENDBRANCH   6  12
BRANCH   7  28
HETATM   28  O   UNK N   1      28.008  57.520  38.988  0.00  0.00    -0.360 OA
HETATM   29  H   UNK N   1      28.815  57.313  38.496  0.00  0.00     0.217 HD
ENDBRANCH   7  28
BRANCH   4  30
HETATM   30  C   UNK N   1      31.562  54.154  43.285  0.00  0.00    -0.002 A 
HETATM   31  C   UNK N   1      31.647  52.758  43.156  0.00  0.00     0.017 A 
HETATM   32  C   UNK N   1      32.540  52.029  43.945  0.00  0.00     0.037 A 
HETATM   33  C   UNK N   1      33.385  52.692  44.847  0.00  0.00     0.065 A 
HETATM   34  C   UNK N   1      33.319  54.083  44.964  0.00  0.00     0.037 A 
HETATM   35  C   UNK N   1      32.403  54.812  44.201  0.00  0.00     0.017 A 
BRANCH  33  36
HETATM   36  O   UNK N   1      34.264  52.001  45.602  0.00  0.00    -0.361 OA
HETATM   37  H   UNK N   1      35.208  52.214  45.606  0.00  0.00     0.217 HD
ENDBRANCH  33  36
ENDBRANCH   4  30
TORSDOF 10
ENDMDL
