MODEL 1
REMARK VINA RESULT:      -5.5      0.000      0.000
REMARK  4 active torsions:
REMARK  status: ('A' for Active; 'I' for Inactive)
REMARK    1  A    between atoms: O_2  and  C_7 
REMARK    2  A    between atoms: O_3  and  C_8 
REMARK    3  A    between atoms: O_3  and  C_16 
REMARK    4  A    between atoms: C_14  and  C_21 
ROOT
HETATM    1  O   UNK N   1      29.885  47.613  59.142  0.00  0.00    -0.292 OA
HETATM    2  C   UNK N   1      27.648  42.166  58.184  0.00  0.00     0.145 C 
HETATM    3  C   UNK N   1      28.780  41.592  57.265  0.00  0.00     0.011 C 
HETATM    4  C   UNK N   1      30.384  43.598  58.074  0.00  0.00    -0.017 C 
HETATM    5  C   UNK N   1      29.738  42.790  56.861  0.00  0.00     0.013 C 
HETATM    6  C   UNK N   1      29.086  40.665  54.759  0.00  0.00    -0.012 C 
HETATM    7  C   UNK N   1      29.268  44.087  59.102  0.00  0.00     0.016 C 
HETATM    8  C   UNK N   1      28.007  40.396  53.650  0.00  0.00     0.040 C 
HETATM    9  C   UNK N   1      29.894  46.477  58.690  0.00  0.00     0.157 C 
HETATM   10  C   UNK N   1      28.220  40.980  55.955  0.00  0.00    -0.063 C 
HETATM   11  C   UNK N   1      28.231  42.948  59.408  0.00  0.00     0.040 C 
HETATM   12  C   UNK N   1      31.217  44.772  57.535  0.00  0.00    -0.013 C 
HETATM   13  C   UNK N   1      28.705  45.553  58.871  0.00  0.00     0.022 C 
HETATM   14  C   UNK N   1      30.766  42.328  55.763  0.00  0.00     0.008 C 
HETATM   15  C   UNK N   1      30.032  41.860  54.486  0.00  0.00     0.015 C 
HETATM   16  C   UNK N   1      26.791  39.885  54.451  0.00  0.00     0.038 C 
HETATM   17  C   UNK N   1      29.463  40.408  58.020  0.00  0.00     0.023 C 
HETATM   18  C   UNK N   1      31.444  42.769  58.855  0.00  0.00     0.020 C 
HETATM   19  C   UNK N   1      29.897  39.357  54.944  0.00  0.00     0.021 C 
HETATM   20  C   UNK N   1      31.013  46.056  57.846  0.00  0.00     0.048 C 
HETATM   21  C   UNK N   1      26.967  40.562  55.767  0.00  0.00    -0.022 C 
HETATM   22  C   UNK N   1      27.883  46.022  60.108  0.00  0.00     0.024 C 
HETATM   23  C   UNK N   1      27.820  45.760  57.638  0.00  0.00     0.024 C 
ENDROOT
BRANCH   8  24
HETATM   24  C   UNK N   1      27.639  41.645  52.846  0.00  0.00     0.024 A 
HETATM   25  C   UNK N   1      28.062  41.912  51.495  0.00  0.00     0.292 A 
HETATM   26  O   UNK N   1      27.554  43.077  51.063  0.00  0.00    -0.283 OA
HETATM   27  O   UNK N   1      28.776  41.194  50.816  0.00  0.00    -0.259 OA
HETATM   28  C   UNK N   1      26.781  43.664  52.058  0.00  0.00     0.291 A 
HETATM   29  C   UNK N   1      26.876  42.671  53.202  0.00  0.00     0.047 A 
BRANCH  28  30
HETATM   30  O   UNK N   1      25.449  43.782  51.638  0.00  0.00    -0.367 OA
HETATM   31  H   UNK N   1      25.477  43.935  50.658  0.00  0.00     0.213 HD
ENDBRANCH  28  30
ENDBRANCH   8  24
BRANCH   2  32
HETATM   32  O   UNK N   1      26.776  42.947  57.439  0.00  0.00    -0.315 OA
BRANCH  32  33
HETATM   33  C   UNK N   1      25.438  43.047  57.688  0.00  0.00     0.255 C 
HETATM   34  O   UNK N   1      24.801  44.017  57.302  0.00  0.00    -0.266 OA
HETATM   35  C   UNK N   1      24.740  41.960  58.454  0.00  0.00     0.126 C 
ENDBRANCH  32  33
ENDBRANCH   2  32
TORSDOF 4
ENDMDL
MODEL 2
REMARK VINA RESULT:      -5.2      3.522      7.202
REMARK  4 active torsions:
REMARK  status: ('A' for Active; 'I' for Inactive)
REMARK    1  A    between atoms: O_2  and  C_7 
REMARK    2  A    between atoms: O_3  and  C_8 
REMARK    3  A    between atoms: O_3  and  C_16 
REMARK    4  A    between atoms: C_14  and  C_21 
ROOT
HETATM    1  O   UNK N   1      29.716  33.726  56.777  0.00  0.00    -0.292 OA
HETATM    2  C   UNK N   1      26.641  38.835  56.569  0.00  0.00     0.145 C 
HETATM    3  C   UNK N   1      27.531  39.618  55.543  0.00  0.00     0.011 C 
HETATM    4  C   UNK N   1      28.679  37.287  54.837  0.00  0.00    -0.017 C 
HETATM    5  C   UNK N   1      28.868  38.793  55.325  0.00  0.00     0.013 C 
HETATM    6  C   UNK N   1      29.036  41.845  55.448  0.00  0.00    -0.012 C 
HETATM    7  C   UNK N   1      27.672  36.494  55.786  0.00  0.00     0.016 C 
HETATM    8  C   UNK N   1      29.230  42.972  56.524  0.00  0.00     0.040 C 
HETATM    9  C   UNK N   1      29.473  34.857  56.377  0.00  0.00     0.157 C 
HETATM   10  C   UNK N   1      27.931  41.022  56.064  0.00  0.00    -0.063 C 
HETATM   11  C   UNK N   1      26.402  37.354  56.122  0.00  0.00     0.040 C 
HETATM   12  C   UNK N   1      30.047  36.591  54.747  0.00  0.00    -0.013 C 
HETATM   13  C   UNK N   1      28.336  35.668  56.968  0.00  0.00     0.022 C 
HETATM   14  C   UNK N   1      29.900  39.628  54.481  0.00  0.00     0.008 C 
HETATM   15  C   UNK N   1      30.270  40.939  55.208  0.00  0.00     0.015 C 
HETATM   16  C   UNK N   1      27.836  43.087  57.176  0.00  0.00     0.038 C 
HETATM   17  C   UNK N   1      26.680  39.875  54.260  0.00  0.00     0.023 C 
HETATM   18  C   UNK N   1      28.159  37.187  53.374  0.00  0.00     0.020 C 
HETATM   19  C   UNK N   1      28.598  42.532  54.129  0.00  0.00     0.021 C 
HETATM   20  C   UNK N   1      30.381  35.481  55.414  0.00  0.00     0.048 C 
HETATM   21  C   UNK N   1      27.293  41.708  57.016  0.00  0.00    -0.022 C 
HETATM   22  C   UNK N   1      27.299  34.697  57.604  0.00  0.00     0.024 C 
HETATM   23  C   UNK N   1      28.949  36.482  58.111  0.00  0.00     0.024 C 
ENDROOT
BRANCH   8  24
HETATM   24  C   UNK N   1      30.291  42.635  57.573  0.00  0.00     0.024 A 
HETATM   25  C   UNK N   1      31.676  43.027  57.504  0.00  0.00     0.292 A 
HETATM   26  O   UNK N   1      32.342  42.597  58.587  0.00  0.00    -0.283 OA
HETATM   27  O   UNK N   1      32.191  43.665  56.603  0.00  0.00    -0.259 OA
HETATM   28  C   UNK N   1      31.487  41.903  59.435  0.00  0.00     0.291 A 
HETATM   29  C   UNK N   1      30.155  41.966  58.712  0.00  0.00     0.047 A 
BRANCH  28  30
HETATM   30  O   UNK N   1      31.390  42.553  60.672  0.00  0.00    -0.367 OA
HETATM   31  H   UNK N   1      30.438  42.811  60.779  0.00  0.00     0.213 HD
ENDBRANCH  28  30
ENDBRANCH   8  24
BRANCH   2  32
HETATM   32  O   UNK N   1      27.194  38.909  57.838  0.00  0.00    -0.315 OA
BRANCH  32  33
HETATM   33  C   UNK N   1      26.462  38.941  58.990  0.00  0.00     0.255 C 
HETATM   34  O   UNK N   1      26.956  38.595  60.054  0.00  0.00    -0.266 OA
HETATM   35  C   UNK N   1      25.032  39.396  58.950  0.00  0.00     0.126 C 
ENDBRANCH  32  33
ENDBRANCH   2  32
TORSDOF 4
ENDMDL
MODEL 3
REMARK VINA RESULT:      -5.1     17.855     21.381
REMARK  4 active torsions:
REMARK  status: ('A' for Active; 'I' for Inactive)
REMARK    1  A    between atoms: O_2  and  C_7 
REMARK    2  A    between atoms: O_3  and  C_8 
REMARK    3  A    between atoms: O_3  and  C_16 
REMARK    4  A    between atoms: C_14  and  C_21 
ROOT
HETATM    1  O   UNK N   1      44.504  49.259  60.996  0.00  0.00    -0.292 OA
HETATM    2  C   UNK N   1      45.581  54.374  63.873  0.00  0.00     0.145 C 
HETATM    3  C   UNK N   1      44.111  54.756  64.257  0.00  0.00     0.011 C 
HETATM    4  C   UNK N   1      43.367  52.224  63.722  0.00  0.00    -0.017 C 
HETATM    5  C   UNK N   1      43.131  53.782  63.477  0.00  0.00     0.013 C 
HETATM    6  C   UNK N   1      42.335  56.719  63.785  0.00  0.00    -0.012 C 
HETATM    7  C   UNK N   1      44.888  51.823  63.467  0.00  0.00     0.016 C 
HETATM    8  C   UNK N   1      42.520  58.077  63.018  0.00  0.00     0.040 C 
HETATM    9  C   UNK N   1      44.197  50.252  61.641  0.00  0.00     0.157 C 
HETATM   10  C   UNK N   1      43.753  56.206  63.842  0.00  0.00    -0.063 C 
HETATM   11  C   UNK N   1      45.873  52.856  64.120  0.00  0.00     0.040 C 
HETATM   12  C   UNK N   1      42.405  51.406  62.845  0.00  0.00    -0.013 C 
HETATM   13  C   UNK N   1      45.233  51.297  62.008  0.00  0.00     0.022 C 
HETATM   14  C   UNK N   1      41.639  54.251  63.643  0.00  0.00     0.008 C 
HETATM   15  C   UNK N   1      41.443  55.672  63.071  0.00  0.00     0.015 C 
HETATM   16  C   UNK N   1      43.960  58.497  63.379  0.00  0.00     0.038 C 
HETATM   17  C   UNK N   1      43.993  54.726  65.814  0.00  0.00     0.023 C 
HETATM   18  C   UNK N   1      42.973  51.772  65.158  0.00  0.00     0.020 C 
HETATM   19  C   UNK N   1      41.768  57.052  65.189  0.00  0.00     0.021 C 
HETATM   20  C   UNK N   1      42.786  50.498  61.940  0.00  0.00     0.048 C 
HETATM   21  C   UNK N   1      44.629  57.184  63.604  0.00  0.00    -0.022 C 
HETATM   22  C   UNK N   1      46.645  50.642  61.984  0.00  0.00     0.024 C 
HETATM   23  C   UNK N   1      45.201  52.336  60.882  0.00  0.00     0.024 C 
ENDROOT
BRANCH   8  24
HETATM   24  C   UNK N   1      42.358  57.946  61.502  0.00  0.00     0.024 A 
HETATM   25  C   UNK N   1      41.215  58.397  60.751  0.00  0.00     0.292 A 
HETATM   26  O   UNK N   1      41.387  58.159  59.441  0.00  0.00    -0.283 OA
HETATM   27  O   UNK N   1      40.222  58.929  61.215  0.00  0.00    -0.259 OA
HETATM   28  C   UNK N   1      42.615  57.546  59.220  0.00  0.00     0.291 A 
HETATM   29  C   UNK N   1      43.204  57.437  60.614  0.00  0.00     0.047 A 
BRANCH  28  30
HETATM   30  O   UNK N   1      43.430  58.356  58.419  0.00  0.00    -0.367 OA
HETATM   31  H   UNK N   1      43.207  58.136  57.478  0.00  0.00     0.213 HD
ENDBRANCH  28  30
ENDBRANCH   8  24
BRANCH   2  32
HETATM   32  O   UNK N   1      45.847  54.744  62.563  0.00  0.00    -0.315 OA
BRANCH  32  33
HETATM   33  C   UNK N   1      47.059  55.193  62.126  0.00  0.00     0.255 C 
HETATM   34  O   UNK N   1      47.974  55.388  62.914  0.00  0.00    -0.266 OA
HETATM   35  C   UNK N   1      47.270  55.463  60.664  0.00  0.00     0.126 C 
ENDBRANCH  32  33
ENDBRANCH   2  32
TORSDOF 4
ENDMDL
MODEL 4
REMARK VINA RESULT:      -5.1      2.249      4.090
REMARK  4 active torsions:
REMARK  status: ('A' for Active; 'I' for Inactive)
REMARK    1  A    between atoms: O_2  and  C_7 
REMARK    2  A    between atoms: O_3  and  C_8 
REMARK    3  A    between atoms: O_3  and  C_16 
REMARK    4  A    between atoms: C_14  and  C_21 
ROOT
HETATM    1  O   UNK N   1      26.040  49.983  57.099  0.00  0.00    -0.292 OA
HETATM    2  C   UNK N   1      27.876  45.043  59.895  0.00  0.00     0.145 C 
HETATM    3  C   UNK N   1      29.370  45.032  59.423  0.00  0.00     0.011 C 
HETATM    4  C   UNK N   1      29.101  47.606  58.679  0.00  0.00    -0.017 C 
HETATM    5  C   UNK N   1      29.532  46.123  58.283  0.00  0.00     0.013 C 
HETATM    6  C   UNK N   1      31.036  43.475  57.999  0.00  0.00    -0.012 C 
HETATM    7  C   UNK N   1      27.628  47.636  59.288  0.00  0.00     0.016 C 
HETATM    8  C   UNK N   1      30.802  42.045  57.393  0.00  0.00     0.040 C 
HETATM    9  C   UNK N   1      26.864  49.146  57.441  0.00  0.00     0.157 C 
HETATM   10  C   UNK N   1      29.786  43.665  58.822  0.00  0.00    -0.063 C 
HETATM   11  C   UNK N   1      27.410  46.475  60.322  0.00  0.00     0.040 C 
HETATM   12  C   UNK N   1      29.234  48.532  57.459  0.00  0.00    -0.013 C 
HETATM   13  C   UNK N   1      26.456  47.936  58.259  0.00  0.00     0.022 C 
HETATM   14  C   UNK N   1      30.949  46.012  57.611  0.00  0.00     0.008 C 
HETATM   15  C   UNK N   1      31.144  44.623  56.964  0.00  0.00     0.015 C 
HETATM   16  C   UNK N   1      29.913  41.352  58.447  0.00  0.00     0.038 C 
HETATM   17  C   UNK N   1      30.276  45.230  60.679  0.00  0.00     0.023 C 
HETATM   18  C   UNK N   1      30.070  48.263  59.702  0.00  0.00     0.020 C 
HETATM   19  C   UNK N   1      32.316  43.405  58.871  0.00  0.00     0.021 C 
HETATM   20  C   UNK N   1      28.233  49.247  56.933  0.00  0.00     0.048 C 
HETATM   21  C   UNK N   1      29.175  42.500  59.047  0.00  0.00    -0.022 C 
HETATM   22  C   UNK N   1      25.135  48.259  59.016  0.00  0.00     0.024 C 
HETATM   23  C   UNK N   1      26.136  46.832  57.247  0.00  0.00     0.024 C 
ENDROOT
BRANCH   8  24
HETATM   24  C   UNK N   1      30.107  42.069  56.030  0.00  0.00     0.024 A 
HETATM   25  C   UNK N   1      30.753  41.815  54.768  0.00  0.00     0.292 A 
HETATM   26  O   UNK N   1      29.868  41.889  53.761  0.00  0.00    -0.283 OA
HETATM   27  O   UNK N   1      31.935  41.561  54.611  0.00  0.00    -0.259 OA
HETATM   28  C   UNK N   1      28.604  42.191  54.252  0.00  0.00     0.291 A 
HETATM   29  C   UNK N   1      28.829  42.294  55.749  0.00  0.00     0.047 A 
BRANCH  28  30
HETATM   30  O   UNK N   1      27.708  41.150  53.975  0.00  0.00    -0.367 OA
HETATM   31  H   UNK N   1      27.008  41.188  54.677  0.00  0.00     0.213 HD
ENDBRANCH  28  30
ENDBRANCH   8  24
BRANCH   2  32
HETATM   32  O   UNK N   1      27.058  44.505  58.913  0.00  0.00    -0.315 OA
BRANCH  32  33
HETATM   33  C   UNK N   1      25.927  43.786  59.170  0.00  0.00     0.255 C 
HETATM   34  O   UNK N   1      25.046  43.684  58.327  0.00  0.00    -0.266 OA
HETATM   35  C   UNK N   1      25.755  43.121  60.505  0.00  0.00     0.126 C 
ENDBRANCH  32  33
ENDBRANCH   2  32
TORSDOF 4
ENDMDL
MODEL 5
REMARK VINA RESULT:      -4.9      2.345      7.049
REMARK  4 active torsions:
REMARK  status: ('A' for Active; 'I' for Inactive)
REMARK    1  A    between atoms: O_2  and  C_7 
REMARK    2  A    between atoms: O_3  and  C_8 
REMARK    3  A    between atoms: O_3  and  C_16 
REMARK    4  A    between atoms: C_14  and  C_21 
ROOT
HETATM    1  O   UNK N   1      27.416  40.456  53.909  0.00  0.00    -0.292 OA
HETATM    2  C   UNK N   1      30.213  42.206  58.880  0.00  0.00     0.145 C 
HETATM    3  C   UNK N   1      29.003  42.867  59.625  0.00  0.00     0.011 C 
HETATM    4  C   UNK N   1      27.335  41.599  57.935  0.00  0.00    -0.017 C 
HETATM    5  C   UNK N   1      27.795  42.972  58.602  0.00  0.00     0.013 C 
HETATM    6  C   UNK N   1      28.265  45.281  60.552  0.00  0.00    -0.012 C 
HETATM    7  C   UNK N   1      28.569  40.833  57.278  0.00  0.00     0.016 C 
HETATM    8  C   UNK N   1      29.077  46.623  60.616  0.00  0.00     0.040 C 
HETATM    9  C   UNK N   1      27.484  40.955  55.024  0.00  0.00     0.157 C 
HETATM   10  C   UNK N   1      29.327  44.303  60.112  0.00  0.00    -0.063 C 
HETATM   11  C   UNK N   1      29.819  40.839  58.228  0.00  0.00     0.040 C 
HETATM   12  C   UNK N   1      26.218  41.865  56.912  0.00  0.00    -0.013 C 
HETATM   13  C   UNK N   1      28.816  41.106  55.734  0.00  0.00     0.022 C 
HETATM   14  C   UNK N   1      26.625  43.825  59.215  0.00  0.00     0.008 C 
HETATM   15  C   UNK N   1      27.099  45.261  59.531  0.00  0.00     0.015 C 
HETATM   16  C   UNK N   1      30.515  46.156  60.925  0.00  0.00     0.038 C 
HETATM   17  C   UNK N   1      28.721  42.041  60.919  0.00  0.00     0.023 C 
HETATM   18  C   UNK N   1      26.640  40.640  58.943  0.00  0.00     0.020 C 
HETATM   19  C   UNK N   1      27.743  44.985  61.982  0.00  0.00     0.021 C 
HETATM   20  C   UNK N   1      26.280  41.539  55.616  0.00  0.00     0.048 C 
HETATM   21  C   UNK N   1      30.550  44.799  60.308  0.00  0.00    -0.022 C 
HETATM   22  C   UNK N   1      29.821  40.070  55.150  0.00  0.00     0.024 C 
HETATM   23  C   UNK N   1      29.337  42.497  55.360  0.00  0.00     0.024 C 
ENDROOT
BRANCH   8  24
HETATM   24  C   UNK N   1      29.036  47.421  59.311  0.00  0.00     0.024 A 
HETATM   25  C   UNK N   1      28.086  48.460  59.006  0.00  0.00     0.292 A 
HETATM   26  O   UNK N   1      28.329  48.981  57.794  0.00  0.00    -0.283 OA
HETATM   27  O   UNK N   1      27.184  48.836  59.735  0.00  0.00    -0.259 OA
HETATM   28  C   UNK N   1      29.420  48.350  57.208  0.00  0.00     0.291 A 
HETATM   29  C   UNK N   1      29.840  47.338  58.257  0.00  0.00     0.047 A 
BRANCH  28  30
HETATM   30  O   UNK N   1      30.456  49.268  56.988  0.00  0.00    -0.367 OA
HETATM   31  H   UNK N   1      30.040  50.069  56.577  0.00  0.00     0.213 HD
ENDBRANCH  28  30
ENDBRANCH   8  24
BRANCH   2  32
HETATM   32  O   UNK N   1      30.745  43.088  57.951  0.00  0.00    -0.315 OA
BRANCH  32  33
HETATM   33  C   UNK N   1      32.065  43.135  57.610  0.00  0.00     0.255 C 
HETATM   34  O   UNK N   1      32.407  43.416  56.470  0.00  0.00    -0.266 OA
HETATM   35  C   UNK N   1      33.111  42.826  58.643  0.00  0.00     0.126 C 
ENDBRANCH  32  33
ENDBRANCH   2  32
TORSDOF 4
ENDMDL
MODEL 6
REMARK VINA RESULT:      -4.8      2.840      5.065
REMARK  4 active torsions:
REMARK  status: ('A' for Active; 'I' for Inactive)
REMARK    1  A    between atoms: O_2  and  C_7 
REMARK    2  A    between atoms: O_3  and  C_8 
REMARK    3  A    between atoms: O_3  and  C_16 
REMARK    4  A    between atoms: C_14  and  C_21 
ROOT
HETATM    1  O   UNK N   1      30.252  41.189  62.941  0.00  0.00    -0.292 OA
HETATM    2  C   UNK N   1      29.566  43.444  57.461  0.00  0.00     0.145 C 
HETATM    3  C   UNK N   1      28.186  42.797  57.098  0.00  0.00     0.011 C 
HETATM    4  C   UNK N   1      27.815  42.245  59.707  0.00  0.00    -0.017 C 
HETATM    5  C   UNK N   1      27.847  41.712  58.205  0.00  0.00     0.013 C 
HETATM    6  C   UNK N   1      27.157  41.092  55.290  0.00  0.00    -0.012 C 
HETATM    7  C   UNK N   1      29.156  43.028  60.071  0.00  0.00     0.016 C 
HETATM    8  C   UNK N   1      27.831  40.434  54.034  0.00  0.00     0.040 C 
HETATM    9  C   UNK N   1      29.658  41.379  61.889  0.00  0.00     0.157 C 
HETATM   10  C   UNK N   1      28.220  42.070  55.729  0.00  0.00    -0.063 C 
HETATM   11  C   UNK N   1      29.579  44.009  58.921  0.00  0.00     0.040 C 
HETATM   12  C   UNK N   1      27.556  41.076  60.671  0.00  0.00    -0.013 C 
HETATM   13  C   UNK N   1      30.297  42.166  60.762  0.00  0.00     0.022 C 
HETATM   14  C   UNK N   1      26.587  40.870  57.785  0.00  0.00     0.008 C 
HETATM   15  C   UNK N   1      26.844  40.122  56.457  0.00  0.00     0.015 C 
HETATM   16  C   UNK N   1      28.767  41.544  53.508  0.00  0.00     0.038 C 
HETATM   17  C   UNK N   1      27.139  43.944  56.935  0.00  0.00     0.023 C 
HETATM   18  C   UNK N   1      26.606  43.183  59.990  0.00  0.00     0.020 C 
HETATM   19  C   UNK N   1      25.865  41.799  54.807  0.00  0.00     0.021 C 
HETATM   20  C   UNK N   1      28.371  40.718  61.669  0.00  0.00     0.048 C 
HETATM   21  C   UNK N   1      29.100  42.296  54.752  0.00  0.00    -0.022 C 
HETATM   22  C   UNK N   1      31.399  43.095  61.352  0.00  0.00     0.024 C 
HETATM   23  C   UNK N   1      31.006  41.136  59.877  0.00  0.00     0.024 C 
ENDROOT
BRANCH   8  24
HETATM   24  C   UNK N   1      28.625  39.168  54.363  0.00  0.00     0.024 A 
HETATM   25  C   UNK N   1      28.181  37.823  54.104  0.00  0.00     0.292 A 
HETATM   26  O   UNK N   1      29.113  36.936  54.487  0.00  0.00    -0.283 OA
HETATM   27  O   UNK N   1      27.115  37.509  53.602  0.00  0.00    -0.259 OA
HETATM   28  C   UNK N   1      30.215  37.595  55.018  0.00  0.00     0.291 A 
HETATM   29  C   UNK N   1      29.832  39.058  54.906  0.00  0.00     0.047 A 
BRANCH  28  30
HETATM   30  O   UNK N   1      31.357  37.339  54.248  0.00  0.00    -0.367 OA
HETATM   31  H   UNK N   1      31.482  36.355  54.249  0.00  0.00     0.213 HD
ENDBRANCH  28  30
ENDBRANCH   8  24
BRANCH   2  32
HETATM   32  O   UNK N   1      30.593  42.537  57.249  0.00  0.00    -0.315 OA
BRANCH  32  33
HETATM   33  C   UNK N   1      31.873  42.891  56.935  0.00  0.00     0.255 C 
HETATM   34  O   UNK N   1      32.232  42.969  55.769  0.00  0.00    -0.266 OA
HETATM   35  C   UNK N   1      32.856  43.177  58.034  0.00  0.00     0.126 C 
ENDBRANCH  32  33
ENDBRANCH   2  32
TORSDOF 4
ENDMDL
MODEL 7
REMARK VINA RESULT:      -4.8      3.251      6.475
REMARK  4 active torsions:
REMARK  status: ('A' for Active; 'I' for Inactive)
REMARK    1  A    between atoms: O_2  and  C_7 
REMARK    2  A    between atoms: O_3  and  C_8 
REMARK    3  A    between atoms: O_3  and  C_16 
REMARK    4  A    between atoms: C_14  and  C_21 
ROOT
HETATM    1  O   UNK N   1      24.549  35.164  58.324  0.00  0.00    -0.292 OA
HETATM    2  C   UNK N   1      29.408  38.215  56.688  0.00  0.00     0.145 C 
HETATM    3  C   UNK N   1      28.919  39.663  57.035  0.00  0.00     0.011 C 
HETATM    4  C   UNK N   1      26.949  38.588  58.521  0.00  0.00    -0.017 C 
HETATM    5  C   UNK N   1      27.368  39.593  57.356  0.00  0.00     0.013 C 
HETATM    6  C   UNK N   1      28.428  41.993  55.785  0.00  0.00    -0.012 C 
HETATM    7  C   UNK N   1      27.541  37.130  58.266  0.00  0.00     0.016 C 
HETATM    8  C   UNK N   1      28.683  42.404  54.291  0.00  0.00     0.040 C 
HETATM    9  C   UNK N   1      25.228  36.172  58.184  0.00  0.00     0.157 C 
HETATM   10  C   UNK N   1      29.105  40.645  55.849  0.00  0.00    -0.063 C 
HETATM   11  C   UNK N   1      29.044  37.191  57.814  0.00  0.00     0.040 C 
HETATM   12  C   UNK N   1      25.418  38.564  58.665  0.00  0.00    -0.013 C 
HETATM   13  C   UNK N   1      26.585  36.113  57.510  0.00  0.00     0.022 C 
HETATM   14  C   UNK N   1      26.767  41.040  57.496  0.00  0.00     0.008 C 
HETATM   15  C   UNK N   1      26.939  41.835  56.182  0.00  0.00     0.015 C 
HETATM   16  C   UNK N   1      29.998  41.675  53.939  0.00  0.00     0.038 C 
HETATM   17  C   UNK N   1      29.821  40.217  58.182  0.00  0.00     0.023 C 
HETATM   18  C   UNK N   1      27.408  39.067  59.927  0.00  0.00     0.020 C 
HETATM   19  C   UNK N   1      29.124  43.049  56.682  0.00  0.00     0.021 C 
HETATM   20  C   UNK N   1      24.659  37.470  58.549  0.00  0.00     0.048 C 
HETATM   21  C   UNK N   1      29.948  40.480  54.828  0.00  0.00    -0.022 C 
HETATM   22  C   UNK N   1      27.140  34.662  57.614  0.00  0.00     0.024 C 
HETATM   23  C   UNK N   1      26.330  36.390  56.025  0.00  0.00     0.024 C 
ENDROOT
BRANCH   8  24
HETATM   24  C   UNK N   1      27.560  41.979  53.343  0.00  0.00     0.024 A 
HETATM   25  C   UNK N   1      26.446  42.807  52.958  0.00  0.00     0.292 A 
HETATM   26  O   UNK N   1      25.648  42.154  52.099  0.00  0.00    -0.283 OA
HETATM   27  O   UNK N   1      26.240  43.946  53.339  0.00  0.00    -0.259 OA
HETATM   28  C   UNK N   1      26.144  40.879  51.853  0.00  0.00     0.291 A 
HETATM   29  C   UNK N   1      27.402  40.828  52.699  0.00  0.00     0.047 A 
BRANCH  28  30
HETATM   30  O   UNK N   1      26.473  40.734  50.499  0.00  0.00    -0.367 OA
HETATM   31  H   UNK N   1      25.766  41.206  49.986  0.00  0.00     0.213 HD
ENDBRANCH  28  30
ENDBRANCH   8  24
BRANCH   2  32
HETATM   32  O   UNK N   1      28.911  37.824  55.453  0.00  0.00    -0.315 OA
BRANCH  32  33
HETATM   33  C   UNK N   1      29.564  36.985  54.597  0.00  0.00     0.255 C 
HETATM   34  O   UNK N   1      29.107  36.742  53.489  0.00  0.00    -0.266 OA
HETATM   35  C   UNK N   1      30.854  36.344  55.023  0.00  0.00     0.126 C 
ENDBRANCH  32  33
ENDBRANCH   2  32
TORSDOF 4
ENDMDL
MODEL 8
REMARK VINA RESULT:      -4.6     19.269     23.254
REMARK  4 active torsions:
REMARK  status: ('A' for Active; 'I' for Inactive)
REMARK    1  A    between atoms: O_2  and  C_7 
REMARK    2  A    between atoms: O_3  and  C_8 
REMARK    3  A    between atoms: O_3  and  C_16 
REMARK    4  A    between atoms: C_14  and  C_21 
ROOT
HETATM    1  O   UNK N   1      49.212  55.721  55.869  0.00  0.00    -0.292 OA
HETATM    2  C   UNK N   1      49.801  54.085  61.576  0.00  0.00     0.145 C 
HETATM    3  C   UNK N   1      50.083  52.558  61.368  0.00  0.00     0.011 C 
HETATM    4  C   UNK N   1      50.620  53.061  58.778  0.00  0.00    -0.017 C 
HETATM    5  C   UNK N   1      49.798  52.210  59.847  0.00  0.00     0.013 C 
HETATM    6  C   UNK N   1      48.976  50.187  61.989  0.00  0.00    -0.012 C 
HETATM    7  C   UNK N   1      50.461  54.626  59.041  0.00  0.00     0.016 C 
HETATM    8  C   UNK N   1      47.731  49.866  62.891  0.00  0.00     0.040 C 
HETATM    9  C   UNK N   1      49.433  54.932  56.778  0.00  0.00     0.157 C 
HETATM   10  C   UNK N   1      49.154  51.666  62.232  0.00  0.00    -0.063 C 
HETATM   11  C   UNK N   1      50.606  54.969  60.567  0.00  0.00     0.040 C 
HETATM   12  C   UNK N   1      50.184  52.674  57.356  0.00  0.00    -0.013 C 
HETATM   13  C   UNK N   1      49.308  55.354  58.229  0.00  0.00     0.022 C 
HETATM   14  C   UNK N   1      49.847  50.654  59.619  0.00  0.00     0.008 C 
HETATM   15  C   UNK N   1      48.775  49.940  60.473  0.00  0.00     0.015 C 
HETATM   16  C   UNK N   1      47.822  50.921  64.015  0.00  0.00     0.038 C 
HETATM   17  C   UNK N   1      51.531  52.259  61.869  0.00  0.00     0.023 C 
HETATM   18  C   UNK N   1      52.136  52.715  58.767  0.00  0.00     0.020 C 
HETATM   19  C   UNK N   1      50.166  49.351  62.526  0.00  0.00     0.021 C 
HETATM   20  C   UNK N   1      49.687  53.527  56.453  0.00  0.00     0.048 C 
HETATM   21  C   UNK N   1      48.507  52.056  63.332  0.00  0.00    -0.022 C 
HETATM   22  C   UNK N   1      49.468  56.900  58.322  0.00  0.00     0.024 C 
HETATM   23  C   UNK N   1      47.869  55.025  58.640  0.00  0.00     0.024 C 
ENDROOT
BRANCH   8  24
HETATM   24  C   UNK N   1      46.397  49.980  62.150  0.00  0.00     0.024 A 
HETATM   25  C   UNK N   1      45.746  48.902  61.450  0.00  0.00     0.292 A 
HETATM   26  O   UNK N   1      44.582  49.317  60.924  0.00  0.00    -0.283 OA
HETATM   27  O   UNK N   1      46.168  47.764  61.343  0.00  0.00    -0.259 OA
HETATM   28  C   UNK N   1      44.373  50.659  61.216  0.00  0.00     0.291 A 
HETATM   29  C   UNK N   1      45.600  51.034  62.025  0.00  0.00     0.047 A 
BRANCH  28  30
HETATM   30  O   UNK N   1      43.220  50.817  61.997  0.00  0.00    -0.367 OA
HETATM   31  H   UNK N   1      42.571  50.135  61.681  0.00  0.00     0.213 HD
ENDBRANCH  28  30
ENDBRANCH   8  24
BRANCH   2  32
HETATM   32  O   UNK N   1      48.439  54.335  61.511  0.00  0.00    -0.315 OA
BRANCH  32  33
HETATM   33  C   UNK N   1      47.807  55.315  62.219  0.00  0.00     0.255 C 
HETATM   34  O   UNK N   1      46.767  55.812  61.809  0.00  0.00    -0.266 OA
HETATM   35  C   UNK N   1      48.399  55.799  63.512  0.00  0.00     0.126 C 
ENDBRANCH  32  33
ENDBRANCH   2  32
TORSDOF 4
ENDMDL
MODEL 9
REMARK VINA RESULT:      -4.6      4.358      7.619
REMARK  4 active torsions:
REMARK  status: ('A' for Active; 'I' for Inactive)
REMARK    1  A    between atoms: O_2  and  C_7 
REMARK    2  A    between atoms: O_3  and  C_8 
REMARK    3  A    between atoms: O_3  and  C_16 
REMARK    4  A    between atoms: C_14  and  C_21 
ROOT
HETATM    1  O   UNK N   1      34.089  41.151  59.861  0.00  0.00    -0.292 OA
HETATM    2  C   UNK N   1      28.450  43.097  59.795  0.00  0.00     0.145 C 
HETATM    3  C   UNK N   1      28.631  44.349  58.870  0.00  0.00     0.011 C 
HETATM    4  C   UNK N   1      31.011  43.364  58.087  0.00  0.00    -0.017 C 
HETATM    5  C   UNK N   1      30.186  44.594  58.675  0.00  0.00     0.013 C 
HETATM    6  C   UNK N   1      28.351  47.021  58.993  0.00  0.00    -0.012 C 
HETATM    7  C   UNK N   1      30.747  42.035  58.929  0.00  0.00     0.016 C 
HETATM    8  C   UNK N   1      27.771  47.917  60.145  0.00  0.00     0.040 C 
HETATM    9  C   UNK N   1      33.177  41.891  59.518  0.00  0.00     0.157 C 
HETATM   10  C   UNK N   1      28.032  45.634  59.496  0.00  0.00    -0.063 C 
HETATM   11  C   UNK N   1      29.220  41.851  59.246  0.00  0.00     0.040 C 
HETATM   12  C   UNK N   1      32.506  43.716  58.030  0.00  0.00    -0.013 C 
HETATM   13  C   UNK N   1      31.783  41.733  60.093  0.00  0.00     0.022 C 
HETATM   14  C   UNK N   1      30.442  45.962  57.942  0.00  0.00     0.008 C 
HETATM   15  C   UNK N   1      29.879  47.141  58.767  0.00  0.00     0.015 C 
HETATM   16  C   UNK N   1      26.627  47.058  60.724  0.00  0.00     0.038 C 
HETATM   17  C   UNK N   1      27.818  44.105  57.559  0.00  0.00     0.023 C 
HETATM   18  C   UNK N   1      30.682  43.074  56.594  0.00  0.00     0.020 C 
HETATM   19  C   UNK N   1      27.578  47.373  57.696  0.00  0.00     0.021 C 
HETATM   20  C   UNK N   1      33.474  43.028  58.646  0.00  0.00     0.048 C 
HETATM   21  C   UNK N   1      27.100  45.671  60.451  0.00  0.00    -0.022 C 
HETATM   22  C   UNK N   1      31.611  40.275  60.611  0.00  0.00     0.024 C 
HETATM   23  C   UNK N   1      31.726  42.654  61.316  0.00  0.00     0.024 C 
ENDROOT
BRANCH   8  24
HETATM   24  C   UNK N   1      28.797  48.254  61.228  0.00  0.00     0.024 A 
HETATM   25  C   UNK N   1      29.372  49.557  61.447  0.00  0.00     0.292 A 
HETATM   26  O   UNK N   1      30.221  49.530  62.486  0.00  0.00    -0.283 OA
HETATM   27  O   UNK N   1      29.131  50.559  60.797  0.00  0.00    -0.259 OA
HETATM   28  C   UNK N   1      30.284  48.250  63.024  0.00  0.00     0.291 A 
HETATM   29  C   UNK N   1      29.324  47.461  62.154  0.00  0.00     0.047 A 
BRANCH  28  30
HETATM   30  O   UNK N   1      29.833  48.253  64.351  0.00  0.00    -0.367 OA
HETATM   31  H   UNK N   1      30.624  48.451  64.916  0.00  0.00     0.213 HD
ENDBRANCH  28  30
ENDBRANCH   8  24
BRANCH   2  32
HETATM   32  O   UNK N   1      28.822  43.403  61.095  0.00  0.00    -0.315 OA
BRANCH  32  33
HETATM   33  C   UNK N   1      28.177  42.938  62.204  0.00  0.00     0.255 C 
HETATM   34  O   UNK N   1      27.363  42.029  62.119  0.00  0.00    -0.266 OA
HETATM   35  C   UNK N   1      28.460  43.556  63.543  0.00  0.00     0.126 C 
ENDBRANCH  32  33
ENDBRANCH   2  32
TORSDOF 4
ENDMDL
