MODEL 1
REMARK VINA RESULT:      -7.5      0.000      0.000
REMARK  1 active torsions:
REMARK  status: ('A' for Active; 'I' for Inactive)
REMARK    1  A    between atoms: O_2  and  C_10 
ROOT
HETATM    1  O   UNK N   1      42.868  45.710  52.767  0.00  0.00    -0.268 OA
HETATM    2  N   UNK N   1      41.316  45.023  51.266  0.00  0.00    -0.317 N 
HETATM    3  N   UNK N   1      41.624  43.644  48.418  0.00  0.00     0.094 N 
HETATM    4  C   UNK N   1      41.957  44.946  52.495  0.00  0.00     0.247 A 
HETATM    5  C   UNK N   1      40.283  44.157  50.974  0.00  0.00     0.020 A 
HETATM    6  C   UNK N   1      41.567  43.993  53.438  0.00  0.00     0.074 A 
HETATM    7  C   UNK N   1      39.878  43.201  51.920  0.00  0.00     0.026 A 
HETATM    8  C   UNK N   1      40.522  43.124  53.151  0.00  0.00     0.007 A 
HETATM    9  C   UNK N   1      42.102  44.284  45.575  0.00  0.00     0.122 C 
HETATM   10  C   UNK N   1      39.551  44.230  49.651  0.00  0.00     0.065 C 
HETATM   11  C   UNK N   1      41.784  45.049  47.967  0.00  0.00     0.231 C 
HETATM   12  C   UNK N   1      41.062  46.039  48.929  0.00  0.00     0.038 C 
HETATM   13  C   UNK N   1      41.727  46.093  50.325  0.00  0.00     0.139 C 
HETATM   14  C   UNK N   1      40.211  43.263  48.650  0.00  0.00     0.283 C 
HETATM   15  C   UNK N   1      42.339  42.702  47.526  0.00  0.00     0.275 C 
HETATM   16  C   UNK N   1      41.329  45.233  46.495  0.00  0.00     0.068 C 
HETATM   17  C   UNK N   1      41.905  42.838  46.055  0.00  0.00     0.062 C 
HETATM   18  C   UNK N   1      39.589  45.661  49.101  0.00  0.00     0.021 C 
ENDROOT
BRANCH   9  19
HETATM   19  O   UNK N   1      41.631  44.438  44.261  0.00  0.00    -0.395 OA
HETATM   20  H   UNK N   1      41.433  45.402  44.132  0.00  0.00     0.210 HD
ENDBRANCH   9  19
TORSDOF 1
ENDMDL
MODEL 2
REMARK VINA RESULT:      -5.6     15.539     17.236
REMARK  1 active torsions:
REMARK  status: ('A' for Active; 'I' for Inactive)
REMARK    1  A    between atoms: O_2  and  C_10 
ROOT
HETATM    1  O   UNK N   1      32.040  51.694  43.620  0.00  0.00    -0.268 OA
HETATM    2  N   UNK N   1      31.121  53.153  42.151  0.00  0.00    -0.317 N 
HETATM    3  N   UNK N   1      28.221  53.268  40.851  0.00  0.00     0.094 N 
HETATM    4  C   UNK N   1      31.654  52.828  43.391  0.00  0.00     0.247 A 
HETATM    5  C   UNK N   1      30.695  54.441  41.902  0.00  0.00     0.020 A 
HETATM    6  C   UNK N   1      31.758  53.796  44.392  0.00  0.00     0.074 A 
HETATM    7  C   UNK N   1      30.803  55.423  42.901  0.00  0.00     0.026 A 
HETATM    8  C   UNK N   1      31.337  55.096  44.143  0.00  0.00     0.007 A 
HETATM    9  C   UNK N   1      26.635  52.144  38.628  0.00  0.00     0.122 C 
HETATM   10  C   UNK N   1      30.127  54.831  40.554  0.00  0.00     0.065 C 
HETATM   11  C   UNK N   1      28.823  52.310  39.889  0.00  0.00     0.231 C 
HETATM   12  C   UNK N   1      30.367  52.499  39.793  0.00  0.00     0.038 C 
HETATM   13  C   UNK N   1      31.090  52.105  41.103  0.00  0.00     0.139 C 
HETATM   14  C   UNK N   1      28.594  54.677  40.582  0.00  0.00     0.283 C 
HETATM   15  C   UNK N   1      26.759  53.070  40.973  0.00  0.00     0.275 C 
HETATM   16  C   UNK N   1      28.141  52.391  38.498  0.00  0.00     0.068 C 
HETATM   17  C   UNK N   1      26.037  53.159  39.615  0.00  0.00     0.062 C 
HETATM   18  C   UNK N   1      30.723  53.947  39.451  0.00  0.00     0.021 C 
ENDROOT
BRANCH   9  19
HETATM   19  O   UNK N   1      26.040  52.274  37.363  0.00  0.00    -0.395 OA
HETATM   20  H   UNK N   1      25.990  51.365  36.968  0.00  0.00     0.210 HD
ENDBRANCH   9  19
TORSDOF 1
ENDMDL
MODEL 3
REMARK VINA RESULT:      -5.6     14.738     16.152
REMARK  1 active torsions:
REMARK  status: ('A' for Active; 'I' for Inactive)
REMARK    1  A    between atoms: O_2  and  C_10 
ROOT
HETATM    1  O   UNK N   1      46.031  59.088  46.357  0.00  0.00    -0.268 OA
HETATM    2  N   UNK N   1      48.098  58.191  46.123  0.00  0.00    -0.317 N 
HETATM    3  N   UNK N   1      49.637  57.119  43.555  0.00  0.00     0.094 N 
HETATM    4  C   UNK N   1      47.239  59.243  46.414  0.00  0.00     0.247 A 
HETATM    5  C   UNK N   1      49.463  58.378  46.198  0.00  0.00     0.020 A 
HETATM    6  C   UNK N   1      47.747  60.491  46.778  0.00  0.00     0.074 A 
HETATM    7  C   UNK N   1      49.982  59.629  46.571  0.00  0.00     0.026 A 
HETATM    8  C   UNK N   1      49.120  60.681  46.862  0.00  0.00     0.007 A 
HETATM    9  C   UNK N   1      49.898  54.727  41.844  0.00  0.00     0.122 C 
HETATM   10  C   UNK N   1      50.424  57.246  45.907  0.00  0.00     0.065 C 
HETATM   11  C   UNK N   1      48.873  55.881  43.851  0.00  0.00     0.231 C 
HETATM   12  C   UNK N   1      48.517  55.782  45.364  0.00  0.00     0.038 C 
HETATM   13  C   UNK N   1      47.508  56.870  45.803  0.00  0.00     0.139 C 
HETATM   14  C   UNK N   1      50.828  57.291  44.420  0.00  0.00     0.283 C 
HETATM   15  C   UNK N   1      49.948  57.236  42.112  0.00  0.00     0.275 C 
HETATM   16  C   UNK N   1      49.617  54.616  43.346  0.00  0.00     0.068 C 
HETATM   17  C   UNK N   1      50.702  56.008  41.571  0.00  0.00     0.062 C 
HETATM   18  C   UNK N   1      49.772  55.897  46.232  0.00  0.00     0.021 C 
ENDROOT
BRANCH   9  19
HETATM   19  O   UNK N   1      50.615  53.593  41.429  0.00  0.00    -0.395 OA
HETATM   20  H   UNK N   1      50.561  52.928  42.163  0.00  0.00     0.210 HD
ENDBRANCH   9  19
TORSDOF 1
ENDMDL
MODEL 4
REMARK VINA RESULT:      -5.4     14.514     16.044
REMARK  1 active torsions:
REMARK  status: ('A' for Active; 'I' for Inactive)
REMARK    1  A    between atoms: O_2  and  C_10 
ROOT
HETATM    1  O   UNK N   1      46.918  55.462  45.985  0.00  0.00    -0.268 OA
HETATM    2  N   UNK N   1      48.603  56.310  44.730  0.00  0.00    -0.317 N 
HETATM    3  N   UNK N   1      48.948  56.559  41.579  0.00  0.00     0.094 N 
HETATM    4  C   UNK N   1      47.563  56.438  45.641  0.00  0.00     0.247 A 
HETATM    5  C   UNK N   1      49.330  57.421  44.356  0.00  0.00     0.020 A 
HETATM    6  C   UNK N   1      47.243  57.686  46.179  0.00  0.00     0.074 A 
HETATM    7  C   UNK N   1      49.020  58.680  44.897  0.00  0.00     0.026 A 
HETATM    8  C   UNK N   1      47.977  58.806  45.809  0.00  0.00     0.007 A 
HETATM    9  C   UNK N   1      49.797  55.009  39.214  0.00  0.00     0.122 C 
HETATM   10  C   UNK N   1      50.482  57.310  43.381  0.00  0.00     0.065 C 
HETATM   11  C   UNK N   1      49.432  55.162  41.714  0.00  0.00     0.231 C 
HETATM   12  C   UNK N   1      50.023  54.901  43.131  0.00  0.00     0.038 C 
HETATM   13  C   UNK N   1      48.943  54.953  44.238  0.00  0.00     0.139 C 
HETATM   14  C   UNK N   1      49.967  57.569  41.952  0.00  0.00     0.283 C 
HETATM   15  C   UNK N   1      48.352  56.803  40.246  0.00  0.00     0.275 C 
HETATM   16  C   UNK N   1      50.435  54.794  40.589  0.00  0.00     0.068 C 
HETATM   17  C   UNK N   1      49.321  56.466  39.097  0.00  0.00     0.062 C 
HETATM   18  C   UNK N   1      51.118  55.917  43.465  0.00  0.00     0.021 C 
ENDROOT
BRANCH   9  19
HETATM   19  O   UNK N   1      50.745  54.717  38.220  0.00  0.00    -0.395 OA
HETATM   20  H   UNK N   1      51.349  54.021  38.587  0.00  0.00     0.210 HD
ENDBRANCH   9  19
TORSDOF 1
ENDMDL
MODEL 5
REMARK VINA RESULT:      -5.0     14.360     15.884
REMARK  1 active torsions:
REMARK  status: ('A' for Active; 'I' for Inactive)
REMARK    1  A    between atoms: O_2  and  C_10 
ROOT
HETATM    1  O   UNK N   1      33.287  47.180  64.052  0.00  0.00    -0.268 OA
HETATM    2  N   UNK N   1      35.351  46.660  63.277  0.00  0.00    -0.317 N 
HETATM    3  N   UNK N   1      38.107  46.209  64.799  0.00  0.00     0.094 N 
HETATM    4  C   UNK N   1      34.015  46.365  63.510  0.00  0.00     0.247 A 
HETATM    5  C   UNK N   1      36.162  45.732  62.656  0.00  0.00     0.020 A 
HETATM    6  C   UNK N   1      33.484  45.133  63.124  0.00  0.00     0.074 A 
HETATM    7  C   UNK N   1      35.635  44.492  62.258  0.00  0.00     0.026 A 
HETATM    8  C   UNK N   1      34.295  44.198  62.493  0.00  0.00     0.007 A 
HETATM    9  C   UNK N   1      40.398  47.692  65.927  0.00  0.00     0.122 C 
HETATM   10  C   UNK N   1      37.618  46.032  62.371  0.00  0.00     0.065 C 
HETATM   11  C   UNK N   1      38.183  47.689  64.702  0.00  0.00     0.231 C 
HETATM   12  C   UNK N   1      37.373  48.219  63.481  0.00  0.00     0.038 C 
HETATM   13  C   UNK N   1      35.849  48.006  63.649  0.00  0.00     0.139 C 
HETATM   14  C   UNK N   1      38.482  45.521  63.541  0.00  0.00     0.283 C 
HETATM   15  C   UNK N   1      38.845  45.703  65.978  0.00  0.00     0.275 C 
HETATM   16  C   UNK N   1      39.652  48.186  64.684  0.00  0.00     0.068 C 
HETATM   17  C   UNK N   1      40.316  46.159  65.992  0.00  0.00     0.062 C 
HETATM   18  C   UNK N   1      37.824  47.540  62.186  0.00  0.00     0.021 C 
ENDROOT
BRANCH   9  19
HETATM   19  O   UNK N   1      41.735  48.114  65.855  0.00  0.00    -0.395 OA
HETATM   20  H   UNK N   1      41.812  48.709  65.065  0.00  0.00     0.210 HD
ENDBRANCH   9  19
TORSDOF 1
ENDMDL
MODEL 6
REMARK VINA RESULT:      -5.0     17.535     19.260
REMARK  1 active torsions:
REMARK  status: ('A' for Active; 'I' for Inactive)
REMARK    1  A    between atoms: O_2  and  C_10 
ROOT
HETATM    1  O   UNK N   1      29.498  57.656  41.134  0.00  0.00    -0.268 OA
HETATM    2  N   UNK N   1      29.667  55.875  39.744  0.00  0.00    -0.317 N 
HETATM    3  N   UNK N   1      27.706  53.425  39.232  0.00  0.00     0.094 N 
HETATM    4  C   UNK N   1      29.533  57.234  39.990  0.00  0.00     0.247 A 
HETATM    5  C   UNK N   1      29.713  55.412  38.445  0.00  0.00     0.020 A 
HETATM    6  C   UNK N   1      29.441  58.139  38.930  0.00  0.00     0.074 A 
HETATM    7  C   UNK N   1      29.628  56.316  37.373  0.00  0.00     0.026 A 
HETATM    8  C   UNK N   1      29.494  57.678  37.621  0.00  0.00     0.007 A 
HETATM    9  C   UNK N   1      26.977  50.777  40.318  0.00  0.00     0.122 C 
HETATM   10  C   UNK N   1      29.878  53.937  38.146  0.00  0.00     0.065 C 
HETATM   11  C   UNK N   1      28.402  52.867  40.419  0.00  0.00     0.231 C 
HETATM   12  C   UNK N   1      29.838  53.454  40.562  0.00  0.00     0.038 C 
HETATM   13  C   UNK N   1      29.824  54.964  40.903  0.00  0.00     0.139 C 
HETATM   14  C   UNK N   1      28.488  53.293  37.981  0.00  0.00     0.283 C 
HETATM   15  C   UNK N   1      26.328  52.897  39.112  0.00  0.00     0.275 C 
HETATM   16  C   UNK N   1      28.409  51.315  40.402  0.00  0.00     0.068 C 
HETATM   17  C   UNK N   1      26.288  51.357  39.073  0.00  0.00     0.062 C 
HETATM   18  C   UNK N   1      30.646  53.247  39.279  0.00  0.00     0.021 C 
ENDROOT
BRANCH   9  19
HETATM   19  O   UNK N   1      27.020  49.375  40.252  0.00  0.00    -0.395 OA
HETATM   20  H   UNK N   1      27.303  49.048  41.146  0.00  0.00     0.210 HD
ENDBRANCH   9  19
TORSDOF 1
ENDMDL
MODEL 7
REMARK VINA RESULT:      -4.9      3.968      6.400
REMARK  1 active torsions:
REMARK  status: ('A' for Active; 'I' for Inactive)
REMARK    1  A    between atoms: O_2  and  C_10 
ROOT
HETATM    1  O   UNK N   1      37.532  48.243  43.997  0.00  0.00    -0.268 OA
HETATM    2  N   UNK N   1      39.336  47.858  45.311  0.00  0.00    -0.317 N 
HETATM    3  N   UNK N   1      41.496  45.524  45.273  0.00  0.00     0.094 N 
HETATM    4  C   UNK N   1      38.639  48.597  44.366  0.00  0.00     0.247 A 
HETATM    5  C   UNK N   1      40.585  48.275  45.725  0.00  0.00     0.020 A 
HETATM    6  C   UNK N   1      39.194  49.759  43.826  0.00  0.00     0.074 A 
HETATM    7  C   UNK N   1      41.148  49.446  45.192  0.00  0.00     0.026 A 
HETATM    8  C   UNK N   1      40.448  50.186  44.244  0.00  0.00     0.007 A 
HETATM    9  C   UNK N   1      41.932  42.759  46.211  0.00  0.00     0.122 C 
HETATM   10  C   UNK N   1      41.362  47.501  46.769  0.00  0.00     0.065 C 
HETATM   11  C   UNK N   1      40.465  44.816  46.073  0.00  0.00     0.231 C 
HETATM   12  C   UNK N   1      39.560  45.821  46.847  0.00  0.00     0.038 C 
HETATM   13  C   UNK N   1      38.677  46.668  45.899  0.00  0.00     0.139 C 
HETATM   14  C   UNK N   1      42.290  46.490  46.067  0.00  0.00     0.283 C 
HETATM   15  C   UNK N   1      42.336  44.575  44.507  0.00  0.00     0.275 C 
HETATM   16  C   UNK N   1      41.098  43.760  47.016  0.00  0.00     0.068 C 
HETATM   17  C   UNK N   1      43.000  43.517  45.407  0.00  0.00     0.062 C 
HETATM   18  C   UNK N   1      40.400  46.765  47.709  0.00  0.00     0.021 C 
ENDROOT
BRANCH   9  19
HETATM   19  O   UNK N   1      42.532  41.849  47.097  0.00  0.00    -0.395 OA
HETATM   20  H   UNK N   1      43.513  41.979  47.030  0.00  0.00     0.210 HD
ENDBRANCH   9  19
TORSDOF 1
ENDMDL
MODEL 8
REMARK VINA RESULT:      -4.9     12.596     13.959
REMARK  1 active torsions:
REMARK  status: ('A' for Active; 'I' for Inactive)
REMARK    1  A    between atoms: O_2  and  C_10 
ROOT
HETATM    1  O   UNK N   1      28.588  43.360  58.480  0.00  0.00    -0.268 OA
HETATM    2  N   UNK N   1      29.393  42.300  56.647  0.00  0.00    -0.317 N 
HETATM    3  N   UNK N   1      28.539  42.465  53.589  0.00  0.00     0.094 N 
HETATM    4  C   UNK N   1      29.515  43.190  57.705  0.00  0.00     0.247 A 
HETATM    5  C   UNK N   1      30.452  42.111  55.783  0.00  0.00     0.020 A 
HETATM    6  C   UNK N   1      30.701  43.900  57.901  0.00  0.00     0.074 A 
HETATM    7  C   UNK N   1      31.652  42.816  55.975  0.00  0.00     0.026 A 
HETATM    8  C   UNK N   1      31.772  43.708  57.036  0.00  0.00     0.007 A 
HETATM    9  C   UNK N   1      26.573  41.376  51.673  0.00  0.00     0.122 C 
HETATM   10  C   UNK N   1      30.357  41.134  54.631  0.00  0.00     0.065 C 
HETATM   11  C   UNK N   1      27.527  41.465  54.016  0.00  0.00     0.231 C 
HETATM   12  C   UNK N   1      28.020  40.652  55.250  0.00  0.00     0.038 C 
HETATM   13  C   UNK N   1      28.136  41.525  56.522  0.00  0.00     0.139 C 
HETATM   14  C   UNK N   1      29.882  41.878  53.368  0.00  0.00     0.283 C 
HETATM   15  C   UNK N   1      28.060  43.265  52.438  0.00  0.00     0.275 C 
HETATM   16  C   UNK N   1      27.104  40.542  52.843  0.00  0.00     0.068 C 
HETATM   17  C   UNK N   1      27.646  42.389  51.242  0.00  0.00     0.062 C 
HETATM   18  C   UNK N   1      29.378  40.004  54.973  0.00  0.00     0.021 C 
ENDROOT
BRANCH   9  19
HETATM   19  O   UNK N   1      26.248  40.517  50.611  0.00  0.00    -0.395 OA
HETATM   20  H   UNK N   1      26.969  40.601  49.935  0.00  0.00     0.210 HD
ENDBRANCH   9  19
TORSDOF 1
ENDMDL
MODEL 9
REMARK VINA RESULT:      -4.8     15.035     16.546
REMARK  1 active torsions:
REMARK  status: ('A' for Active; 'I' for Inactive)
REMARK    1  A    between atoms: O_2  and  C_10 
ROOT
HETATM    1  O   UNK N   1      33.827  55.354  44.563  0.00  0.00    -0.268 OA
HETATM    2  N   UNK N   1      31.986  54.568  43.502  0.00  0.00    -0.317 N 
HETATM    3  N   UNK N   1      31.036  54.836  40.480  0.00  0.00     0.094 N 
HETATM    4  C   UNK N   1      33.193  54.391  44.164  0.00  0.00     0.247 A 
HETATM    5  C   UNK N   1      31.276  53.469  43.063  0.00  0.00     0.020 A 
HETATM    6  C   UNK N   1      33.698  53.108  44.386  0.00  0.00     0.074 A 
HETATM    7  C   UNK N   1      31.773  52.174  43.288  0.00  0.00     0.026 A 
HETATM    8  C   UNK N   1      32.983  51.999  43.951  0.00  0.00     0.007 A 
HETATM    9  C   UNK N   1      29.628  56.677  38.651  0.00  0.00     0.122 C 
HETATM   10  C   UNK N   1      29.947  53.628  42.356  0.00  0.00     0.065 C 
HETATM   11  C   UNK N   1      30.495  56.131  40.965  0.00  0.00     0.231 C 
HETATM   12  C   UNK N   1      30.183  56.078  42.490  0.00  0.00     0.038 C 
HETATM   13  C   UNK N   1      31.464  55.946  43.349  0.00  0.00     0.139 C 
HETATM   14  C   UNK N   1      30.183  53.677  40.834  0.00  0.00     0.283 C 
HETATM   15  C   UNK N   1      31.368  54.891  39.038  0.00  0.00     0.275 C 
HETATM   16  C   UNK N   1      29.265  56.583  40.136  0.00  0.00     0.068 C 
HETATM   17  C   UNK N   1      30.168  55.320  38.173  0.00  0.00     0.062 C 
HETATM   18  C   UNK N   1      29.249  54.912  42.820  0.00  0.00     0.021 C 
ENDROOT
BRANCH   9  19
HETATM   19  O   UNK N   1      28.483  57.038  37.923  0.00  0.00    -0.395 OA
HETATM   20  H   UNK N   1      28.737  57.050  36.964  0.00  0.00     0.210 HD
ENDBRANCH   9  19
TORSDOF 1
ENDMDL
