MODEL 1
REMARK VINA RESULT:      -7.3      0.000      0.000
REMARK  11 active torsions:
REMARK  status: ('A' for Active; 'I' for Inactive)
REMARK    1  A    between atoms: O_1  and  C_10 
REMARK    2  A    between atoms: O_2  and  C_11 
REMARK    3  A    between atoms: O_3  and  C_16 
REMARK    4  A    between atoms: O_4  and  C_18 
REMARK    5  A    between atoms: O_4  and  C_21 
REMARK    6  A    between atoms: O_5  and  C_17 
REMARK    7  A    between atoms: O_6  and  C_19 
REMARK    8  A    between atoms: O_9  and  C_20 
REMARK    9  A    between atoms: C_12  and  C_22 
REMARK   10  A    between atoms: C_16  and  C_20 
REMARK   11  A    between atoms: C_21  and  C_25 
ROOT
HETATM    1  C   UNK N   1      40.534  44.463  49.986  0.00  0.00     0.147 C 
HETATM    2  C   UNK N   1      40.815  44.968  47.006  0.00  0.00     0.176 C 
HETATM    3  C   UNK N   1      40.305  46.096  47.923  0.00  0.00     0.166 C 
HETATM    4  C   UNK N   1      41.787  44.045  47.778  0.00  0.00     0.152 C 
HETATM    5  C   UNK N   1      39.655  45.492  49.207  0.00  0.00     0.084 C 
HETATM    6  C   UNK N   1      41.067  43.401  48.983  0.00  0.00     0.083 C 
ENDROOT
BRANCH   3   7
HETATM    7  O   UNK N   1      41.361  46.954  48.170  0.00  0.00    -0.310 OA
BRANCH   7   8
HETATM    8  C   UNK N   1      41.958  47.759  47.251  0.00  0.00     0.283 C 
HETATM    9  O   UNK N   1      43.065  48.235  47.456  0.00  0.00    -0.260 OA
BRANCH   8  10
HETATM   10  C   UNK N   1      41.237  48.024  45.990  0.00  0.00     0.083 C 
HETATM   11  C   UNK N   1      40.347  49.024  45.862  0.00  0.00     0.017 C 
BRANCH  11  12
HETATM   12  C   UNK N   1      39.684  49.340  44.567  0.00  0.00    -0.033 A 
HETATM   13  C   UNK N   1      38.592  48.557  44.167  0.00  0.00     0.050 A 
HETATM   14  C   UNK N   1      37.881  48.855  42.997  0.00  0.00     0.099 A 
HETATM   15  C   UNK N   1      38.294  49.943  42.187  0.00  0.00     0.098 A 
HETATM   16  C   UNK N   1      39.406  50.700  42.570  0.00  0.00     0.040 A 
HETATM   17  C   UNK N   1      40.091  50.413  43.751  0.00  0.00     0.014 A 
BRANCH  14  18
HETATM   18  O   UNK N   1      36.807  48.093  42.694  0.00  0.00    -0.358 OA
HETATM   19  H   UNK N   1      36.198  47.731  43.347  0.00  0.00     0.218 HD
ENDBRANCH  14  18
BRANCH  15  20
HETATM   20  O   UNK N   1      37.650  50.287  41.050  0.00  0.00    -0.358 OA
HETATM   21  H   UNK N   1      36.764  50.667  41.022  0.00  0.00     0.218 HD
ENDBRANCH  15  20
ENDBRANCH  11  12
ENDBRANCH   8  10
ENDBRANCH   7   8
ENDBRANCH   3   7
BRANCH   2  22
HETATM   22  O   UNK N   1      39.734  44.215  46.515  0.00  0.00    -0.390 OA
HETATM   23  H   UNK N   1      39.768  43.333  46.971  0.00  0.00     0.210 HD
ENDBRANCH   2  22
BRANCH   4  24
HETATM   24  O   UNK N   1      42.322  43.059  46.930  0.00  0.00    -0.393 OA
HETATM   25  H   UNK N   1      43.209  43.372  46.615  0.00  0.00     0.210 HD
ENDBRANCH   4  24
BRANCH   1  26
HETATM   26  O   UNK N   1      39.695  43.835  50.930  0.00  0.00    -0.379 OA
HETATM   27  H   UNK N   1      39.636  44.412  51.738  0.00  0.00     0.211 HD
ENDBRANCH   1  26
BRANCH   1  28
HETATM   28  C   UNK N   1      41.685  45.093  50.760  0.00  0.00     0.176 C 
HETATM   29  O   UNK N   1      41.686  45.126  51.979  0.00  0.00    -0.648 OA
BRANCH  28  30
HETATM   30  O   UNK N   1      42.753  45.566  50.082  0.00  0.00    -0.774 OA
HETATM   31  H   UNK N   1      43.344  44.973  49.596  0.00  0.00     0.167 HD
ENDBRANCH  28  30
ENDBRANCH   1  28
TORSDOF 11
ENDMDL
MODEL 2
REMARK VINA RESULT:      -6.7      1.161      2.841
REMARK  11 active torsions:
REMARK  status: ('A' for Active; 'I' for Inactive)
REMARK    1  A    between atoms: O_1  and  C_10 
REMARK    2  A    between atoms: O_2  and  C_11 
REMARK    3  A    between atoms: O_3  and  C_16 
REMARK    4  A    between atoms: O_4  and  C_18 
REMARK    5  A    between atoms: O_4  and  C_21 
REMARK    6  A    between atoms: O_5  and  C_17 
REMARK    7  A    between atoms: O_6  and  C_19 
REMARK    8  A    between atoms: O_9  and  C_20 
REMARK    9  A    between atoms: C_12  and  C_22 
REMARK   10  A    between atoms: C_16  and  C_20 
REMARK   11  A    between atoms: C_21  and  C_25 
ROOT
HETATM    1  C   UNK N   1      39.658  44.617  46.908  0.00  0.00     0.147 C 
HETATM    2  C   UNK N   1      41.538  44.891  49.275  0.00  0.00     0.176 C 
HETATM    3  C   UNK N   1      41.898  45.564  47.937  0.00  0.00     0.166 C 
HETATM    4  C   UNK N   1      40.003  44.827  49.449  0.00  0.00     0.152 C 
HETATM    5  C   UNK N   1      41.199  44.821  46.756  0.00  0.00     0.084 C 
HETATM    6  C   UNK N   1      39.370  44.002  48.307  0.00  0.00     0.083 C 
ENDROOT
BRANCH   3   7
HETATM    7  O   UNK N   1      41.577  46.906  48.035  0.00  0.00    -0.310 OA
BRANCH   7   8
HETATM    8  C   UNK N   1      42.075  47.899  47.251  0.00  0.00     0.283 C 
HETATM    9  O   UNK N   1      43.070  48.525  47.585  0.00  0.00    -0.260 OA
BRANCH   8  10
HETATM   10  C   UNK N   1      41.389  48.184  45.976  0.00  0.00     0.083 C 
HETATM   11  C   UNK N   1      40.408  49.099  45.870  0.00  0.00     0.017 C 
BRANCH  11  12
HETATM   12  C   UNK N   1      39.776  49.443  44.567  0.00  0.00    -0.033 A 
HETATM   13  C   UNK N   1      38.699  48.664  44.120  0.00  0.00     0.050 A 
HETATM   14  C   UNK N   1      38.016  48.987  42.940  0.00  0.00     0.099 A 
HETATM   15  C   UNK N   1      38.442  50.097  42.168  0.00  0.00     0.098 A 
HETATM   16  C   UNK N   1      39.540  50.851  42.597  0.00  0.00     0.040 A 
HETATM   17  C   UNK N   1      40.197  50.538  43.788  0.00  0.00     0.014 A 
BRANCH  14  18
HETATM   18  O   UNK N   1      36.954  48.227  42.591  0.00  0.00    -0.358 OA
HETATM   19  H   UNK N   1      36.689  47.423  43.052  0.00  0.00     0.218 HD
ENDBRANCH  14  18
BRANCH  15  20
HETATM   20  O   UNK N   1      37.825  50.466  41.024  0.00  0.00    -0.358 OA
HETATM   21  H   UNK N   1      37.697  51.381  40.747  0.00  0.00     0.218 HD
ENDBRANCH  15  20
ENDBRANCH  11  12
ENDBRANCH   8  10
ENDBRANCH   7   8
ENDBRANCH   3   7
BRANCH   2  22
HETATM   22  O   UNK N   1      42.077  43.594  49.327  0.00  0.00    -0.390 OA
HETATM   23  H   UNK N   1      41.312  42.963  49.280  0.00  0.00     0.210 HD
ENDBRANCH   2  22
BRANCH   4  24
HETATM   24  O   UNK N   1      39.663  44.289  50.702  0.00  0.00    -0.393 OA
HETATM   25  H   UNK N   1      38.721  43.979  50.661  0.00  0.00     0.210 HD
ENDBRANCH   4  24
BRANCH   1  26
HETATM   26  O   UNK N   1      39.263  43.707  45.906  0.00  0.00    -0.379 OA
HETATM   27  H   UNK N   1      40.054  43.481  45.349  0.00  0.00     0.211 HD
ENDBRANCH   1  26
BRANCH   1  28
HETATM   28  C   UNK N   1      38.843  45.888  46.705  0.00  0.00     0.176 C 
HETATM   29  O   UNK N   1      38.294  46.125  45.643  0.00  0.00    -0.648 OA
BRANCH  28  30
HETATM   30  O   UNK N   1      38.675  46.735  47.743  0.00  0.00    -0.774 OA
HETATM   31  H   UNK N   1      39.247  47.507  47.861  0.00  0.00     0.167 HD
ENDBRANCH  28  30
ENDBRANCH   1  28
TORSDOF 11
ENDMDL
MODEL 3
REMARK VINA RESULT:      -6.5      2.987      7.653
REMARK  11 active torsions:
REMARK  status: ('A' for Active; 'I' for Inactive)
REMARK    1  A    between atoms: O_1  and  C_10 
REMARK    2  A    between atoms: O_2  and  C_11 
REMARK    3  A    between atoms: O_3  and  C_16 
REMARK    4  A    between atoms: O_4  and  C_18 
REMARK    5  A    between atoms: O_4  and  C_21 
REMARK    6  A    between atoms: O_5  and  C_17 
REMARK    7  A    between atoms: O_6  and  C_19 
REMARK    8  A    between atoms: O_9  and  C_20 
REMARK    9  A    between atoms: C_12  and  C_22 
REMARK   10  A    between atoms: C_16  and  C_20 
REMARK   11  A    between atoms: C_21  and  C_25 
ROOT
HETATM    1  C   UNK N   1      41.455  47.440  46.267  0.00  0.00     0.147 C 
HETATM    2  C   UNK N   1      39.884  44.862  46.582  0.00  0.00     0.176 C 
HETATM    3  C   UNK N   1      41.196  44.858  45.774  0.00  0.00     0.166 C 
HETATM    4  C   UNK N   1      39.943  45.930  47.700  0.00  0.00     0.152 C 
HETATM    5  C   UNK N   1      41.486  46.286  45.215  0.00  0.00     0.084 C 
HETATM    6  C   UNK N   1      40.138  47.333  47.087  0.00  0.00     0.083 C 
ENDROOT
BRANCH   3   7
HETATM    7  O   UNK N   1      42.194  44.351  46.585  0.00  0.00    -0.310 OA
BRANCH   7   8
HETATM    8  C   UNK N   1      42.192  43.124  47.171  0.00  0.00     0.283 C 
HETATM    9  O   UNK N   1      42.612  42.143  46.578  0.00  0.00    -0.260 OA
BRANCH   8  10
HETATM   10  C   UNK N   1      41.684  43.019  48.554  0.00  0.00     0.083 C 
HETATM   11  C   UNK N   1      41.877  43.984  49.470  0.00  0.00     0.017 C 
BRANCH  11  12
HETATM   12  C   UNK N   1      41.293  43.913  50.838  0.00  0.00    -0.033 A 
HETATM   13  C   UNK N   1      41.767  44.801  51.814  0.00  0.00     0.050 A 
HETATM   14  C   UNK N   1      41.201  44.833  53.096  0.00  0.00     0.099 A 
HETATM   15  C   UNK N   1      40.160  43.928  53.422  0.00  0.00     0.098 A 
HETATM   16  C   UNK N   1      39.714  43.018  52.458  0.00  0.00     0.040 A 
HETATM   17  C   UNK N   1      40.263  43.013  51.175  0.00  0.00     0.014 A 
BRANCH  14  18
HETATM   18  O   UNK N   1      41.668  45.747  53.975  0.00  0.00    -0.358 OA
HETATM   19  H   UNK N   1      41.888  45.553  54.893  0.00  0.00     0.218 HD
ENDBRANCH  14  18
BRANCH  15  20
HETATM   20  O   UNK N   1      39.568  43.908  54.637  0.00  0.00    -0.358 OA
HETATM   21  H   UNK N   1      38.740  43.454  54.830  0.00  0.00     0.218 HD
ENDBRANCH  15  20
ENDBRANCH  11  12
ENDBRANCH   8  10
ENDBRANCH   7   8
ENDBRANCH   3   7
BRANCH   2  22
HETATM   22  O   UNK N   1      38.793  45.121  45.735  0.00  0.00    -0.390 OA
HETATM   23  H   UNK N   1      37.989  44.738  46.175  0.00  0.00     0.210 HD
ENDBRANCH   2  22
BRANCH   4  24
HETATM   24  O   UNK N   1      38.785  45.887  48.495  0.00  0.00    -0.393 OA
HETATM   25  H   UNK N   1      38.647  46.787  48.889  0.00  0.00     0.210 HD
ENDBRANCH   4  24
BRANCH   1  26
HETATM   26  O   UNK N   1      41.461  48.653  45.548  0.00  0.00    -0.379 OA
HETATM   27  H   UNK N   1      42.379  49.035  45.574  0.00  0.00     0.211 HD
ENDBRANCH   1  26
BRANCH   1  28
HETATM   28  C   UNK N   1      42.662  47.464  47.196  0.00  0.00     0.176 C 
HETATM   29  O   UNK N   1      43.588  48.235  47.012  0.00  0.00    -0.648 OA
BRANCH  28  30
HETATM   30  O   UNK N   1      42.676  46.656  48.279  0.00  0.00    -0.774 OA
HETATM   31  H   UNK N   1      42.111  46.832  49.045  0.00  0.00     0.167 HD
ENDBRANCH  28  30
ENDBRANCH   1  28
TORSDOF 11
ENDMDL
MODEL 4
REMARK VINA RESULT:      -6.3      1.825      8.029
REMARK  11 active torsions:
REMARK  status: ('A' for Active; 'I' for Inactive)
REMARK    1  A    between atoms: O_1  and  C_10 
REMARK    2  A    between atoms: O_2  and  C_11 
REMARK    3  A    between atoms: O_3  and  C_16 
REMARK    4  A    between atoms: O_4  and  C_18 
REMARK    5  A    between atoms: O_4  and  C_21 
REMARK    6  A    between atoms: O_5  and  C_17 
REMARK    7  A    between atoms: O_6  and  C_19 
REMARK    8  A    between atoms: O_9  and  C_20 
REMARK    9  A    between atoms: C_12  and  C_22 
REMARK   10  A    between atoms: C_16  and  C_20 
REMARK   11  A    between atoms: C_21  and  C_25 
ROOT
HETATM    1  C   UNK N   1      39.459  49.500  45.431  0.00  0.00     0.147 C 
HETATM    2  C   UNK N   1      41.346  47.700  46.985  0.00  0.00     0.176 C 
HETATM    3  C   UNK N   1      39.831  47.418  47.013  0.00  0.00     0.166 C 
HETATM    4  C   UNK N   1      41.748  48.345  45.638  0.00  0.00     0.152 C 
HETATM    5  C   UNK N   1      39.035  48.728  46.721  0.00  0.00     0.084 C 
HETATM    6  C   UNK N   1      41.003  49.683  45.442  0.00  0.00     0.083 C 
ENDROOT
BRANCH   3   7
HETATM    7  O   UNK N   1      39.574  46.387  46.128  0.00  0.00    -0.310 OA
BRANCH   7   8
HETATM    8  C   UNK N   1      39.612  45.061  46.425  0.00  0.00     0.283 C 
HETATM    9  O   UNK N   1      39.601  44.217  45.541  0.00  0.00    -0.260 OA
BRANCH   8  10
HETATM   10  C   UNK N   1      39.689  44.672  47.847  0.00  0.00     0.083 C 
HETATM   11  C   UNK N   1      40.837  44.710  48.546  0.00  0.00     0.017 C 
BRANCH  11  12
HETATM   12  C   UNK N   1      40.895  44.398  50.001  0.00  0.00    -0.033 A 
HETATM   13  C   UNK N   1      41.766  45.143  50.810  0.00  0.00     0.050 A 
HETATM   14  C   UNK N   1      41.806  44.946  52.197  0.00  0.00     0.099 A 
HETATM   15  C   UNK N   1      40.982  43.954  52.786  0.00  0.00     0.098 A 
HETATM   16  C   UNK N   1      40.141  43.188  51.972  0.00  0.00     0.040 A 
HETATM   17  C   UNK N   1      40.087  43.410  50.596  0.00  0.00     0.014 A 
BRANCH  14  18
HETATM   18  O   UNK N   1      42.629  45.731  52.927  0.00  0.00    -0.358 OA
HETATM   19  H   UNK N   1      42.341  46.507  53.421  0.00  0.00     0.218 HD
ENDBRANCH  14  18
BRANCH  15  20
HETATM   20  O   UNK N   1      40.969  43.717  54.116  0.00  0.00    -0.358 OA
HETATM   21  H   UNK N   1      40.420  43.049  54.543  0.00  0.00     0.218 HD
ENDBRANCH  15  20
ENDBRANCH  11  12
ENDBRANCH   8  10
ENDBRANCH   7   8
ENDBRANCH   3   7
BRANCH   2  22
HETATM   22  O   UNK N   1      41.700  48.554  48.044  0.00  0.00    -0.390 OA
HETATM   23  H   UNK N   1      40.951  49.195  48.159  0.00  0.00     0.210 HD
ENDBRANCH   2  22
BRANCH   4  24
HETATM   24  O   UNK N   1      43.140  48.532  45.568  0.00  0.00    -0.393 OA
HETATM   25  H   UNK N   1      43.320  49.283  44.945  0.00  0.00     0.210 HD
ENDBRANCH   4  24
BRANCH   1  26
HETATM   26  O   UNK N   1      38.838  50.764  45.485  0.00  0.00    -0.379 OA
HETATM   27  H   UNK N   1      39.486  51.424  45.851  0.00  0.00     0.211 HD
ENDBRANCH   1  26
BRANCH   1  28
HETATM   28  C   UNK N   1      39.009  48.835  44.137  0.00  0.00     0.176 C 
HETATM   29  O   UNK N   1      39.514  49.126  43.066  0.00  0.00    -0.648 OA
BRANCH  28  30
HETATM   30  O   UNK N   1      38.075  47.860  44.187  0.00  0.00    -0.774 OA
HETATM   31  H   UNK N   1      38.319  46.938  44.352  0.00  0.00     0.167 HD
ENDBRANCH  28  30
ENDBRANCH   1  28
TORSDOF 11
ENDMDL
MODEL 5
REMARK VINA RESULT:      -6.2      4.845      7.947
REMARK  11 active torsions:
REMARK  status: ('A' for Active; 'I' for Inactive)
REMARK    1  A    between atoms: O_1  and  C_10 
REMARK    2  A    between atoms: O_2  and  C_11 
REMARK    3  A    between atoms: O_3  and  C_16 
REMARK    4  A    between atoms: O_4  and  C_18 
REMARK    5  A    between atoms: O_4  and  C_21 
REMARK    6  A    between atoms: O_5  and  C_17 
REMARK    7  A    between atoms: O_6  and  C_19 
REMARK    8  A    between atoms: O_9  and  C_20 
REMARK    9  A    between atoms: C_12  and  C_22 
REMARK   10  A    between atoms: C_16  and  C_20 
REMARK   11  A    between atoms: C_21  and  C_25 
ROOT
HETATM    1  C   UNK N   1      39.750  49.234  44.793  0.00  0.00     0.147 C 
HETATM    2  C   UNK N   1      38.702  50.509  42.244  0.00  0.00     0.176 C 
HETATM    3  C   UNK N   1      37.923  49.346  42.889  0.00  0.00     0.166 C 
HETATM    4  C   UNK N   1      39.440  51.328  43.330  0.00  0.00     0.152 C 
HETATM    5  C   UNK N   1      38.884  48.464  43.746  0.00  0.00     0.084 C 
HETATM    6  C   UNK N   1      40.445  50.431  44.084  0.00  0.00     0.083 C 
ENDROOT
BRANCH   3   7
HETATM    7  O   UNK N   1      36.863  49.883  43.595  0.00  0.00    -0.310 OA
BRANCH   7   8
HETATM    8  C   UNK N   1      35.546  49.654  43.344  0.00  0.00     0.283 C 
HETATM    9  O   UNK N   1      35.112  48.516  43.250  0.00  0.00    -0.260 OA
BRANCH   8  10
HETATM   10  C   UNK N   1      34.654  50.823  43.210  0.00  0.00     0.083 C 
HETATM   11  C   UNK N   1      34.076  51.418  44.269  0.00  0.00     0.017 C 
BRANCH  11  12
HETATM   12  C   UNK N   1      33.245  52.646  44.139  0.00  0.00    -0.033 A 
HETATM   13  C   UNK N   1      33.776  53.863  44.590  0.00  0.00     0.050 A 
HETATM   14  C   UNK N   1      33.071  55.063  44.423  0.00  0.00     0.099 A 
HETATM   15  C   UNK N   1      31.787  55.041  43.823  0.00  0.00     0.098 A 
HETATM   16  C   UNK N   1      31.245  53.820  43.407  0.00  0.00     0.040 A 
HETATM   17  C   UNK N   1      31.965  52.634  43.551  0.00  0.00     0.014 A 
BRANCH  14  18
HETATM   18  O   UNK N   1      33.660  56.208  44.833  0.00  0.00    -0.358 OA
HETATM   19  H   UNK N   1      33.383  57.089  44.556  0.00  0.00     0.218 HD
ENDBRANCH  14  18
BRANCH  15  20
HETATM   20  O   UNK N   1      31.058  56.161  43.628  0.00  0.00    -0.358 OA
HETATM   21  H   UNK N   1      31.410  57.056  43.692  0.00  0.00     0.218 HD
ENDBRANCH  15  20
ENDBRANCH  11  12
ENDBRANCH   8  10
ENDBRANCH   7   8
ENDBRANCH   3   7
BRANCH   2  22
HETATM   22  O   UNK N   1      39.629  50.014  41.311  0.00  0.00    -0.390 OA
HETATM   23  H   UNK N   1      39.301  50.279  40.412  0.00  0.00     0.210 HD
ENDBRANCH   2  22
BRANCH   4  24
HETATM   24  O   UNK N   1      40.088  52.439  42.763  0.00  0.00    -0.393 OA
HETATM   25  H   UNK N   1      39.588  52.707  41.949  0.00  0.00     0.210 HD
ENDBRANCH   4  24
BRANCH   1  26
HETATM   26  O   UNK N   1      40.728  48.334  45.260  0.00  0.00    -0.379 OA
HETATM   27  H   UNK N   1      40.457  48.004  46.158  0.00  0.00     0.211 HD
ENDBRANCH   1  26
BRANCH   1  28
HETATM   28  C   UNK N   1      38.967  49.715  46.008  0.00  0.00     0.176 C 
HETATM   29  O   UNK N   1      39.072  49.161  47.089  0.00  0.00    -0.648 OA
BRANCH  28  30
HETATM   30  O   UNK N   1      38.190  50.815  45.899  0.00  0.00    -0.774 OA
HETATM   31  H   UNK N   1      37.646  51.122  46.637  0.00  0.00     0.167 HD
ENDBRANCH  28  30
ENDBRANCH   1  28
TORSDOF 11
ENDMDL
MODEL 6
REMARK VINA RESULT:      -6.2      2.231      7.675
REMARK  11 active torsions:
REMARK  status: ('A' for Active; 'I' for Inactive)
REMARK    1  A    between atoms: O_1  and  C_10 
REMARK    2  A    between atoms: O_2  and  C_11 
REMARK    3  A    between atoms: O_3  and  C_16 
REMARK    4  A    between atoms: O_4  and  C_18 
REMARK    5  A    between atoms: O_4  and  C_21 
REMARK    6  A    between atoms: O_5  and  C_17 
REMARK    7  A    between atoms: O_6  and  C_19 
REMARK    8  A    between atoms: O_9  and  C_20 
REMARK    9  A    between atoms: C_12  and  C_22 
REMARK   10  A    between atoms: C_16  and  C_20 
REMARK   11  A    between atoms: C_21  and  C_25 
ROOT
HETATM    1  C   UNK N   1      39.540  48.892  45.163  0.00  0.00     0.147 C 
HETATM    2  C   UNK N   1      41.150  46.435  45.931  0.00  0.00     0.176 C 
HETATM    3  C   UNK N   1      41.799  47.830  46.024  0.00  0.00     0.166 C 
HETATM    4  C   UNK N   1      39.628  46.533  46.186  0.00  0.00     0.152 C 
HETATM    5  C   UNK N   1      41.095  48.817  45.043  0.00  0.00     0.084 C 
HETATM    6  C   UNK N   1      38.966  47.447  45.132  0.00  0.00     0.083 C 
ENDROOT
BRANCH   3   7
HETATM    7  O   UNK N   1      41.769  48.225  47.349  0.00  0.00    -0.310 OA
BRANCH   7   8
HETATM    8  C   UNK N   1      42.633  47.819  48.317  0.00  0.00     0.283 C 
HETATM    9  O   UNK N   1      43.819  48.103  48.262  0.00  0.00    -0.260 OA
BRANCH   8  10
HETATM   10  C   UNK N   1      42.088  47.042  49.448  0.00  0.00     0.083 C 
HETATM   11  C   UNK N   1      41.767  45.740  49.343  0.00  0.00     0.017 C 
BRANCH  11  12
HETATM   12  C   UNK N   1      41.297  44.938  50.506  0.00  0.00    -0.033 A 
HETATM   13  C   UNK N   1      41.848  45.205  51.768  0.00  0.00     0.050 A 
HETATM   14  C   UNK N   1      41.389  44.536  52.911  0.00  0.00     0.099 A 
HETATM   15  C   UNK N   1      40.378  43.550  52.785  0.00  0.00     0.098 A 
HETATM   16  C   UNK N   1      39.856  43.260  51.520  0.00  0.00     0.040 A 
HETATM   17  C   UNK N   1      40.299  43.951  50.391  0.00  0.00     0.014 A 
BRANCH  14  18
HETATM   18  O   UNK N   1      41.926  44.875  54.104  0.00  0.00    -0.358 OA
HETATM   19  H   UNK N   1      42.868  45.006  54.257  0.00  0.00     0.218 HD
ENDBRANCH  14  18
BRANCH  15  20
HETATM   20  O   UNK N   1      39.889  42.872  53.846  0.00  0.00    -0.358 OA
HETATM   21  H   UNK N   1      39.500  41.991  53.795  0.00  0.00     0.218 HD
ENDBRANCH  15  20
ENDBRANCH  11  12
ENDBRANCH   8  10
ENDBRANCH   7   8
ENDBRANCH   3   7
BRANCH   2  22
HETATM   22  O   UNK N   1      41.383  45.875  44.663  0.00  0.00    -0.390 OA
HETATM   23  H   UNK N   1      40.818  46.377  44.018  0.00  0.00     0.210 HD
ENDBRANCH   2  22
BRANCH   4  24
HETATM   24  O   UNK N   1      39.037  45.257  46.184  0.00  0.00    -0.393 OA
HETATM   25  H   UNK N   1      38.102  45.348  46.505  0.00  0.00     0.210 HD
ENDBRANCH   4  24
BRANCH   1  26
HETATM   26  O   UNK N   1      39.073  49.605  44.040  0.00  0.00    -0.379 OA
HETATM   27  H   UNK N   1      38.992  48.976  43.273  0.00  0.00     0.211 HD
ENDBRANCH   1  26
BRANCH   1  28
HETATM   28  C   UNK N   1      39.050  49.634  46.400  0.00  0.00     0.176 C 
HETATM   29  O   UNK N   1      38.493  50.715  46.310  0.00  0.00    -0.648 OA
BRANCH  28  30
HETATM   30  O   UNK N   1      39.180  49.053  47.612  0.00  0.00    -0.774 OA
HETATM   31  H   UNK N   1      38.424  48.958  48.208  0.00  0.00     0.167 HD
ENDBRANCH  28  30
ENDBRANCH   1  28
TORSDOF 11
ENDMDL
MODEL 7
REMARK VINA RESULT:      -5.8      2.869      4.515
REMARK  11 active torsions:
REMARK  status: ('A' for Active; 'I' for Inactive)
REMARK    1  A    between atoms: O_1  and  C_10 
REMARK    2  A    between atoms: O_2  and  C_11 
REMARK    3  A    between atoms: O_3  and  C_16 
REMARK    4  A    between atoms: O_4  and  C_18 
REMARK    5  A    between atoms: O_4  and  C_21 
REMARK    6  A    between atoms: O_5  and  C_17 
REMARK    7  A    between atoms: O_6  and  C_19 
REMARK    8  A    between atoms: O_9  and  C_20 
REMARK    9  A    between atoms: C_12  and  C_22 
REMARK   10  A    between atoms: C_16  and  C_20 
REMARK   11  A    between atoms: C_21  and  C_25 
ROOT
HETATM    1  C   UNK N   1      41.979  47.694  47.464  0.00  0.00     0.147 C 
HETATM    2  C   UNK N   1      39.837  46.329  45.800  0.00  0.00     0.176 C 
HETATM    3  C   UNK N   1      39.756  47.848  46.046  0.00  0.00     0.166 C 
HETATM    4  C   UNK N   1      41.313  45.867  45.780  0.00  0.00     0.152 C 
HETATM    5  C   UNK N   1      40.512  48.221  47.359  0.00  0.00     0.084 C 
HETATM    6  C   UNK N   1      41.988  46.175  47.134  0.00  0.00     0.083 C 
ENDROOT
BRANCH   3   7
HETATM    7  O   UNK N   1      40.228  48.489  44.916  0.00  0.00    -0.310 OA
BRANCH   7   8
HETATM    8  C   UNK N   1      39.640  49.551  44.303  0.00  0.00     0.283 C 
HETATM    9  O   UNK N   1      40.308  50.388  43.715  0.00  0.00    -0.260 OA
BRANCH   8  10
HETATM   10  C   UNK N   1      38.168  49.649  44.351  0.00  0.00     0.083 C 
HETATM   11  C   UNK N   1      37.408  49.681  43.241  0.00  0.00     0.017 C 
BRANCH  11  12
HETATM   12  C   UNK N   1      35.920  49.696  43.294  0.00  0.00    -0.033 A 
HETATM   13  C   UNK N   1      35.272  50.916  43.532  0.00  0.00     0.050 A 
HETATM   14  C   UNK N   1      33.873  51.005  43.516  0.00  0.00     0.099 A 
HETATM   15  C   UNK N   1      33.102  49.837  43.291  0.00  0.00     0.098 A 
HETATM   16  C   UNK N   1      33.751  48.614  43.090  0.00  0.00     0.040 A 
HETATM   17  C   UNK N   1      35.144  48.540  43.080  0.00  0.00     0.014 A 
BRANCH  14  18
HETATM   18  O   UNK N   1      33.311  52.220  43.702  0.00  0.00    -0.358 OA
HETATM   19  H   UNK N   1      33.410  52.745  44.505  0.00  0.00     0.218 HD
ENDBRANCH  14  18
BRANCH  15  20
HETATM   20  O   UNK N   1      31.751  49.854  43.258  0.00  0.00    -0.358 OA
HETATM   21  H   UNK N   1      31.215  50.646  43.385  0.00  0.00     0.218 HD
ENDBRANCH  15  20
ENDBRANCH  11  12
ENDBRANCH   8  10
ENDBRANCH   7   8
ENDBRANCH   3   7
BRANCH   2  22
HETATM   22  O   UNK N   1      39.137  45.637  46.802  0.00  0.00    -0.390 OA
HETATM   23  H   UNK N   1      39.687  45.691  47.627  0.00  0.00     0.210 HD
ENDBRANCH   2  22
BRANCH   4  24
HETATM   24  O   UNK N   1      41.405  44.497  45.475  0.00  0.00    -0.393 OA
HETATM   25  H   UNK N   1      42.352  44.289  45.267  0.00  0.00     0.210 HD
ENDBRANCH   4  24
BRANCH   1  26
HETATM   26  O   UNK N   1      42.391  47.886  48.798  0.00  0.00    -0.379 OA
HETATM   27  H   UNK N   1      43.349  48.151  48.802  0.00  0.00     0.211 HD
ENDBRANCH   1  26
BRANCH   1  28
HETATM   28  C   UNK N   1      42.969  48.440  46.578  0.00  0.00     0.176 C 
HETATM   29  O   UNK N   1      44.122  48.621  46.930  0.00  0.00    -0.648 OA
BRANCH  28  30
HETATM   30  O   UNK N   1      42.576  48.853  45.353  0.00  0.00    -0.774 OA
HETATM   31  H   UNK N   1      42.606  49.787  45.104  0.00  0.00     0.167 HD
ENDBRANCH  28  30
ENDBRANCH   1  28
TORSDOF 11
ENDMDL
MODEL 8
REMARK VINA RESULT:      -5.8     13.834     15.757
REMARK  11 active torsions:
REMARK  status: ('A' for Active; 'I' for Inactive)
REMARK    1  A    between atoms: O_1  and  C_10 
REMARK    2  A    between atoms: O_2  and  C_11 
REMARK    3  A    between atoms: O_3  and  C_16 
REMARK    4  A    between atoms: O_4  and  C_18 
REMARK    5  A    between atoms: O_4  and  C_21 
REMARK    6  A    between atoms: O_5  and  C_17 
REMARK    7  A    between atoms: O_6  and  C_19 
REMARK    8  A    between atoms: O_9  and  C_20 
REMARK    9  A    between atoms: C_12  and  C_22 
REMARK   10  A    between atoms: C_16  and  C_20 
REMARK   11  A    between atoms: C_21  and  C_25 
ROOT
HETATM    1  C   UNK N   1      29.469  40.873  55.194  0.00  0.00     0.147 C 
HETATM    2  C   UNK N   1      28.361  42.931  57.133  0.00  0.00     0.176 C 
HETATM    3  C   UNK N   1      29.818  42.453  57.282  0.00  0.00     0.166 C 
HETATM    4  C   UNK N   1      27.930  42.885  55.648  0.00  0.00     0.152 C 
HETATM    5  C   UNK N   1      29.984  41.031  56.660  0.00  0.00     0.084 C 
HETATM    6  C   UNK N   1      28.023  41.441  55.109  0.00  0.00     0.083 C 
ENDROOT
BRANCH   3   7
HETATM    7  O   UNK N   1      30.641  43.416  56.728  0.00  0.00    -0.310 OA
BRANCH   7   8
HETATM    8  C   UNK N   1      31.632  44.081  57.379  0.00  0.00     0.283 C 
HETATM    9  O   UNK N   1      32.678  43.522  57.672  0.00  0.00    -0.260 OA
BRANCH   8  10
HETATM   10  C   UNK N   1      31.413  45.505  57.702  0.00  0.00     0.083 C 
HETATM   11  C   UNK N   1      30.184  46.036  57.834  0.00  0.00     0.017 C 
BRANCH  11  12
HETATM   12  C   UNK N   1      29.967  47.452  58.241  0.00  0.00    -0.033 A 
HETATM   13  C   UNK N   1      30.280  48.466  57.325  0.00  0.00     0.050 A 
HETATM   14  C   UNK N   1      30.024  49.811  57.624  0.00  0.00     0.099 A 
HETATM   15  C   UNK N   1      29.475  50.155  58.886  0.00  0.00     0.098 A 
HETATM   16  C   UNK N   1      29.199  49.143  59.812  0.00  0.00     0.040 A 
HETATM   17  C   UNK N   1      29.430  47.804  59.495  0.00  0.00     0.014 A 
BRANCH  14  18
HETATM   18  O   UNK N   1      30.301  50.736  56.679  0.00  0.00    -0.358 OA
HETATM   19  H   UNK N   1      30.141  51.681  56.782  0.00  0.00     0.218 HD
ENDBRANCH  14  18
BRANCH  15  20
HETATM   20  O   UNK N   1      29.201  51.430  59.235  0.00  0.00    -0.358 OA
HETATM   21  H   UNK N   1      28.798  51.689  60.072  0.00  0.00     0.218 HD
ENDBRANCH  15  20
ENDBRANCH  11  12
ENDBRANCH   8  10
ENDBRANCH   7   8
ENDBRANCH   3   7
BRANCH   2  22
HETATM   22  O   UNK N   1      27.504  42.123  57.901  0.00  0.00    -0.390 OA
HETATM   23  H   UNK N   1      27.378  42.585  58.771  0.00  0.00     0.210 HD
ENDBRANCH   2  22
BRANCH   4  24
HETATM   24  O   UNK N   1      26.630  43.395  55.488  0.00  0.00    -0.393 OA
HETATM   25  H   UNK N   1      26.676  44.173  54.873  0.00  0.00     0.210 HD
ENDBRANCH   4  24
BRANCH   1  26
HETATM   26  O   UNK N   1      29.447  39.493  54.912  0.00  0.00    -0.379 OA
HETATM   27  H   UNK N   1      28.686  39.078  55.400  0.00  0.00     0.211 HD
ENDBRANCH   1  26
BRANCH   1  28
HETATM   28  C   UNK N   1      30.363  41.530  54.150  0.00  0.00     0.176 C 
HETATM   29  O   UNK N   1      29.905  41.968  53.109  0.00  0.00    -0.648 OA
BRANCH  28  30
HETATM   30  O   UNK N   1      31.679  41.685  54.414  0.00  0.00    -0.774 OA
HETATM   31  H   UNK N   1      32.032  41.557  55.306  0.00  0.00     0.167 HD
ENDBRANCH  28  30
ENDBRANCH   1  28
TORSDOF 11
ENDMDL
MODEL 9
REMARK VINA RESULT:      -5.8      2.672      7.931
REMARK  11 active torsions:
REMARK  status: ('A' for Active; 'I' for Inactive)
REMARK    1  A    between atoms: O_1  and  C_10 
REMARK    2  A    between atoms: O_2  and  C_11 
REMARK    3  A    between atoms: O_3  and  C_16 
REMARK    4  A    between atoms: O_4  and  C_18 
REMARK    5  A    between atoms: O_4  and  C_21 
REMARK    6  A    between atoms: O_5  and  C_17 
REMARK    7  A    between atoms: O_6  and  C_19 
REMARK    8  A    between atoms: O_9  and  C_20 
REMARK    9  A    between atoms: C_12  and  C_22 
REMARK   10  A    between atoms: C_16  and  C_20 
REMARK   11  A    between atoms: C_21  and  C_25 
ROOT
HETATM    1  C   UNK N   1      41.642  46.822  46.186  0.00  0.00     0.147 C 
HETATM    2  C   UNK N   1      41.524  43.813  45.800  0.00  0.00     0.176 C 
HETATM    3  C   UNK N   1      40.920  44.441  47.072  0.00  0.00     0.166 C 
HETATM    4  C   UNK N   1      41.419  44.799  44.613  0.00  0.00     0.152 C 
HETATM    5  C   UNK N   1      41.608  45.809  47.374  0.00  0.00     0.084 C 
HETATM    6  C   UNK N   1      42.194  46.097  44.926  0.00  0.00     0.083 C 
ENDROOT
BRANCH   3   7
HETATM    7  O   UNK N   1      39.550  44.518  46.899  0.00  0.00    -0.310 OA
BRANCH   7   8
HETATM    8  C   UNK N   1      38.646  44.821  47.868  0.00  0.00     0.283 C 
HETATM    9  O   UNK N   1      37.495  45.116  47.584  0.00  0.00    -0.260 OA
BRANCH   8  10
HETATM   10  C   UNK N   1      39.092  44.763  49.274  0.00  0.00     0.083 C 
HETATM   11  C   UNK N   1      39.838  43.752  49.755  0.00  0.00     0.017 C 
BRANCH  11  12
HETATM   12  C   UNK N   1      40.356  43.737  51.150  0.00  0.00    -0.033 A 
HETATM   13  C   UNK N   1      41.379  44.634  51.492  0.00  0.00     0.050 A 
HETATM   14  C   UNK N   1      41.852  44.719  52.808  0.00  0.00     0.099 A 
HETATM   15  C   UNK N   1      41.316  43.860  53.801  0.00  0.00     0.098 A 
HETATM   16  C   UNK N   1      40.322  42.941  53.449  0.00  0.00     0.040 A 
HETATM   17  C   UNK N   1      39.836  42.883  52.142  0.00  0.00     0.014 A 
BRANCH  14  18
HETATM   18  O   UNK N   1      42.803  45.639  53.084  0.00  0.00    -0.358 OA
HETATM   19  H   UNK N   1      42.878  46.106  53.924  0.00  0.00     0.218 HD
ENDBRANCH  14  18
BRANCH  15  20
HETATM   20  O   UNK N   1      41.724  43.894  55.088  0.00  0.00    -0.358 OA
HETATM   21  H   UNK N   1      42.648  43.901  55.364  0.00  0.00     0.218 HD
ENDBRANCH  15  20
ENDBRANCH  11  12
ENDBRANCH   8  10
ENDBRANCH   7   8
ENDBRANCH   3   7
BRANCH   2  22
HETATM   22  O   UNK N   1      42.870  43.473  46.019  0.00  0.00    -0.390 OA
HETATM   23  H   UNK N   1      42.903  42.961  46.868  0.00  0.00     0.210 HD
ENDBRANCH   2  22
BRANCH   4  24
HETATM   24  O   UNK N   1      41.893  44.207  43.428  0.00  0.00    -0.393 OA
HETATM   25  H   UNK N   1      42.640  44.761  43.083  0.00  0.00     0.210 HD
ENDBRANCH   4  24
BRANCH   1  26
HETATM   26  O   UNK N   1      42.524  47.858  46.554  0.00  0.00    -0.379 OA
HETATM   27  H   UNK N   1      42.989  47.599  47.395  0.00  0.00     0.211 HD
ENDBRANCH   1  26
BRANCH   1  28
HETATM   28  C   UNK N   1      40.295  47.467  45.884  0.00  0.00     0.176 C 
HETATM   29  O   UNK N   1      39.993  47.802  44.752  0.00  0.00    -0.648 OA
BRANCH  28  30
HETATM   30  O   UNK N   1      39.395  47.611  46.882  0.00  0.00    -0.774 OA
HETATM   31  H   UNK N   1      39.342  48.428  47.397  0.00  0.00     0.167 HD
ENDBRANCH  28  30
ENDBRANCH   1  28
TORSDOF 11
ENDMDL
