MODEL 1
REMARK VINA RESULT:      -8.9      0.000      0.000
REMARK  2 active torsions:
REMARK  status: ('A' for Active; 'I' for Inactive)
REMARK    1  A    between atoms: O_1  and  C_5 
REMARK    2  A    between atoms: O_1  and  C_9 
ROOT
HETATM    1  O   UNK N   1      41.967  44.252  54.120  0.00  0.00    -0.260 OA
HETATM    2  O   UNK N   1      40.222  43.225  53.119  0.00  0.00    -0.317 OA
HETATM    3  C   UNK N   1      41.429  44.638  46.872  0.00  0.00     0.140 C 
HETATM    4  C   UNK N   1      40.372  44.454  49.558  0.00  0.00    -0.029 C 
HETATM    5  C   UNK N   1      40.177  44.421  51.102  0.00  0.00     0.057 C 
HETATM    6  C   UNK N   1      41.062  45.823  49.200  0.00  0.00     0.008 C 
HETATM    7  C   UNK N   1      41.227  44.111  53.160  0.00  0.00     0.289 C 
HETATM    8  C   UNK N   1      39.704  43.123  51.831  0.00  0.00     0.189 C 
HETATM    9  C   UNK N   1      41.278  46.026  47.622  0.00  0.00    -0.016 C 
HETATM   10  C   UNK N   1      42.095  43.584  47.764  0.00  0.00     0.034 C 
HETATM   11  C   UNK N   1      41.366  44.767  51.893  0.00  0.00     0.020 C 
HETATM   12  C   UNK N   1      41.272  43.275  49.048  0.00  0.00     0.013 C 
HETATM   13  C   UNK N   1      42.398  46.006  50.028  0.00  0.00     0.034 C 
HETATM   14  C   UNK N   1      38.929  44.327  48.980  0.00  0.00     0.016 C 
HETATM   15  C   UNK N   1      42.376  45.513  51.453  0.00  0.00    -0.013 C 
HETATM   16  C   UNK N   1      42.509  46.942  47.335  0.00  0.00     0.018 C 
HETATM   17  C   UNK N   1      40.075  46.783  47.003  0.00  0.00     0.018 C 
ENDROOT
BRANCH   3  18
HETATM   18  O   UNK N   1      42.139  44.793  45.690  0.00  0.00    -0.316 OA
BRANCH  18  19
HETATM   19  C   UNK N   1      42.169  43.886  44.679  0.00  0.00     0.255 C 
HETATM   20  O   UNK N   1      41.206  43.735  43.941  0.00  0.00    -0.266 OA
HETATM   21  C   UNK N   1      43.405  43.077  44.463  0.00  0.00     0.126 C 
ENDBRANCH  18  19
ENDBRANCH   3  18
TORSDOF 2
ENDMDL
MODEL 2
REMARK VINA RESULT:      -6.8     12.197     14.741
REMARK  2 active torsions:
REMARK  status: ('A' for Active; 'I' for Inactive)
REMARK    1  A    between atoms: O_1  and  C_5 
REMARK    2  A    between atoms: O_1  and  C_9 
ROOT
HETATM    1  O   UNK N   1      47.695  29.933  44.445  0.00  0.00    -0.260 OA
HETATM    2  O   UNK N   1      49.627  30.645  45.372  0.00  0.00    -0.317 OA
HETATM    3  C   UNK N   1      47.366  33.574  50.738  0.00  0.00     0.140 C 
HETATM    4  C   UNK N   1      48.505  32.921  48.161  0.00  0.00    -0.029 C 
HETATM    5  C   UNK N   1      48.790  32.358  46.737  0.00  0.00     0.057 C 
HETATM    6  C   UNK N   1      47.101  33.631  48.114  0.00  0.00     0.008 C 
HETATM    7  C   UNK N   1      48.296  30.667  45.212  0.00  0.00     0.289 C 
HETATM    8  C   UNK N   1      50.006  31.417  46.468  0.00  0.00     0.189 C 
HETATM    9  C   UNK N   1      46.693  34.315  49.508  0.00  0.00    -0.016 C 
HETATM   10  C   UNK N   1      47.545  32.076  50.465  0.00  0.00     0.034 C 
HETATM   11  C   UNK N   1      47.696  31.580  46.139  0.00  0.00     0.020 C 
HETATM   12  C   UNK N   1      48.476  31.794  49.250  0.00  0.00     0.013 C 
HETATM   13  C   UNK N   1      45.994  32.638  47.574  0.00  0.00     0.034 C 
HETATM   14  C   UNK N   1      49.680  33.910  48.431  0.00  0.00     0.016 C 
HETATM   15  C   UNK N   1      46.412  31.704  46.467  0.00  0.00    -0.013 C 
HETATM   16  C   UNK N   1      45.142  34.365  49.679  0.00  0.00     0.018 C 
HETATM   17  C   UNK N   1      47.138  35.800  49.534  0.00  0.00     0.018 C 
ENDROOT
BRANCH   3  18
HETATM   18  O   UNK N   1      46.626  33.772  51.894  0.00  0.00    -0.316 OA
BRANCH  18  19
HETATM   19  C   UNK N   1      47.155  33.921  53.137  0.00  0.00     0.255 C 
HETATM   20  O   UNK N   1      47.077  33.025  53.965  0.00  0.00    -0.266 OA
HETATM   21  C   UNK N   1      47.853  35.194  53.484  0.00  0.00     0.126 C 
ENDBRANCH  18  19
ENDBRANCH   3  18
TORSDOF 2
ENDMDL
MODEL 3
REMARK VINA RESULT:      -5.9     12.554     14.834
REMARK  2 active torsions:
REMARK  status: ('A' for Active; 'I' for Inactive)
REMARK    1  A    between atoms: O_1  and  C_5 
REMARK    2  A    between atoms: O_1  and  C_9 
ROOT
HETATM    1  O   UNK N   1      45.772  33.663  46.412  0.00  0.00    -0.260 OA
HETATM    2  O   UNK N   1      47.760  32.634  46.715  0.00  0.00    -0.317 OA
HETATM    3  C   UNK N   1      47.940  32.275  53.220  0.00  0.00     0.140 C 
HETATM    4  C   UNK N   1      48.359  32.900  50.427  0.00  0.00    -0.029 C 
HETATM    5  C   UNK N   1      48.195  33.280  48.927  0.00  0.00     0.057 C 
HETATM    6  C   UNK N   1      47.688  34.042  51.278  0.00  0.00     0.008 C 
HETATM    7  C   UNK N   1      46.720  33.375  47.124  0.00  0.00     0.289 C 
HETATM    8  C   UNK N   1      48.566  32.274  47.792  0.00  0.00     0.189 C 
HETATM    9  C   UNK N   1      47.829  33.815  52.861  0.00  0.00    -0.016 C 
HETATM   10  C   UNK N   1      47.152  31.407  52.232  0.00  0.00     0.034 C 
HETATM   11  C   UNK N   1      46.836  33.670  48.522  0.00  0.00     0.020 C 
HETATM   12  C   UNK N   1      47.675  31.532  50.772  0.00  0.00     0.013 C 
HETATM   13  C   UNK N   1      46.189  34.266  50.824  0.00  0.00     0.034 C 
HETATM   14  C   UNK N   1      49.901  32.807  50.639  0.00  0.00     0.016 C 
HETATM   15  C   UNK N   1      45.911  34.154  49.347  0.00  0.00    -0.013 C 
HETATM   16  C   UNK N   1      46.644  34.475  53.633  0.00  0.00     0.018 C 
HETATM   17  C   UNK N   1      49.094  34.531  53.401  0.00  0.00     0.018 C 
ENDROOT
BRANCH   3  18
HETATM   18  O   UNK N   1      47.513  32.042  54.519  0.00  0.00    -0.316 OA
BRANCH  18  19
HETATM   19  C   UNK N   1      48.337  31.821  55.578  0.00  0.00     0.255 C 
HETATM   20  O   UNK N   1      48.270  32.516  56.581  0.00  0.00    -0.266 OA
HETATM   21  C   UNK N   1      49.323  30.702  55.513  0.00  0.00     0.126 C 
ENDBRANCH  18  19
ENDBRANCH   3  18
TORSDOF 2
ENDMDL
