MODEL 1
REMARK VINA RESULT:      -6.1      0.000      0.000
REMARK  4 active torsions:
REMARK  status: ('A' for Active; 'I' for Inactive)
REMARK    1  A    between atoms: O_1  and  C_6 
REMARK    2  A    between atoms: O_2  and  C_7 
REMARK    3  A    between atoms: O_3  and  C_8 
REMARK    4  A    between atoms: O_4  and  C_9 
ROOT
HETATM    1  N   UNK N   1      50.410  32.746  47.818  0.00  0.00    -0.355 N 
HETATM    2  C   UNK N   1      50.859  31.443  44.364  0.00  0.00     0.114 A 
HETATM    3  C   UNK N   1      50.043  30.896  43.330  0.00  0.00     0.102 A 
HETATM    4  C   UNK N   1      47.444  33.757  51.844  0.00  0.00     0.101 A 
HETATM    5  C   UNK N   1      46.575  33.621  50.744  0.00  0.00     0.099 A 
HETATM    6  C   UNK N   1      49.054  32.601  48.002  0.00  0.00     0.046 A 
HETATM    7  C   UNK N   1      51.011  32.364  46.647  0.00  0.00     0.106 A 
HETATM    8  C   UNK N   1      50.253  31.821  45.591  0.00  0.00     0.026 A 
HETATM    9  C   UNK N   1      48.865  31.667  45.772  0.00  0.00    -0.020 A 
HETATM   10  C   UNK N   1      48.453  32.988  49.320  0.00  0.00    -0.000 A 
HETATM   11  C   UNK N   1      49.320  33.127  50.420  0.00  0.00    -0.041 A 
HETATM   12  C   UNK N   1      47.077  33.235  49.494  0.00  0.00     0.053 A 
HETATM   13  C   UNK N   1      48.819  33.511  51.669  0.00  0.00     0.047 A 
HETATM   14  C   UNK N   1      48.661  30.737  43.548  0.00  0.00     0.040 A 
HETATM   15  C   UNK N   1      48.267  32.059  46.973  0.00  0.00     0.043 A 
HETATM   16  C   UNK N   1      48.082  31.120  44.752  0.00  0.00     0.015 A 
HETATM   17  C   UNK N   1      51.225  33.366  48.885  0.00  0.00     0.133 C 
HETATM   18  C   UNK N   1      50.788  32.828  50.244  0.00  0.00     0.060 C 
ENDROOT
BRANCH   2  19
HETATM   19  O   UNK N   1      52.205  31.631  44.216  0.00  0.00    -0.352 OA
HETATM   20  C   UNK N   1      52.833  32.636  43.505  0.00  0.00     0.210 C 
ENDBRANCH   2  19
BRANCH   3  21
HETATM   21  O   UNK N   1      50.606  30.537  42.144  0.00  0.00    -0.353 OA
HETATM   22  C   UNK N   1      50.517  31.226  40.955  0.00  0.00     0.210 C 
ENDBRANCH   3  21
BRANCH   5  23
HETATM   23  O   UNK N   1      45.251  33.862  50.869  0.00  0.00    -0.358 OA
HETATM   24  H   UNK N   1      44.579  33.304  50.452  0.00  0.00     0.218 HD
ENDBRANCH   5  23
BRANCH   4  25
HETATM   25  O   UNK N   1      46.930  34.114  53.053  0.00  0.00    -0.353 OA
HETATM   26  C   UNK N   1      47.118  33.417  54.230  0.00  0.00     0.210 C 
ENDBRANCH   4  25
TORSDOF 4
ENDMDL
MODEL 2
REMARK VINA RESULT:      -6.1     16.162     18.086
REMARK  4 active torsions:
REMARK  status: ('A' for Active; 'I' for Inactive)
REMARK    1  A    between atoms: O_1  and  C_6 
REMARK    2  A    between atoms: O_2  and  C_7 
REMARK    3  A    between atoms: O_3  and  C_8 
REMARK    4  A    between atoms: O_4  and  C_9 
ROOT
HETATM    1  N   UNK N   1      39.104  46.408  46.494  0.00  0.00    -0.355 N 
HETATM    2  C   UNK N   1      38.835  48.942  43.785  0.00  0.00     0.114 A 
HETATM    3  C   UNK N   1      39.509  50.134  43.387  0.00  0.00     0.102 A 
HETATM    4  C   UNK N   1      41.310  44.655  50.747  0.00  0.00     0.101 A 
HETATM    5  C   UNK N   1      42.229  45.554  50.172  0.00  0.00     0.099 A 
HETATM    6  C   UNK N   1      40.178  46.876  47.215  0.00  0.00     0.046 A 
HETATM    7  C   UNK N   1      38.649  47.074  45.386  0.00  0.00     0.106 A 
HETATM    8  C   UNK N   1      39.280  48.255  44.946  0.00  0.00     0.026 A 
HETATM    9  C   UNK N   1      40.379  48.742  45.678  0.00  0.00    -0.020 A 
HETATM   10  C   UNK N   1      40.605  46.138  48.447  0.00  0.00    -0.000 A 
HETATM   11  C   UNK N   1      39.688  45.235  49.021  0.00  0.00    -0.041 A 
HETATM   12  C   UNK N   1      41.876  46.292  49.034  0.00  0.00     0.053 A 
HETATM   13  C   UNK N   1      40.040  44.499  50.158  0.00  0.00     0.047 A 
HETATM   14  C   UNK N   1      40.593  50.605  44.151  0.00  0.00     0.040 A 
HETATM   15  C   UNK N   1      40.829  48.052  46.807  0.00  0.00     0.043 A 
HETATM   16  C   UNK N   1      41.022  49.916  45.280  0.00  0.00     0.015 A 
HETATM   17  C   UNK N   1      38.456  45.141  46.896  0.00  0.00     0.133 C 
HETATM   18  C   UNK N   1      38.314  45.095  48.415  0.00  0.00     0.060 C 
ENDROOT
BRANCH   2  19
HETATM   19  O   UNK N   1      37.780  48.425  43.086  0.00  0.00    -0.352 OA
HETATM   20  C   UNK N   1      36.525  48.985  42.935  0.00  0.00     0.210 C 
ENDBRANCH   2  19
BRANCH   3  21
HETATM   21  O   UNK N   1      39.101  50.800  42.273  0.00  0.00    -0.353 OA
HETATM   22  C   UNK N   1      39.515  52.051  41.870  0.00  0.00     0.210 C 
ENDBRANCH   3  21
BRANCH   5  23
HETATM   23  O   UNK N   1      43.463  45.720  50.700  0.00  0.00    -0.358 OA
HETATM   24  H   UNK N   1      44.270  45.610  50.179  0.00  0.00     0.218 HD
ENDBRANCH   5  23
BRANCH   4  25
HETATM   25  O   UNK N   1      41.669  43.963  51.863  0.00  0.00    -0.353 OA
HETATM   26  C   UNK N   1      40.791  43.490  52.817  0.00  0.00     0.210 C 
ENDBRANCH   4  25
TORSDOF 4
ENDMDL
MODEL 3
REMARK VINA RESULT:      -6.0      1.840      7.950
REMARK  4 active torsions:
REMARK  status: ('A' for Active; 'I' for Inactive)
REMARK    1  A    between atoms: O_1  and  C_6 
REMARK    2  A    between atoms: O_2  and  C_7 
REMARK    3  A    between atoms: O_3  and  C_8 
REMARK    4  A    between atoms: O_4  and  C_9 
ROOT
HETATM    1  N   UNK N   1      50.181  31.388  46.659  0.00  0.00    -0.355 N 
HETATM    2  C   UNK N   1      47.375  32.532  48.815  0.00  0.00     0.114 A 
HETATM    3  C   UNK N   1      46.024  32.959  48.648  0.00  0.00     0.102 A 
HETATM    4  C   UNK N   1      52.130  30.376  42.054  0.00  0.00     0.101 A 
HETATM    5  C   UNK N   1      50.730  30.386  41.893  0.00  0.00     0.099 A 
HETATM    6  C   UNK N   1      49.615  31.440  45.406  0.00  0.00     0.046 A 
HETATM    7  C   UNK N   1      49.470  31.751  47.773  0.00  0.00     0.106 A 
HETATM    8  C   UNK N   1      48.131  32.177  47.667  0.00  0.00     0.026 A 
HETATM    9  C   UNK N   1      47.544  32.235  46.388  0.00  0.00    -0.020 A 
HETATM   10  C   UNK N   1      50.451  31.081  44.215  0.00  0.00    -0.000 A 
HETATM   11  C   UNK N   1      51.850  31.067  44.376  0.00  0.00    -0.041 A 
HETATM   12  C   UNK N   1      49.900  30.740  42.964  0.00  0.00     0.053 A 
HETATM   13  C   UNK N   1      52.680  30.714  43.306  0.00  0.00     0.047 A 
HETATM   14  C   UNK N   1      45.473  33.024  47.354  0.00  0.00     0.040 A 
HETATM   15  C   UNK N   1      48.284  31.865  45.262  0.00  0.00     0.043 A 
HETATM   16  C   UNK N   1      46.224  32.665  46.241  0.00  0.00     0.015 A 
HETATM   17  C   UNK N   1      51.565  30.890  46.811  0.00  0.00     0.133 C 
HETATM   18  C   UNK N   1      52.443  31.466  45.704  0.00  0.00     0.060 C 
ENDROOT
BRANCH   2  19
HETATM   19  O   UNK N   1      47.970  32.439  50.043  0.00  0.00    -0.352 OA
HETATM   20  C   UNK N   1      48.552  33.463  50.766  0.00  0.00     0.210 C 
ENDBRANCH   2  19
BRANCH   3  21
HETATM   21  O   UNK N   1      45.282  33.295  49.739  0.00  0.00    -0.353 OA
HETATM   22  C   UNK N   1      45.011  34.572  50.181  0.00  0.00     0.210 C 
ENDBRANCH   3  21
BRANCH   5  23
HETATM   23  O   UNK N   1      50.165  30.053  40.711  0.00  0.00    -0.358 OA
HETATM   24  H   UNK N   1      49.821  30.714  40.094  0.00  0.00     0.218 HD
ENDBRANCH   5  23
BRANCH   4  25
HETATM   25  O   UNK N   1      52.917  30.046  40.994  0.00  0.00    -0.353 OA
HETATM   26  C   UNK N   1      53.608  30.949  40.211  0.00  0.00     0.210 C 
ENDBRANCH   4  25
TORSDOF 4
ENDMDL
MODEL 4
REMARK VINA RESULT:      -5.9      1.207      8.244
REMARK  4 active torsions:
REMARK  status: ('A' for Active; 'I' for Inactive)
REMARK    1  A    between atoms: O_1  and  C_6 
REMARK    2  A    between atoms: O_2  and  C_7 
REMARK    3  A    between atoms: O_3  and  C_8 
REMARK    4  A    between atoms: O_4  and  C_9 
ROOT
HETATM    1  N   UNK N   1      48.057  32.083  46.836  0.00  0.00    -0.355 N 
HETATM    2  C   UNK N   1      47.480  32.898  50.418  0.00  0.00     0.114 A 
HETATM    3  C   UNK N   1      48.266  33.178  51.576  0.00  0.00     0.102 A 
HETATM    4  C   UNK N   1      51.210  31.142  42.937  0.00  0.00     0.101 A 
HETATM    5  C   UNK N   1      51.982  31.802  43.913  0.00  0.00     0.099 A 
HETATM    6  C   UNK N   1      49.431  32.095  46.760  0.00  0.00     0.046 A 
HETATM    7  C   UNK N   1      47.410  32.330  48.019  0.00  0.00     0.106 A 
HETATM    8  C   UNK N   1      48.138  32.616  49.192  0.00  0.00     0.026 A 
HETATM    9  C   UNK N   1      49.544  32.628  49.124  0.00  0.00    -0.020 A 
HETATM   10  C   UNK N   1      50.090  31.769  45.454  0.00  0.00    -0.000 A 
HETATM   11  C   UNK N   1      49.319  31.113  44.476  0.00  0.00    -0.041 A 
HETATM   12  C   UNK N   1      51.426  32.108  45.162  0.00  0.00     0.053 A 
HETATM   13  C   UNK N   1      49.873  30.806  43.229  0.00  0.00     0.047 A 
HETATM   14  C   UNK N   1      49.671  33.165  51.479  0.00  0.00     0.040 A 
HETATM   15  C   UNK N   1      50.188  32.372  47.911  0.00  0.00     0.043 A 
HETATM   16  C   UNK N   1      50.299  32.895  50.268  0.00  0.00     0.015 A 
HETATM   17  C   UNK N   1      47.264  31.843  45.611  0.00  0.00     0.133 C 
HETATM   18  C   UNK N   1      47.899  30.718  44.800  0.00  0.00     0.060 C 
ENDROOT
BRANCH   2  19
HETATM   19  O   UNK N   1      46.113  32.901  50.440  0.00  0.00    -0.352 OA
HETATM   20  C   UNK N   1      45.278  33.980  50.214  0.00  0.00     0.210 C 
ENDBRANCH   2  19
BRANCH   3  21
HETATM   21  O   UNK N   1      47.652  33.458  52.757  0.00  0.00    -0.353 OA
HETATM   22  C   UNK N   1      47.536  34.700  53.344  0.00  0.00     0.210 C 
ENDBRANCH   3  21
BRANCH   5  23
HETATM   23  O   UNK N   1      53.263  32.153  43.665  0.00  0.00    -0.358 OA
HETATM   24  H   UNK N   1      53.629  32.187  42.770  0.00  0.00     0.218 HD
ENDBRANCH   5  23
BRANCH   4  25
HETATM   25  O   UNK N   1      51.777  30.839  41.737  0.00  0.00    -0.353 OA
HETATM   26  C   UNK N   1      51.318  31.278  40.511  0.00  0.00     0.210 C 
ENDBRANCH   4  25
TORSDOF 4
ENDMDL
MODEL 5
REMARK VINA RESULT:      -5.5      2.296      8.588
REMARK  4 active torsions:
REMARK  status: ('A' for Active; 'I' for Inactive)
REMARK    1  A    between atoms: O_1  and  C_6 
REMARK    2  A    between atoms: O_2  and  C_7 
REMARK    3  A    between atoms: O_3  and  C_8 
REMARK    4  A    between atoms: O_4  and  C_9 
ROOT
HETATM    1  N   UNK N   1      49.743  31.269  44.827  0.00  0.00    -0.355 N 
HETATM    2  C   UNK N   1      48.942  31.509  48.451  0.00  0.00     0.114 A 
HETATM    3  C   UNK N   1      49.459  32.171  49.604  0.00  0.00     0.102 A 
HETATM    4  C   UNK N   1      52.689  32.448  40.833  0.00  0.00     0.101 A 
HETATM    5  C   UNK N   1      52.966  33.413  41.820  0.00  0.00     0.099 A 
HETATM    6  C   UNK N   1      50.845  32.088  44.726  0.00  0.00     0.046 A 
HETATM    7  C   UNK N   1      49.123  31.062  46.032  0.00  0.00     0.106 A 
HETATM    8  C   UNK N   1      49.590  31.694  47.202  0.00  0.00     0.026 A 
HETATM    9  C   UNK N   1      50.717  32.532  47.107  0.00  0.00    -0.020 A 
HETATM   10  C   UNK N   1      51.517  32.241  43.395  0.00  0.00    -0.000 A 
HETATM   11  C   UNK N   1      51.239  31.278  42.405  0.00  0.00    -0.041 A 
HETATM   12  C   UNK N   1      52.387  33.306  43.092  0.00  0.00     0.053 A 
HETATM   13  C   UNK N   1      51.817  31.384  41.136  0.00  0.00     0.047 A 
HETATM   14  C   UNK N   1      50.599  32.988  49.479  0.00  0.00     0.040 A 
HETATM   15  C   UNK N   1      51.340  32.730  45.872  0.00  0.00     0.043 A 
HETATM   16  C   UNK N   1      51.217  33.166  48.247  0.00  0.00     0.015 A 
HETATM   17  C   UNK N   1      49.194  30.636  43.609  0.00  0.00     0.133 C 
HETATM   18  C   UNK N   1      50.335  30.117  42.740  0.00  0.00     0.060 C 
ENDROOT
BRANCH   2  19
HETATM   19  O   UNK N   1      47.835  30.707  48.499  0.00  0.00    -0.352 OA
HETATM   20  C   UNK N   1      46.513  31.113  48.534  0.00  0.00     0.210 C 
ENDBRANCH   2  19
BRANCH   3  21
HETATM   21  O   UNK N   1      48.845  32.011  50.807  0.00  0.00    -0.353 OA
HETATM   22  C   UNK N   1      48.843  32.912  51.850  0.00  0.00     0.210 C 
ENDBRANCH   3  21
BRANCH   5  23
HETATM   23  O   UNK N   1      53.786  34.456  41.563  0.00  0.00    -0.358 OA
HETATM   24  H   UNK N   1      54.063  35.081  42.247  0.00  0.00     0.218 HD
ENDBRANCH   5  23
BRANCH   4  25
HETATM   25  O   UNK N   1      53.278  32.562  39.611  0.00  0.00    -0.353 OA
HETATM   26  C   UNK N   1      54.242  31.708  39.114  0.00  0.00     0.210 C 
ENDBRANCH   4  25
TORSDOF 4
ENDMDL
MODEL 6
REMARK VINA RESULT:      -5.5      1.461      7.858
REMARK  4 active torsions:
REMARK  status: ('A' for Active; 'I' for Inactive)
REMARK    1  A    between atoms: O_1  and  C_6 
REMARK    2  A    between atoms: O_2  and  C_7 
REMARK    3  A    between atoms: O_3  and  C_8 
REMARK    4  A    between atoms: O_4  and  C_9 
ROOT
HETATM    1  N   UNK N   1      50.122  31.545  48.642  0.00  0.00    -0.355 N 
HETATM    2  C   UNK N   1      48.630  33.303  51.560  0.00  0.00     0.114 A 
HETATM    3  C   UNK N   1      47.579  34.235  51.804  0.00  0.00     0.102 A 
HETATM    4  C   UNK N   1      50.340  30.639  43.626  0.00  0.00     0.101 A 
HETATM    5  C   UNK N   1      49.074  31.210  43.865  0.00  0.00     0.099 A 
HETATM    6  C   UNK N   1      49.352  32.016  47.603  0.00  0.00     0.046 A 
HETATM    7  C   UNK N   1      49.907  31.963  49.929  0.00  0.00     0.106 A 
HETATM    8  C   UNK N   1      48.880  32.880  50.228  0.00  0.00     0.026 A 
HETATM    9  C   UNK N   1      48.088  33.368  49.171  0.00  0.00    -0.020 A 
HETATM   10  C   UNK N   1      49.660  31.566  46.207  0.00  0.00    -0.000 A 
HETATM   11  C   UNK N   1      50.923  30.992  45.967  0.00  0.00    -0.041 A 
HETATM   12  C   UNK N   1      48.741  31.673  45.145  0.00  0.00     0.053 A 
HETATM   13  C   UNK N   1      51.257  30.530  44.689  0.00  0.00     0.047 A 
HETATM   14  C   UNK N   1      46.817  34.719  50.723  0.00  0.00     0.040 A 
HETATM   15  C   UNK N   1      48.322  32.935  47.863  0.00  0.00     0.043 A 
HETATM   16  C   UNK N   1      47.069  34.289  49.425  0.00  0.00     0.015 A 
HETATM   17  C   UNK N   1      51.170  30.538  48.370  0.00  0.00     0.133 C 
HETATM   18  C   UNK N   1      51.921  30.909  47.095  0.00  0.00     0.060 C 
ENDROOT
BRANCH   2  19
HETATM   19  O   UNK N   1      49.403  32.788  52.563  0.00  0.00    -0.352 OA
HETATM   20  C   UNK N   1      49.079  31.748  53.415  0.00  0.00     0.210 C 
ENDBRANCH   2  19
BRANCH   3  21
HETATM   21  O   UNK N   1      47.321  34.644  53.076  0.00  0.00    -0.353 OA
HETATM   22  C   UNK N   1      48.124  35.448  53.855  0.00  0.00     0.210 C 
ENDBRANCH   3  21
BRANCH   5  23
HETATM   23  O   UNK N   1      48.162  31.319  42.874  0.00  0.00    -0.358 OA
HETATM   24  H   UNK N   1      47.819  32.173  42.574  0.00  0.00     0.218 HD
ENDBRANCH   5  23
BRANCH   4  25
HETATM   25  O   UNK N   1      50.648  30.214  42.370  0.00  0.00    -0.353 OA
HETATM   26  C   UNK N   1      51.428  30.910  41.468  0.00  0.00     0.210 C 
ENDBRANCH   4  25
TORSDOF 4
ENDMDL
MODEL 7
REMARK VINA RESULT:      -5.5      1.526      3.040
REMARK  4 active torsions:
REMARK  status: ('A' for Active; 'I' for Inactive)
REMARK    1  A    between atoms: O_1  and  C_6 
REMARK    2  A    between atoms: O_2  and  C_7 
REMARK    3  A    between atoms: O_3  and  C_8 
REMARK    4  A    between atoms: O_4  and  C_9 
ROOT
HETATM    1  N   UNK N   1      48.234  32.268  48.100  0.00  0.00    -0.355 N 
HETATM    2  C   UNK N   1      50.114  31.769  44.930  0.00  0.00     0.114 A 
HETATM    3  C   UNK N   1      51.468  31.840  44.485  0.00  0.00     0.102 A 
HETATM    4  C   UNK N   1      48.098  33.507  53.047  0.00  0.00     0.101 A 
HETATM    5  C   UNK N   1      49.440  33.189  52.761  0.00  0.00     0.099 A 
HETATM    6  C   UNK N   1      49.241  32.598  48.978  0.00  0.00     0.046 A 
HETATM    7  C   UNK N   1      48.501  32.008  46.781  0.00  0.00     0.106 A 
HETATM    8  C   UNK N   1      49.820  32.060  46.289  0.00  0.00     0.026 A 
HETATM    9  C   UNK N   1      50.856  32.399  47.180  0.00  0.00    -0.020 A 
HETATM   10  C   UNK N   1      48.890  32.923  50.399  0.00  0.00    -0.000 A 
HETATM   11  C   UNK N   1      47.548  33.238  50.687  0.00  0.00    -0.041 A 
HETATM   12  C   UNK N   1      49.831  32.904  51.446  0.00  0.00     0.053 A 
HETATM   13  C   UNK N   1      47.157  33.524  51.999  0.00  0.00     0.047 A 
HETATM   14  C   UNK N   1      52.478  32.199  45.397  0.00  0.00     0.040 A 
HETATM   15  C   UNK N   1      50.567  32.664  48.521  0.00  0.00     0.043 A 
HETATM   16  C   UNK N   1      52.175  32.473  46.726  0.00  0.00     0.015 A 
HETATM   17  C   UNK N   1      46.847  32.149  48.597  0.00  0.00     0.133 C 
HETATM   18  C   UNK N   1      46.546  33.293  49.561  0.00  0.00     0.060 C 
ENDROOT
BRANCH   2  19
HETATM   19  O   UNK N   1      49.085  31.419  44.101  0.00  0.00    -0.352 OA
HETATM   20  C   UNK N   1      48.593  30.147  43.874  0.00  0.00     0.210 C 
ENDBRANCH   2  19
BRANCH   3  21
HETATM   21  O   UNK N   1      51.768  31.556  43.189  0.00  0.00    -0.353 OA
HETATM   22  C   UNK N   1      52.151  30.331  42.688  0.00  0.00     0.210 C 
ENDBRANCH   3  21
BRANCH   5  23
HETATM   23  O   UNK N   1      50.369  33.149  53.742  0.00  0.00    -0.358 OA
HETATM   24  H   UNK N   1      51.288  32.896  53.577  0.00  0.00     0.218 HD
ENDBRANCH   5  23
BRANCH   4  25
HETATM   25  O   UNK N   1      47.745  33.799  54.329  0.00  0.00    -0.353 OA
HETATM   26  C   UNK N   1      47.260  32.886  55.244  0.00  0.00     0.210 C 
ENDBRANCH   4  25
TORSDOF 4
ENDMDL
MODEL 8
REMARK VINA RESULT:      -5.2      2.826      4.488
REMARK  4 active torsions:
REMARK  status: ('A' for Active; 'I' for Inactive)
REMARK    1  A    between atoms: O_1  and  C_6 
REMARK    2  A    between atoms: O_2  and  C_7 
REMARK    3  A    between atoms: O_3  and  C_8 
REMARK    4  A    between atoms: O_4  and  C_9 
ROOT
HETATM    1  N   UNK N   1      48.047  33.009  50.351  0.00  0.00    -0.355 N 
HETATM    2  C   UNK N   1      47.738  32.153  46.745  0.00  0.00     0.114 A 
HETATM    3  C   UNK N   1      48.604  31.808  45.666  0.00  0.00     0.102 A 
HETATM    4  C   UNK N   1      50.897  33.859  54.496  0.00  0.00     0.101 A 
HETATM    5  C   UNK N   1      51.713  33.140  53.601  0.00  0.00     0.099 A 
HETATM    6  C   UNK N   1      49.406  32.925  50.547  0.00  0.00     0.046 A 
HETATM    7  C   UNK N   1      47.492  32.773  49.120  0.00  0.00     0.106 A 
HETATM    8  C   UNK N   1      48.301  32.425  48.020  0.00  0.00     0.026 A 
HETATM    9  C   UNK N   1      49.693  32.338  48.211  0.00  0.00    -0.020 A 
HETATM   10  C   UNK N   1      49.967  33.242  51.900  0.00  0.00    -0.000 A 
HETATM   11  C   UNK N   1      49.151  33.959  52.797  0.00  0.00    -0.041 A 
HETATM   12  C   UNK N   1      51.252  32.839  52.313  0.00  0.00     0.053 A 
HETATM   13  C   UNK N   1      49.612  34.261  54.083  0.00  0.00     0.047 A 
HETATM   14  C   UNK N   1      49.994  31.748  45.885  0.00  0.00     0.040 A 
HETATM   15  C   UNK N   1      50.243  32.585  49.472  0.00  0.00     0.043 A 
HETATM   16  C   UNK N   1      50.529  32.008  47.141  0.00  0.00     0.015 A 
HETATM   17  C   UNK N   1      47.165  33.316  51.498  0.00  0.00     0.133 C 
HETATM   18  C   UNK N   1      47.789  34.422  52.344  0.00  0.00     0.060 C 
ENDROOT
BRANCH   2  19
HETATM   19  O   UNK N   1      46.379  32.222  46.604  0.00  0.00    -0.352 OA
HETATM   20  C   UNK N   1      45.642  33.303  46.157  0.00  0.00     0.210 C 
ENDBRANCH   2  19
BRANCH   3  21
HETATM   21  O   UNK N   1      48.080  31.536  44.440  0.00  0.00    -0.353 OA
HETATM   22  C   UNK N   1      48.631  30.717  43.479  0.00  0.00     0.210 C 
ENDBRANCH   3  21
BRANCH   5  23
HETATM   23  O   UNK N   1      52.947  32.726  53.966  0.00  0.00    -0.358 OA
HETATM   24  H   UNK N   1      53.255  31.820  53.823  0.00  0.00     0.218 HD
ENDBRANCH   5  23
BRANCH   4  25
HETATM   25  O   UNK N   1      51.374  34.157  55.736  0.00  0.00    -0.353 OA
HETATM   26  C   UNK N   1      52.381  35.064  56.000  0.00  0.00     0.210 C 
ENDBRANCH   4  25
TORSDOF 4
ENDMDL
MODEL 9
REMARK VINA RESULT:      -5.2     22.972     23.747
REMARK  4 active torsions:
REMARK  status: ('A' for Active; 'I' for Inactive)
REMARK    1  A    between atoms: O_1  and  C_6 
REMARK    2  A    between atoms: O_2  and  C_7 
REMARK    3  A    between atoms: O_3  and  C_8 
REMARK    4  A    between atoms: O_4  and  C_9 
ROOT
HETATM    1  N   UNK N   1      28.777  40.406  55.637  0.00  0.00    -0.355 N 
HETATM    2  C   UNK N   1      27.069  40.353  52.333  0.00  0.00     0.114 A 
HETATM    3  C   UNK N   1      26.961  41.198  51.189  0.00  0.00     0.102 A 
HETATM    4  C   UNK N   1      31.716  42.742  59.091  0.00  0.00     0.101 A 
HETATM    5  C   UNK N   1      31.967  43.387  57.864  0.00  0.00     0.099 A 
HETATM    6  C   UNK N   1      29.436  41.613  55.596  0.00  0.00     0.046 A 
HETATM    7  C   UNK N   1      27.995  39.989  54.590  0.00  0.00     0.106 A 
HETATM    8  C   UNK N   1      27.856  40.783  53.434  0.00  0.00     0.026 A 
HETATM    9  C   UNK N   1      28.526  42.020  53.384  0.00  0.00    -0.020 A 
HETATM   10  C   UNK N   1      30.237  42.045  56.786  0.00  0.00    -0.000 A 
HETATM   11  C   UNK N   1      29.990  41.399  58.013  0.00  0.00    -0.041 A 
HETATM   12  C   UNK N   1      31.230  43.043  56.724  0.00  0.00     0.053 A 
HETATM   13  C   UNK N   1      30.725  41.743  59.152  0.00  0.00     0.047 A 
HETATM   14  C   UNK N   1      27.628  42.438  51.178  0.00  0.00     0.040 A 
HETATM   15  C   UNK N   1      29.316  42.432  54.461  0.00  0.00     0.043 A 
HETATM   16  C   UNK N   1      28.401  42.841  52.261  0.00  0.00     0.015 A 
HETATM   17  C   UNK N   1      28.949  39.524  56.811  0.00  0.00     0.133 C 
HETATM   18  C   UNK N   1      28.903  40.355  58.089  0.00  0.00     0.060 C 
ENDROOT
BRANCH   2  19
HETATM   19  O   UNK N   1      26.454  39.134  52.407  0.00  0.00    -0.352 OA
HETATM   20  C   UNK N   1      25.121  38.889  52.681  0.00  0.00     0.210 C 
ENDBRANCH   2  19
BRANCH   3  21
HETATM   21  O   UNK N   1      26.218  40.797  50.122  0.00  0.00    -0.353 OA
HETATM   22  C   UNK N   1      25.390  41.591  49.357  0.00  0.00     0.210 C 
ENDBRANCH   3  21
BRANCH   5  23
HETATM   23  O   UNK N   1      32.919  44.340  57.763  0.00  0.00    -0.358 OA
HETATM   24  H   UNK N   1      33.514  44.402  57.002  0.00  0.00     0.218 HD
ENDBRANCH   5  23
BRANCH   4  25
HETATM   25  O   UNK N   1      32.432  43.106  60.190  0.00  0.00    -0.353 OA
HETATM   26  C   UNK N   1      33.612  42.516  60.596  0.00  0.00     0.210 C 
ENDBRANCH   4  25
TORSDOF 4
ENDMDL
