MODEL 1
REMARK VINA RESULT:      -8.0      0.000      0.000
REMARK  7 active torsions:
REMARK  status: ('A' for Active; 'I' for Inactive)
REMARK    1  A    between atoms: O_1  and  C_4 
REMARK    2  A    between atoms: O_2  and  C_5 
REMARK    3  A    between atoms: C_6  and  C_17 
REMARK    4  A    between atoms: C_7  and  C_18 
REMARK    5  A    between atoms: C_16  and  C_19 
REMARK    6  A    between atoms: C_16  and  C_20 
REMARK    7  A    between atoms: C_18  and  C_20 
ROOT
HETATM    1  O   UNK N   1      43.326  47.953  48.185  0.00  0.00    -0.293 OA
HETATM    2  C   UNK N   1      42.287  47.338  47.995  0.00  0.00     0.149 C 
ENDROOT
BRANCH   2   3
HETATM    3  C   UNK N   1      41.615  46.633  49.114  0.00  0.00     0.051 C 
HETATM    4  C   UNK N   1      42.290  45.816  49.945  0.00  0.00     0.015 C 
BRANCH   4   5
HETATM    5  C   UNK N   1      41.658  45.124  51.102  0.00  0.00    -0.036 A 
HETATM    6  C   UNK N   1      40.661  44.170  50.845  0.00  0.00     0.014 A 
HETATM    7  C   UNK N   1      40.059  43.468  51.896  0.00  0.00     0.037 A 
HETATM    8  C   UNK N   1      40.434  43.727  53.215  0.00  0.00     0.065 A 
HETATM    9  C   UNK N   1      41.414  44.690  53.488  0.00  0.00     0.037 A 
HETATM   10  C   UNK N   1      42.030  45.382  52.438  0.00  0.00     0.014 A 
BRANCH   8  11
HETATM   11  O   UNK N   1      39.844  43.044  54.221  0.00  0.00    -0.361 OA
HETATM   12  H   UNK N   1      39.041  42.527  54.082  0.00  0.00     0.217 HD
ENDBRANCH   8  11
ENDBRANCH   4   5
ENDBRANCH   2   3
BRANCH   2  13
HETATM   13  C   UNK N   1      41.678  47.312  46.615  0.00  0.00     0.087 C 
BRANCH  13  14
HETATM   14  C   UNK N   1      40.719  46.131  46.434  0.00  0.00     0.046 C 
BRANCH  14  15
HETATM   15  C   UNK N   1      41.438  44.911  45.912  0.00  0.00    -0.058 A 
HETATM   16  C   UNK N   1      41.880  44.862  44.582  0.00  0.00     0.010 A 
HETATM   17  C   UNK N   1      42.546  43.726  44.103  0.00  0.00     0.037 A 
HETATM   18  C   UNK N   1      42.763  42.634  44.947  0.00  0.00     0.065 A 
HETATM   19  C   UNK N   1      42.318  42.677  46.275  0.00  0.00     0.037 A 
HETATM   20  C   UNK N   1      41.661  43.813  46.757  0.00  0.00     0.010 A 
BRANCH  18  21
HETATM   21  O   UNK N   1      43.403  41.542  44.474  0.00  0.00    -0.361 OA
HETATM   22  H   UNK N   1      43.025  40.998  43.769  0.00  0.00     0.217 HD
ENDBRANCH  18  21
ENDBRANCH  14  15
ENDBRANCH  13  14
ENDBRANCH   2  13
TORSDOF 7
ENDMDL
MODEL 2
REMARK VINA RESULT:      -7.8      3.704      5.096
REMARK  7 active torsions:
REMARK  status: ('A' for Active; 'I' for Inactive)
REMARK    1  A    between atoms: O_1  and  C_4 
REMARK    2  A    between atoms: O_2  and  C_5 
REMARK    3  A    between atoms: C_6  and  C_17 
REMARK    4  A    between atoms: C_7  and  C_18 
REMARK    5  A    between atoms: C_16  and  C_19 
REMARK    6  A    between atoms: C_16  and  C_20 
REMARK    7  A    between atoms: C_18  and  C_20 
ROOT
HETATM    1  O   UNK N   1      38.515  45.803  46.005  0.00  0.00    -0.293 OA
HETATM    2  C   UNK N   1      39.398  46.223  46.738  0.00  0.00     0.149 C 
ENDROOT
BRANCH   2   3
HETATM    3  C   UNK N   1      39.617  45.617  48.075  0.00  0.00     0.051 C 
HETATM    4  C   UNK N   1      40.768  45.786  48.750  0.00  0.00     0.015 C 
BRANCH   4   5
HETATM    5  C   UNK N   1      41.009  45.228  50.110  0.00  0.00    -0.036 A 
HETATM    6  C   UNK N   1      41.992  45.828  50.913  0.00  0.00     0.014 A 
HETATM    7  C   UNK N   1      42.233  45.361  52.210  0.00  0.00     0.037 A 
HETATM    8  C   UNK N   1      41.509  44.278  52.710  0.00  0.00     0.065 A 
HETATM    9  C   UNK N   1      40.539  43.656  51.913  0.00  0.00     0.037 A 
HETATM   10  C   UNK N   1      40.283  44.132  50.620  0.00  0.00     0.014 A 
BRANCH   8  11
HETATM   11  O   UNK N   1      41.753  43.835  53.964  0.00  0.00    -0.361 OA
HETATM   12  H   UNK N   1      41.731  42.895  54.184  0.00  0.00     0.217 HD
ENDBRANCH   8  11
ENDBRANCH   4   5
ENDBRANCH   2   3
BRANCH   2  13
HETATM   13  C   UNK N   1      40.279  47.354  46.272  0.00  0.00     0.087 C 
BRANCH  13  14
HETATM   14  C   UNK N   1      39.541  48.697  46.281  0.00  0.00     0.046 C 
BRANCH  14  15
HETATM   15  C   UNK N   1      39.303  49.206  44.881  0.00  0.00    -0.058 A 
HETATM   16  C   UNK N   1      40.090  50.245  44.360  0.00  0.00     0.010 A 
HETATM   17  C   UNK N   1      39.863  50.714  43.059  0.00  0.00     0.037 A 
HETATM   18  C   UNK N   1      38.845  50.156  42.281  0.00  0.00     0.065 A 
HETATM   19  C   UNK N   1      38.053  49.123  42.801  0.00  0.00     0.037 A 
HETATM   20  C   UNK N   1      38.284  48.647  44.095  0.00  0.00     0.010 A 
BRANCH  18  21
HETATM   21  O   UNK N   1      38.632  50.619  41.029  0.00  0.00    -0.361 OA
HETATM   22  H   UNK N   1      38.386  51.540  40.864  0.00  0.00     0.217 HD
ENDBRANCH  18  21
ENDBRANCH  14  15
ENDBRANCH  13  14
ENDBRANCH   2  13
TORSDOF 7
ENDMDL
MODEL 3
REMARK VINA RESULT:      -7.3      3.465      8.072
REMARK  7 active torsions:
REMARK  status: ('A' for Active; 'I' for Inactive)
REMARK    1  A    between atoms: O_1  and  C_4 
REMARK    2  A    between atoms: O_2  and  C_5 
REMARK    3  A    between atoms: C_6  and  C_17 
REMARK    4  A    between atoms: C_7  and  C_18 
REMARK    5  A    between atoms: C_16  and  C_19 
REMARK    6  A    between atoms: C_16  and  C_20 
REMARK    7  A    between atoms: C_18  and  C_20 
ROOT
HETATM    1  O   UNK N   1      41.882  48.285  48.400  0.00  0.00    -0.293 OA
HETATM    2  C   UNK N   1      41.527  47.410  47.623  0.00  0.00     0.149 C 
ENDROOT
BRANCH   2   3
HETATM    3  C   UNK N   1      40.963  47.766  46.298  0.00  0.00     0.051 C 
HETATM    4  C   UNK N   1      40.079  48.771  46.150  0.00  0.00     0.015 C 
BRANCH   4   5
HETATM    5  C   UNK N   1      39.522  49.182  44.831  0.00  0.00    -0.036 A 
HETATM    6  C   UNK N   1      40.137  50.246  44.151  0.00  0.00     0.014 A 
HETATM    7  C   UNK N   1      39.672  50.649  42.894  0.00  0.00     0.037 A 
HETATM    8  C   UNK N   1      38.576  50.009  42.315  0.00  0.00     0.065 A 
HETATM    9  C   UNK N   1      37.940  48.960  42.991  0.00  0.00     0.037 A 
HETATM   10  C   UNK N   1      38.413  48.542  44.241  0.00  0.00     0.014 A 
BRANCH   8  11
HETATM   11  O   UNK N   1      38.135  50.410  41.101  0.00  0.00    -0.361 OA
HETATM   12  H   UNK N   1      37.708  51.266  40.973  0.00  0.00     0.217 HD
ENDBRANCH   8  11
ENDBRANCH   4   5
ENDBRANCH   2   3
BRANCH   2  13
HETATM   13  C   UNK N   1      41.680  45.961  48.011  0.00  0.00     0.087 C 
BRANCH  13  14
HETATM   14  C   UNK N   1      40.455  45.439  48.769  0.00  0.00     0.046 C 
BRANCH  14  15
HETATM   15  C   UNK N   1      40.815  45.010  50.170  0.00  0.00    -0.058 A 
HETATM   16  C   UNK N   1      40.125  43.956  50.789  0.00  0.00     0.010 A 
HETATM   17  C   UNK N   1      40.463  43.563  52.091  0.00  0.00     0.037 A 
HETATM   18  C   UNK N   1      41.481  44.227  52.781  0.00  0.00     0.065 A 
HETATM   19  C   UNK N   1      42.167  45.284  52.169  0.00  0.00     0.037 A 
HETATM   20  C   UNK N   1      41.838  45.672  50.866  0.00  0.00     0.010 A 
BRANCH  18  21
HETATM   21  O   UNK N   1      41.796  43.842  54.038  0.00  0.00    -0.361 OA
HETATM   22  H   UNK N   1      41.113  43.618  54.686  0.00  0.00     0.217 HD
ENDBRANCH  18  21
ENDBRANCH  14  15
ENDBRANCH  13  14
ENDBRANCH   2  13
TORSDOF 7
ENDMDL
MODEL 4
REMARK VINA RESULT:      -6.2      2.042      5.989
REMARK  7 active torsions:
REMARK  status: ('A' for Active; 'I' for Inactive)
REMARK    1  A    between atoms: O_1  and  C_4 
REMARK    2  A    between atoms: O_2  and  C_5 
REMARK    3  A    between atoms: C_6  and  C_17 
REMARK    4  A    between atoms: C_7  and  C_18 
REMARK    5  A    between atoms: C_16  and  C_19 
REMARK    6  A    between atoms: C_16  and  C_20 
REMARK    7  A    between atoms: C_18  and  C_20 
ROOT
HETATM    1  O   UNK N   1      39.967  47.980  44.756  0.00  0.00    -0.293 OA
HETATM    2  C   UNK N   1      40.213  47.327  45.760  0.00  0.00     0.149 C 
ENDROOT
BRANCH   2   3
HETATM    3  C   UNK N   1      41.251  46.268  45.731  0.00  0.00     0.051 C 
HETATM    4  C   UNK N   1      40.940  44.974  45.529  0.00  0.00     0.015 C 
BRANCH   4   5
HETATM    5  C   UNK N   1      41.958  43.890  45.453  0.00  0.00    -0.036 A 
HETATM    6  C   UNK N   1      42.053  42.989  46.526  0.00  0.00     0.014 A 
HETATM    7  C   UNK N   1      42.971  41.933  46.489  0.00  0.00     0.037 A 
HETATM    8  C   UNK N   1      43.817  41.780  45.390  0.00  0.00     0.065 A 
HETATM    9  C   UNK N   1      43.747  42.682  44.321  0.00  0.00     0.037 A 
HETATM   10  C   UNK N   1      42.818  43.730  44.347  0.00  0.00     0.014 A 
BRANCH   8  11
HETATM   11  O   UNK N   1      44.701  40.757  45.367  0.00  0.00    -0.361 OA
HETATM   12  H   UNK N   1      44.737  40.101  46.075  0.00  0.00     0.217 HD
ENDBRANCH   8  11
ENDBRANCH   4   5
ENDBRANCH   2   3
BRANCH   2  13
HETATM   13  C   UNK N   1      39.464  47.612  47.037  0.00  0.00     0.087 C 
BRANCH  13  14
HETATM   14  C   UNK N   1      38.698  46.384  47.539  0.00  0.00     0.046 C 
BRANCH  14  15
HETATM   15  C   UNK N   1      39.512  45.593  48.533  0.00  0.00    -0.058 A 
HETATM   16  C   UNK N   1      39.165  44.269  48.842  0.00  0.00     0.010 A 
HETATM   17  C   UNK N   1      39.924  43.541  49.767  0.00  0.00     0.037 A 
HETATM   18  C   UNK N   1      41.024  44.135  50.393  0.00  0.00     0.065 A 
HETATM   19  C   UNK N   1      41.370  45.459  50.091  0.00  0.00     0.037 A 
HETATM   20  C   UNK N   1      40.619  46.184  49.162  0.00  0.00     0.010 A 
BRANCH  18  21
HETATM   21  O   UNK N   1      41.747  43.424  51.286  0.00  0.00    -0.361 OA
HETATM   22  H   UNK N   1      41.325  42.835  51.927  0.00  0.00     0.217 HD
ENDBRANCH  18  21
ENDBRANCH  14  15
ENDBRANCH  13  14
ENDBRANCH   2  13
TORSDOF 7
ENDMDL
MODEL 5
REMARK VINA RESULT:      -6.0     13.685     16.101
REMARK  7 active torsions:
REMARK  status: ('A' for Active; 'I' for Inactive)
REMARK    1  A    between atoms: O_1  and  C_4 
REMARK    2  A    between atoms: O_2  and  C_5 
REMARK    3  A    between atoms: C_6  and  C_17 
REMARK    4  A    between atoms: C_7  and  C_18 
REMARK    5  A    between atoms: C_16  and  C_19 
REMARK    6  A    between atoms: C_16  and  C_20 
REMARK    7  A    between atoms: C_18  and  C_20 
ROOT
HETATM    1  O   UNK N   1      33.576  54.674  45.320  0.00  0.00    -0.293 OA
HETATM    2  C   UNK N   1      32.766  54.235  44.515  0.00  0.00     0.149 C 
ENDROOT
BRANCH   2   3
HETATM    3  C   UNK N   1      32.234  55.101  43.435  0.00  0.00     0.051 C 
HETATM    4  C   UNK N   1      30.931  55.091  43.095  0.00  0.00     0.015 C 
BRANCH   4   5
HETATM    5  C   UNK N   1      30.354  55.975  42.045  0.00  0.00    -0.036 A 
HETATM    6  C   UNK N   1      30.945  55.971  40.771  0.00  0.00     0.014 A 
HETATM    7  C   UNK N   1      30.419  56.760  39.741  0.00  0.00     0.037 A 
HETATM    8  C   UNK N   1      29.312  57.575  39.979  0.00  0.00     0.065 A 
HETATM    9  C   UNK N   1      28.723  57.604  41.250  0.00  0.00     0.037 A 
HETATM   10  C   UNK N   1      29.236  56.803  42.279  0.00  0.00     0.014 A 
BRANCH   8  11
HETATM   11  O   UNK N   1      28.815  58.333  38.976  0.00  0.00    -0.361 OA
HETATM   12  H   UNK N   1      29.039  59.268  38.887  0.00  0.00     0.217 HD
ENDBRANCH   8  11
ENDBRANCH   4   5
ENDBRANCH   2   3
BRANCH   2  13
HETATM   13  C   UNK N   1      32.321  52.798  44.616  0.00  0.00     0.087 C 
BRANCH  13  14
HETATM   14  C   UNK N   1      33.269  51.850  43.875  0.00  0.00     0.046 C 
BRANCH  14  15
HETATM   15  C   UNK N   1      32.516  50.934  42.941  0.00  0.00    -0.058 A 
HETATM   16  C   UNK N   1      31.811  51.459  41.847  0.00  0.00     0.010 A 
HETATM   17  C   UNK N   1      31.113  50.603  40.985  0.00  0.00     0.037 A 
HETATM   18  C   UNK N   1      31.108  49.225  41.218  0.00  0.00     0.065 A 
HETATM   19  C   UNK N   1      31.806  48.698  42.313  0.00  0.00     0.037 A 
HETATM   20  C   UNK N   1      32.511  49.550  43.170  0.00  0.00     0.010 A 
BRANCH  18  21
HETATM   21  O   UNK N   1      30.428  48.409  40.382  0.00  0.00    -0.361 OA
HETATM   22  H   UNK N   1      30.654  48.342  39.444  0.00  0.00     0.217 HD
ENDBRANCH  18  21
ENDBRANCH  14  15
ENDBRANCH  13  14
ENDBRANCH   2  13
TORSDOF 7
ENDMDL
MODEL 6
REMARK VINA RESULT:      -6.0      3.241      6.768
REMARK  7 active torsions:
REMARK  status: ('A' for Active; 'I' for Inactive)
REMARK    1  A    between atoms: O_1  and  C_4 
REMARK    2  A    between atoms: O_2  and  C_5 
REMARK    3  A    between atoms: C_6  and  C_17 
REMARK    4  A    between atoms: C_7  and  C_18 
REMARK    5  A    between atoms: C_16  and  C_19 
REMARK    6  A    between atoms: C_16  and  C_20 
REMARK    7  A    between atoms: C_18  and  C_20 
ROOT
HETATM    1  O   UNK N   1      42.903  46.541  47.729  0.00  0.00    -0.293 OA
HETATM    2  C   UNK N   1      41.723  46.572  47.411  0.00  0.00     0.149 C 
ENDROOT
BRANCH   2   3
HETATM    3  C   UNK N   1      41.294  47.290  46.186  0.00  0.00     0.051 C 
HETATM    4  C   UNK N   1      40.430  48.321  46.235  0.00  0.00     0.015 C 
BRANCH   4   5
HETATM    5  C   UNK N   1      40.008  49.092  45.032  0.00  0.00    -0.036 A 
HETATM    6  C   UNK N   1      38.931  48.606  44.274  0.00  0.00     0.014 A 
HETATM    7  C   UNK N   1      38.475  49.310  43.154  0.00  0.00     0.037 A 
HETATM    8  C   UNK N   1      39.103  50.495  42.768  0.00  0.00     0.065 A 
HETATM    9  C   UNK N   1      40.191  50.982  43.504  0.00  0.00     0.037 A 
HETATM   10  C   UNK N   1      40.640  50.288  44.636  0.00  0.00     0.014 A 
BRANCH   8  11
HETATM   11  O   UNK N   1      38.654  51.165  41.683  0.00  0.00    -0.361 OA
HETATM   12  H   UNK N   1      39.207  51.294  40.902  0.00  0.00     0.217 HD
ENDBRANCH   8  11
ENDBRANCH   4   5
ENDBRANCH   2   3
BRANCH   2  13
HETATM   13  C   UNK N   1      40.702  45.861  48.264  0.00  0.00     0.087 C 
BRANCH  13  14
HETATM   14  C   UNK N   1      39.968  44.766  47.486  0.00  0.00     0.046 C 
BRANCH  14  15
HETATM   15  C   UNK N   1      40.925  43.926  46.676  0.00  0.00    -0.058 A 
HETATM   16  C   UNK N   1      41.760  42.992  47.308  0.00  0.00     0.010 A 
HETATM   17  C   UNK N   1      42.647  42.216  46.551  0.00  0.00     0.037 A 
HETATM   18  C   UNK N   1      42.712  42.379  45.164  0.00  0.00     0.065 A 
HETATM   19  C   UNK N   1      41.885  43.315  44.530  0.00  0.00     0.037 A 
HETATM   20  C   UNK N   1      40.992  44.084  45.283  0.00  0.00     0.010 A 
BRANCH  18  21
HETATM   21  O   UNK N   1      43.575  41.628  44.444  0.00  0.00    -0.361 OA
HETATM   22  H   UNK N   1      44.058  40.890  44.841  0.00  0.00     0.217 HD
ENDBRANCH  18  21
ENDBRANCH  14  15
ENDBRANCH  13  14
ENDBRANCH   2  13
TORSDOF 7
ENDMDL
MODEL 7
REMARK VINA RESULT:      -5.9     13.339     15.631
REMARK  7 active torsions:
REMARK  status: ('A' for Active; 'I' for Inactive)
REMARK    1  A    between atoms: O_1  and  C_4 
REMARK    2  A    between atoms: O_2  and  C_5 
REMARK    3  A    between atoms: C_6  and  C_17 
REMARK    4  A    between atoms: C_7  and  C_18 
REMARK    5  A    between atoms: C_16  and  C_19 
REMARK    6  A    between atoms: C_16  and  C_20 
REMARK    7  A    between atoms: C_18  and  C_20 
ROOT
HETATM    1  O   UNK N   1      33.682  56.142  45.249  0.00  0.00    -0.293 OA
HETATM    2  C   UNK N   1      33.174  55.265  44.566  0.00  0.00     0.149 C 
ENDROOT
BRANCH   2   3
HETATM    3  C   UNK N   1      31.786  55.413  44.063  0.00  0.00     0.051 C 
HETATM    4  C   UNK N   1      31.499  55.361  42.749  0.00  0.00     0.015 C 
BRANCH   4   5
HETATM    5  C   UNK N   1      30.114  55.465  42.210  0.00  0.00    -0.036 A 
HETATM    6  C   UNK N   1      29.445  54.281  41.859  0.00  0.00     0.014 A 
HETATM    7  C   UNK N   1      28.132  54.323  41.379  0.00  0.00     0.037 A 
HETATM    8  C   UNK N   1      27.481  55.547  41.225  0.00  0.00     0.065 A 
HETATM    9  C   UNK N   1      28.142  56.738  41.553  0.00  0.00     0.037 A 
HETATM   10  C   UNK N   1      29.452  56.699  42.050  0.00  0.00     0.014 A 
BRANCH   8  11
HETATM   11  O   UNK N   1      26.212  55.574  40.758  0.00  0.00    -0.361 OA
HETATM   12  H   UNK N   1      25.653  56.355  40.854  0.00  0.00     0.217 HD
ENDBRANCH   8  11
ENDBRANCH   4   5
ENDBRANCH   2   3
BRANCH   2  13
HETATM   13  C   UNK N   1      33.972  54.032  44.222  0.00  0.00     0.087 C 
BRANCH  13  14
HETATM   14  C   UNK N   1      33.556  52.825  45.068  0.00  0.00     0.046 C 
BRANCH  14  15
HETATM   15  C   UNK N   1      33.075  51.685  44.205  0.00  0.00    -0.058 A 
HETATM   16  C   UNK N   1      33.470  50.367  44.484  0.00  0.00     0.010 A 
HETATM   17  C   UNK N   1      33.020  49.313  43.678  0.00  0.00     0.037 A 
HETATM   18  C   UNK N   1      32.186  49.572  42.587  0.00  0.00     0.065 A 
HETATM   19  C   UNK N   1      31.795  50.887  42.302  0.00  0.00     0.037 A 
HETATM   20  C   UNK N   1      32.235  51.939  43.110  0.00  0.00     0.010 A 
BRANCH  18  21
HETATM   21  O   UNK N   1      31.762  48.547  41.814  0.00  0.00    -0.361 OA
HETATM   22  H   UNK N   1      32.172  47.673  41.861  0.00  0.00     0.217 HD
ENDBRANCH  18  21
ENDBRANCH  14  15
ENDBRANCH  13  14
ENDBRANCH   2  13
TORSDOF 7
ENDMDL
MODEL 8
REMARK VINA RESULT:      -5.7     12.589     13.777
REMARK  7 active torsions:
REMARK  status: ('A' for Active; 'I' for Inactive)
REMARK    1  A    between atoms: O_1  and  C_4 
REMARK    2  A    between atoms: O_2  and  C_5 
REMARK    3  A    between atoms: C_6  and  C_17 
REMARK    4  A    between atoms: C_7  and  C_18 
REMARK    5  A    between atoms: C_16  and  C_19 
REMARK    6  A    between atoms: C_16  and  C_20 
REMARK    7  A    between atoms: C_18  and  C_20 
ROOT
HETATM    1  O   UNK N   1      50.610  33.696  47.866  0.00  0.00    -0.293 OA
HETATM    2  C   UNK N   1      49.695  32.935  48.146  0.00  0.00     0.149 C 
ENDROOT
BRANCH   2   3
HETATM    3  C   UNK N   1      49.272  32.754  49.556  0.00  0.00     0.051 C 
HETATM    4  C   UNK N   1      48.487  33.651  50.182  0.00  0.00     0.015 C 
BRANCH   4   5
HETATM    5  C   UNK N   1      48.009  33.483  51.582  0.00  0.00    -0.036 A 
HETATM    6  C   UNK N   1      48.073  32.204  52.159  0.00  0.00     0.014 A 
HETATM    7  C   UNK N   1      47.666  32.001  53.483  0.00  0.00     0.037 A 
HETATM    8  C   UNK N   1      47.174  33.067  54.236  0.00  0.00     0.065 A 
HETATM    9  C   UNK N   1      47.087  34.344  53.668  0.00  0.00     0.037 A 
HETATM   10  C   UNK N   1      47.509  34.555  52.348  0.00  0.00     0.014 A 
BRANCH   8  11
HETATM   11  O   UNK N   1      46.784  32.857  55.513  0.00  0.00    -0.361 OA
HETATM   12  H   UNK N   1      47.227  33.285  56.257  0.00  0.00     0.217 HD
ENDBRANCH   8  11
ENDBRANCH   4   5
ENDBRANCH   2   3
BRANCH   2  13
HETATM   13  C   UNK N   1      48.985  32.188  47.045  0.00  0.00     0.087 C 
BRANCH  13  14
HETATM   14  C   UNK N   1      47.640  32.831  46.692  0.00  0.00     0.046 C 
BRANCH  14  15
HETATM   15  C   UNK N   1      46.514  32.240  47.505  0.00  0.00    -0.058 A 
HETATM   16  C   UNK N   1      45.571  33.074  48.124  0.00  0.00     0.010 A 
HETATM   17  C   UNK N   1      44.529  32.519  48.878  0.00  0.00     0.037 A 
HETATM   18  C   UNK N   1      44.432  31.132  49.024  0.00  0.00     0.065 A 
HETATM   19  C   UNK N   1      45.375  30.296  48.412  0.00  0.00     0.037 A 
HETATM   20  C   UNK N   1      46.411  30.848  47.652  0.00  0.00     0.010 A 
BRANCH  18  21
HETATM   21  O   UNK N   1      43.425  30.607  49.757  0.00  0.00    -0.361 OA
HETATM   22  H   UNK N   1      43.584  29.921  50.419  0.00  0.00     0.217 HD
ENDBRANCH  18  21
ENDBRANCH  14  15
ENDBRANCH  13  14
ENDBRANCH   2  13
TORSDOF 7
ENDMDL
MODEL 9
REMARK VINA RESULT:      -5.5     12.084     14.276
REMARK  7 active torsions:
REMARK  status: ('A' for Active; 'I' for Inactive)
REMARK    1  A    between atoms: O_1  and  C_4 
REMARK    2  A    between atoms: O_2  and  C_5 
REMARK    3  A    between atoms: C_6  and  C_17 
REMARK    4  A    between atoms: C_7  and  C_18 
REMARK    5  A    between atoms: C_16  and  C_19 
REMARK    6  A    between atoms: C_16  and  C_20 
REMARK    7  A    between atoms: C_18  and  C_20 
ROOT
HETATM    1  O   UNK N   1      47.826  35.394  53.880  0.00  0.00    -0.293 OA
HETATM    2  C   UNK N   1      48.287  34.460  53.239  0.00  0.00     0.149 C 
ENDROOT
BRANCH   2   3
HETATM    3  C   UNK N   1      47.617  33.998  51.998  0.00  0.00     0.051 C 
HETATM    4  C   UNK N   1      47.384  34.830  50.966  0.00  0.00     0.015 C 
BRANCH   4   5
HETATM    5  C   UNK N   1      46.752  34.392  49.690  0.00  0.00    -0.036 A 
HETATM    6  C   UNK N   1      45.424  33.937  49.726  0.00  0.00     0.014 A 
HETATM    7  C   UNK N   1      44.775  33.545  48.550  0.00  0.00     0.037 A 
HETATM    8  C   UNK N   1      45.450  33.586  47.330  0.00  0.00     0.065 A 
HETATM    9  C   UNK N   1      46.781  34.020  47.281  0.00  0.00     0.037 A 
HETATM   10  C   UNK N   1      47.430  34.428  48.454  0.00  0.00     0.014 A 
BRANCH   8  11
HETATM   11  O   UNK N   1      44.812  33.204  46.202  0.00  0.00    -0.361 OA
HETATM   12  H   UNK N   1      44.127  33.750  45.796  0.00  0.00     0.217 HD
ENDBRANCH   8  11
ENDBRANCH   4   5
ENDBRANCH   2   3
BRANCH   2  13
HETATM   13  C   UNK N   1      49.552  33.786  53.707  0.00  0.00     0.087 C 
BRANCH  13  14
HETATM   14  C   UNK N   1      49.934  32.601  52.815  0.00  0.00     0.046 C 
BRANCH  14  15
HETATM   15  C   UNK N   1      50.910  33.012  51.740  0.00  0.00    -0.058 A 
HETATM   16  C   UNK N   1      52.169  33.528  52.084  0.00  0.00     0.010 A 
HETATM   17  C   UNK N   1      53.071  33.908  51.081  0.00  0.00     0.037 A 
HETATM   18  C   UNK N   1      52.715  33.784  49.735  0.00  0.00     0.065 A 
HETATM   19  C   UNK N   1      51.456  33.275  49.388  0.00  0.00     0.037 A 
HETATM   20  C   UNK N   1      50.559  32.886  50.387  0.00  0.00     0.010 A 
BRANCH  18  21
HETATM   21  O   UNK N   1      53.591  34.158  48.776  0.00  0.00    -0.361 OA
HETATM   22  H   UNK N   1      53.305  34.639  47.988  0.00  0.00     0.217 HD
ENDBRANCH  18  21
ENDBRANCH  14  15
ENDBRANCH  13  14
ENDBRANCH   2  13
TORSDOF 7
ENDMDL
