MODEL 1
REMARK VINA RESULT:      -7.2      0.000      0.000
REMARK  3 active torsions:
REMARK  status: ('A' for Active; 'I' for Inactive)
REMARK    1  A    between atoms: O_1  and  C_4 
REMARK    2  A    between atoms: O_2  and  C_5 
REMARK    3  A    between atoms: C_11  and  C_20 
ROOT
HETATM    1  O   UNK N   1      41.881  44.207  54.156  0.00  0.00    -0.298 OA
HETATM    2  C   UNK N   1      41.857  48.710  46.065  0.00  0.00     0.176 C 
HETATM    3  C   UNK N   1      40.474  49.067  45.484  0.00  0.00     0.151 C 
HETATM    4  C   UNK N   1      40.540  44.063  50.898  0.00  0.00    -0.029 C 
HETATM    5  C   UNK N   1      41.220  45.438  50.953  0.00  0.00     0.006 C 
HETATM    6  C   UNK N   1      41.626  45.996  49.569  0.00  0.00    -0.001 C 
HETATM    7  C   UNK N   1      40.379  46.051  48.648  0.00  0.00     0.003 C 
HETATM    8  C   UNK N   1      40.769  46.584  47.206  0.00  0.00    -0.014 C 
HETATM    9  C   UNK N   1      40.259  43.817  52.410  0.00  0.00     0.063 C 
HETATM   10  C   UNK N   1      41.513  44.413  53.011  0.00  0.00     0.132 C 
HETATM   11  C   UNK N   1      41.671  47.835  47.303  0.00  0.00    -0.044 C 
HETATM   12  C   UNK N   1      39.656  47.793  45.190  0.00  0.00     0.036 C 
HETATM   13  C   UNK N   1      39.256  44.194  50.045  0.00  0.00     0.011 C 
HETATM   14  C   UNK N   1      42.270  45.300  52.063  0.00  0.00     0.084 C 
HETATM   15  C   UNK N   1      39.589  44.698  48.628  0.00  0.00     0.007 C 
HETATM   16  C   UNK N   1      42.194  47.418  49.735  0.00  0.00     0.033 C 
HETATM   17  C   UNK N   1      39.442  46.999  46.489  0.00  0.00     0.017 C 
HETATM   18  C   UNK N   1      41.484  42.957  50.314  0.00  0.00     0.016 C 
HETATM   19  C   UNK N   1      41.510  45.503  46.370  0.00  0.00     0.020 C 
HETATM   20  C   UNK N   1      42.274  48.205  48.456  0.00  0.00    -0.020 C 
ENDROOT
BRANCH   2  21
HETATM   21  O   UNK N   1      42.631  48.023  45.114  0.00  0.00    -0.389 OA
HETATM   22  H   UNK N   1      43.367  47.571  45.603  0.00  0.00     0.210 HD
ENDBRANCH   2  21
BRANCH   3  23
HETATM   23  O   UNK N   1      40.599  49.874  44.339  0.00  0.00    -0.393 OA
HETATM   24  H   UNK N   1      40.583  50.824  44.626  0.00  0.00     0.210 HD
ENDBRANCH   3  23
BRANCH   9  25
HETATM   25  C   UNK N   1      39.961  42.348  52.785  0.00  0.00     0.008 C 
HETATM   26  C   UNK N   1      38.881  42.235  53.861  0.00  0.00     0.006 C 
ENDBRANCH   9  25
TORSDOF 3
ENDMDL
MODEL 2
REMARK VINA RESULT:      -6.7     13.540     16.328
REMARK  3 active torsions:
REMARK  status: ('A' for Active; 'I' for Inactive)
REMARK    1  A    between atoms: O_1  and  C_4 
REMARK    2  A    between atoms: O_2  and  C_5 
REMARK    3  A    between atoms: C_11  and  C_20 
ROOT
HETATM    1  O   UNK N   1      45.187  33.321  45.960  0.00  0.00    -0.298 OA
HETATM    2  C   UNK N   1      49.211  34.421  54.226  0.00  0.00     0.176 C 
HETATM    3  C   UNK N   1      50.734  34.661  54.220  0.00  0.00     0.151 C 
HETATM    4  C   UNK N   1      47.815  32.084  47.959  0.00  0.00    -0.029 C 
HETATM    5  C   UNK N   1      47.311  33.309  48.735  0.00  0.00     0.006 C 
HETATM    6  C   UNK N   1      47.614  33.263  50.251  0.00  0.00    -0.001 C 
HETATM    7  C   UNK N   1      49.139  33.083  50.467  0.00  0.00     0.003 C 
HETATM    8  C   UNK N   1      49.480  32.994  52.013  0.00  0.00    -0.014 C 
HETATM    9  C   UNK N   1      47.372  32.455  46.513  0.00  0.00     0.063 C 
HETATM   10  C   UNK N   1      46.042  33.113  46.805  0.00  0.00     0.132 C 
HETATM   11  C   UNK N   1      48.747  34.099  52.806  0.00  0.00    -0.044 C 
HETATM   12  C   UNK N   1      51.478  33.452  53.615  0.00  0.00     0.036 C 
HETATM   13  C   UNK N   1      49.350  32.003  48.132  0.00  0.00     0.011 C 
HETATM   14  C   UNK N   1      45.869  33.502  48.246  0.00  0.00     0.084 C 
HETATM   15  C   UNK N   1      49.729  31.903  49.622  0.00  0.00     0.007 C 
HETATM   16  C   UNK N   1      47.163  34.584  50.905  0.00  0.00     0.033 C 
HETATM   17  C   UNK N   1      51.019  33.230  52.165  0.00  0.00     0.017 C 
HETATM   18  C   UNK N   1      47.132  30.757  48.435  0.00  0.00     0.016 C 
HETATM   19  C   UNK N   1      49.092  31.613  52.613  0.00  0.00     0.020 C 
HETATM   20  C   UNK N   1      47.732  34.819  52.277  0.00  0.00    -0.020 C 
ENDROOT
BRANCH   2  21
HETATM   21  O   UNK N   1      48.880  33.358  55.083  0.00  0.00    -0.389 OA
HETATM   22  H   UNK N   1      47.890  33.332  55.154  0.00  0.00     0.210 HD
ENDBRANCH   2  21
BRANCH   3  23
HETATM   23  O   UNK N   1      51.205  34.960  55.511  0.00  0.00    -0.393 OA
HETATM   24  H   UNK N   1      51.248  35.948  55.603  0.00  0.00     0.210 HD
ENDBRANCH   3  23
BRANCH   9  25
HETATM   25  C   UNK N   1      47.337  31.269  45.520  0.00  0.00     0.008 C 
HETATM   26  C   UNK N   1      48.619  31.172  44.693  0.00  0.00     0.006 C 
ENDBRANCH   9  25
TORSDOF 3
ENDMDL
MODEL 3
REMARK VINA RESULT:      -6.4     12.272     15.769
REMARK  3 active torsions:
REMARK  status: ('A' for Active; 'I' for Inactive)
REMARK    1  A    between atoms: O_1  and  C_4 
REMARK    2  A    between atoms: O_2  and  C_5 
REMARK    3  A    between atoms: C_11  and  C_20 
ROOT
HETATM    1  O   UNK N   1      34.388  51.927  44.802  0.00  0.00    -0.298 OA
HETATM    2  C   UNK N   1      27.235  53.469  39.129  0.00  0.00     0.176 C 
HETATM    3  C   UNK N   1      27.295  54.758  38.285  0.00  0.00     0.151 C 
HETATM    4  C   UNK N   1      31.976  54.360  43.968  0.00  0.00    -0.029 C 
HETATM    5  C   UNK N   1      31.803  53.287  42.883  0.00  0.00     0.006 C 
HETATM    6  C   UNK N   1      30.400  53.269  42.233  0.00  0.00    -0.001 C 
HETATM    7  C   UNK N   1      30.082  54.672  41.653  0.00  0.00     0.003 C 
HETATM    8  C   UNK N   1      28.633  54.699  41.011  0.00  0.00    -0.014 C 
HETATM    9  C   UNK N   1      33.457  54.115  44.384  0.00  0.00     0.063 C 
HETATM   10  C   UNK N   1      33.509  52.606  44.298  0.00  0.00     0.132 C 
HETATM   11  C   UNK N   1      28.400  53.460  40.116  0.00  0.00    -0.044 C 
HETATM   12  C   UNK N   1      27.312  56.008  39.191  0.00  0.00     0.036 C 
HETATM   13  C   UNK N   1      31.739  55.744  43.318  0.00  0.00     0.011 C 
HETATM   14  C   UNK N   1      32.371  52.010  43.518  0.00  0.00     0.084 C 
HETATM   15  C   UNK N   1      30.334  55.820  42.690  0.00  0.00     0.007 C 
HETATM   16  C   UNK N   1      30.377  52.233  41.092  0.00  0.00     0.033 C 
HETATM   17  C   UNK N   1      28.548  55.971  40.105  0.00  0.00     0.017 C 
HETATM   18  C   UNK N   1      31.007  54.142  45.179  0.00  0.00     0.016 C 
HETATM   19  C   UNK N   1      27.519  54.742  42.095  0.00  0.00     0.020 C 
HETATM   20  C   UNK N   1      29.214  52.380  40.149  0.00  0.00    -0.020 C 
ENDROOT
BRANCH   2  21
HETATM   21  O   UNK N   1      26.021  53.394  39.832  0.00  0.00    -0.389 OA
HETATM   22  H   UNK N   1      25.822  52.432  39.976  0.00  0.00     0.210 HD
ENDBRANCH   2  21
BRANCH   3  23
HETATM   23  O   UNK N   1      26.236  54.810  37.361  0.00  0.00    -0.393 OA
HETATM   24  H   UNK N   1      25.787  53.924  37.356  0.00  0.00     0.210 HD
ENDBRANCH   3  23
BRANCH   9  25
HETATM   25  C   UNK N   1      33.859  54.730  45.744  0.00  0.00     0.008 C 
HETATM   26  C   UNK N   1      34.313  56.183  45.609  0.00  0.00     0.006 C 
ENDBRANCH   9  25
TORSDOF 3
ENDMDL
MODEL 4
REMARK VINA RESULT:      -6.3      1.493      7.379
REMARK  3 active torsions:
REMARK  status: ('A' for Active; 'I' for Inactive)
REMARK    1  A    between atoms: O_1  and  C_4 
REMARK    2  A    between atoms: O_2  and  C_5 
REMARK    3  A    between atoms: C_11  and  C_20 
ROOT
HETATM    1  O   UNK N   1      38.439  48.173  44.243  0.00  0.00    -0.298 OA
HETATM    2  C   UNK N   1      40.617  43.373  51.856  0.00  0.00     0.176 C 
HETATM    3  C   UNK N   1      41.009  44.199  53.097  0.00  0.00     0.151 C 
HETATM    4  C   UNK N   1      40.975  47.802  46.665  0.00  0.00    -0.029 C 
HETATM    5  C   UNK N   1      39.821  46.949  47.210  0.00  0.00     0.006 C 
HETATM    6  C   UNK N   1      40.269  45.824  48.172  0.00  0.00    -0.001 C 
HETATM    7  C   UNK N   1      41.080  46.438  49.342  0.00  0.00     0.003 C 
HETATM    8  C   UNK N   1      41.588  45.306  50.330  0.00  0.00    -0.014 C 
HETATM    9  C   UNK N   1      40.193  48.813  45.774  0.00  0.00     0.063 C 
HETATM   10  C   UNK N   1      39.126  47.899  45.213  0.00  0.00     0.132 C 
HETATM   11  C   UNK N   1      40.453  44.310  50.660  0.00  0.00    -0.044 C 
HETATM   12  C   UNK N   1      42.277  45.035  52.823  0.00  0.00     0.036 C 
HETATM   13  C   UNK N   1      41.693  48.464  47.864  0.00  0.00     0.011 C 
HETATM   14  C   UNK N   1      38.980  46.610  45.972  0.00  0.00     0.084 C 
HETATM   15  C   UNK N   1      42.216  47.398  48.846  0.00  0.00     0.007 C 
HETATM   16  C   UNK N   1      39.027  45.109  48.739  0.00  0.00     0.033 C 
HETATM   17  C   UNK N   1      42.019  46.006  51.660  0.00  0.00     0.017 C 
HETATM   18  C   UNK N   1      41.982  46.960  45.809  0.00  0.00     0.016 C 
HETATM   19  C   UNK N   1      42.785  44.512  49.734  0.00  0.00     0.020 C 
HETATM   20  C   UNK N   1      39.302  44.263  49.952  0.00  0.00    -0.020 C 
ENDROOT
BRANCH   2  21
HETATM   21  O   UNK N   1      41.600  42.411  51.570  0.00  0.00    -0.389 OA
HETATM   22  H   UNK N   1      42.463  42.892  51.466  0.00  0.00     0.210 HD
ENDBRANCH   2  21
BRANCH   3  23
HETATM   23  O   UNK N   1      41.172  43.374  54.224  0.00  0.00    -0.393 OA
HETATM   24  H   UNK N   1      41.522  43.931  54.967  0.00  0.00     0.210 HD
ENDBRANCH   3  23
BRANCH   9  25
HETATM   25  C   UNK N   1      41.055  49.565  44.735  0.00  0.00     0.008 C 
HETATM   26  C   UNK N   1      40.327  50.773  44.147  0.00  0.00     0.006 C 
ENDBRANCH   9  25
TORSDOF 3
ENDMDL
MODEL 5
REMARK VINA RESULT:      -6.2     14.239     16.933
REMARK  3 active torsions:
REMARK  status: ('A' for Active; 'I' for Inactive)
REMARK    1  A    between atoms: O_1  and  C_4 
REMARK    2  A    between atoms: O_2  and  C_5 
REMARK    3  A    between atoms: C_11  and  C_20 
ROOT
HETATM    1  O   UNK N   1      50.876  32.165  45.290  0.00  0.00    -0.298 OA
HETATM    2  C   UNK N   1      49.401  33.501  54.333  0.00  0.00     0.176 C 
HETATM    3  C   UNK N   1      48.687  32.361  55.086  0.00  0.00     0.151 C 
HETATM    4  C   UNK N   1      48.327  32.131  47.726  0.00  0.00    -0.029 C 
HETATM    5  C   UNK N   1      49.615  32.287  48.547  0.00  0.00     0.006 C 
HETATM    6  C   UNK N   1      49.404  32.946  49.930  0.00  0.00    -0.001 C 
HETATM    7  C   UNK N   1      48.352  32.137  50.732  0.00  0.00     0.003 C 
HETATM    8  C   UNK N   1      48.084  32.808  52.144  0.00  0.00    -0.014 C 
HETATM    9  C   UNK N   1      48.882  31.443  46.443  0.00  0.00     0.063 C 
HETATM   10  C   UNK N   1      50.204  32.165  46.308  0.00  0.00     0.132 C 
HETATM   11  C   UNK N   1      49.412  33.186  52.838  0.00  0.00    -0.044 C 
HETATM   12  C   UNK N   1      47.270  32.132  54.520  0.00  0.00     0.036 C 
HETATM   13  C   UNK N   1      47.349  31.242  48.529  0.00  0.00     0.011 C 
HETATM   14  C   UNK N   1      50.626  32.884  47.558  0.00  0.00     0.084 C 
HETATM   15  C   UNK N   1      47.049  31.863  49.906  0.00  0.00     0.007 C 
HETATM   16  C   UNK N   1      50.736  32.951  50.704  0.00  0.00     0.033 C 
HETATM   17  C   UNK N   1      47.359  31.746  53.034  0.00  0.00     0.017 C 
HETATM   18  C   UNK N   1      47.670  33.512  47.384  0.00  0.00     0.016 C 
HETATM   19  C   UNK N   1      47.209  34.087  52.020  0.00  0.00     0.020 C 
HETATM   20  C   UNK N   1      50.592  33.212  52.178  0.00  0.00    -0.020 C 
ENDROOT
BRANCH   2  21
HETATM   21  O   UNK N   1      48.747  34.725  54.552  0.00  0.00    -0.389 OA
HETATM   22  H   UNK N   1      49.405  35.447  54.378  0.00  0.00     0.210 HD
ENDBRANCH   2  21
BRANCH   3  23
HETATM   23  O   UNK N   1      48.652  32.611  56.470  0.00  0.00    -0.393 OA
HETATM   24  H   UNK N   1      48.754  31.744  56.943  0.00  0.00     0.210 HD
ENDBRANCH   3  23
BRANCH   9  25
HETATM   25  C   UNK N   1      47.946  31.507  45.214  0.00  0.00     0.008 C 
HETATM   26  C   UNK N   1      47.960  30.208  44.410  0.00  0.00     0.006 C 
ENDBRANCH   9  25
TORSDOF 3
ENDMDL
MODEL 6
REMARK VINA RESULT:      -5.7     13.709     16.677
REMARK  3 active torsions:
REMARK  status: ('A' for Active; 'I' for Inactive)
REMARK    1  A    between atoms: O_1  and  C_4 
REMARK    2  A    between atoms: O_2  and  C_5 
REMARK    3  A    between atoms: C_11  and  C_20 
ROOT
HETATM    1  O   UNK N   1      48.664  32.328  46.073  0.00  0.00    -0.298 OA
HETATM    2  C   UNK N   1      49.953  32.020  55.237  0.00  0.00     0.176 C 
HETATM    3  C   UNK N   1      48.745  31.575  56.084  0.00  0.00     0.151 C 
HETATM    4  C   UNK N   1      47.308  33.495  49.112  0.00  0.00    -0.029 C 
HETATM    5  C   UNK N   1      48.383  32.490  49.553  0.00  0.00     0.006 C 
HETATM    6  C   UNK N   1      48.928  32.736  50.980  0.00  0.00    -0.001 C 
HETATM    7  C   UNK N   1      47.750  32.737  51.988  0.00  0.00     0.003 C 
HETATM    8  C   UNK N   1      48.270  33.024  53.458  0.00  0.00    -0.014 C 
HETATM    9  C   UNK N   1      46.982  32.962  47.685  0.00  0.00     0.063 C 
HETATM   10  C   UNK N   1      48.366  32.548  47.235  0.00  0.00     0.132 C 
HETATM   11  C   UNK N   1      49.518  32.172  53.781  0.00  0.00    -0.044 C 
HETATM   12  C   UNK N   1      47.567  32.558  55.919  0.00  0.00     0.036 C 
HETATM   13  C   UNK N   1      46.120  33.390  50.096  0.00  0.00     0.011 C 
HETATM   14  C   UNK N   1      49.351  32.422  48.363  0.00  0.00     0.084 C 
HETATM   15  C   UNK N   1      46.577  33.674  51.540  0.00  0.00     0.007 C 
HETATM   16  C   UNK N   1      49.913  31.612  51.353  0.00  0.00     0.033 C 
HETATM   17  C   UNK N   1      47.131  32.606  54.446  0.00  0.00     0.017 C 
HETATM   18  C   UNK N   1      47.855  34.962  49.054  0.00  0.00     0.016 C 
HETATM   19  C   UNK N   1      48.628  34.523  53.664  0.00  0.00     0.020 C 
HETATM   20  C   UNK N   1      50.219  31.523  52.823  0.00  0.00    -0.020 C 
ENDROOT
BRANCH   2  21
HETATM   21  O   UNK N   1      50.464  33.242  55.706  0.00  0.00    -0.389 OA
HETATM   22  H   UNK N   1      50.275  33.288  56.680  0.00  0.00     0.210 HD
ENDBRANCH   2  21
BRANCH   3  23
HETATM   23  O   UNK N   1      49.101  31.424  57.437  0.00  0.00    -0.393 OA
HETATM   24  H   UNK N   1      49.849  32.047  57.630  0.00  0.00     0.210 HD
ENDBRANCH   3  23
BRANCH   9  25
HETATM   25  C   UNK N   1      46.245  33.967  46.770  0.00  0.00     0.008 C 
HETATM   26  C   UNK N   1      45.109  33.308  45.988  0.00  0.00     0.006 C 
ENDBRANCH   9  25
TORSDOF 3
ENDMDL
MODEL 7
REMARK VINA RESULT:      -5.7     12.844     15.426
REMARK  3 active torsions:
REMARK  status: ('A' for Active; 'I' for Inactive)
REMARK    1  A    between atoms: O_1  and  C_4 
REMARK    2  A    between atoms: O_2  and  C_5 
REMARK    3  A    between atoms: C_11  and  C_20 
ROOT
HETATM    1  O   UNK N   1      32.866  43.060  57.331  0.00  0.00    -0.298 OA
HETATM    2  C   UNK N   1      28.222  51.043  57.989  0.00  0.00     0.176 C 
HETATM    3  C   UNK N   1      28.336  51.793  59.331  0.00  0.00     0.151 C 
HETATM    4  C   UNK N   1      30.510  44.748  59.339  0.00  0.00    -0.029 C 
HETATM    5  C   UNK N   1      30.977  45.820  58.344  0.00  0.00     0.006 C 
HETATM    6  C   UNK N   1      29.956  46.961  58.121  0.00  0.00    -0.001 C 
HETATM    7  C   UNK N   1      29.606  47.612  59.484  0.00  0.00     0.003 C 
HETATM    8  C   UNK N   1      28.531  48.763  59.297  0.00  0.00    -0.014 C 
HETATM    9  C   UNK N   1      31.741  43.794  59.337  0.00  0.00     0.063 C 
HETATM   10  C   UNK N   1      32.124  43.860  57.875  0.00  0.00     0.132 C 
HETATM   11  C   UNK N   1      28.907  49.683  58.113  0.00  0.00    -0.044 C 
HETATM   12  C   UNK N   1      27.759  50.945  60.484  0.00  0.00     0.036 C 
HETATM   13  C   UNK N   1      30.262  45.433  60.703  0.00  0.00     0.011 C 
HETATM   14  C   UNK N   1      31.508  45.021  57.146  0.00  0.00     0.084 C 
HETATM   15  C   UNK N   1      29.213  46.553  60.571  0.00  0.00     0.007 C 
HETATM   16  C   UNK N   1      30.573  48.027  57.195  0.00  0.00     0.033 C 
HETATM   17  C   UNK N   1      28.540  49.626  60.601  0.00  0.00     0.017 C 
HETATM   18  C   UNK N   1      29.221  44.004  58.849  0.00  0.00     0.016 C 
HETATM   19  C   UNK N   1      27.107  48.191  59.047  0.00  0.00     0.020 C 
HETATM   20  C   UNK N   1      29.847  49.344  57.202  0.00  0.00    -0.020 C 
ENDROOT
BRANCH   2  21
HETATM   21  O   UNK N   1      26.875  50.863  57.634  0.00  0.00    -0.389 OA
HETATM   22  H   UNK N   1      26.514  51.751  57.377  0.00  0.00     0.210 HD
ENDBRANCH   2  21
BRANCH   3  23
HETATM   23  O   UNK N   1      27.716  53.054  59.262  0.00  0.00    -0.393 OA
HETATM   24  H   UNK N   1      28.426  53.745  59.212  0.00  0.00     0.210 HD
ENDBRANCH   3  23
BRANCH   9  25
HETATM   25  C   UNK N   1      31.469  42.381  59.903  0.00  0.00     0.008 C 
HETATM   26  C   UNK N   1      32.684  41.808  60.631  0.00  0.00     0.006 C 
ENDBRANCH   9  25
TORSDOF 3
ENDMDL
MODEL 8
REMARK VINA RESULT:      -5.5     13.238     17.013
REMARK  3 active torsions:
REMARK  status: ('A' for Active; 'I' for Inactive)
REMARK    1  A    between atoms: O_1  and  C_4 
REMARK    2  A    between atoms: O_2  and  C_5 
REMARK    3  A    between atoms: C_11  and  C_20 
ROOT
HETATM    1  O   UNK N   1      46.796  35.176  47.130  0.00  0.00    -0.298 OA
HETATM    2  C   UNK N   1      48.316  32.382  55.825  0.00  0.00     0.176 C 
HETATM    3  C   UNK N   1      49.638  31.630  56.082  0.00  0.00     0.151 C 
HETATM    4  C   UNK N   1      47.595  32.316  49.031  0.00  0.00    -0.029 C 
HETATM    5  C   UNK N   1      47.691  33.467  50.043  0.00  0.00     0.006 C 
HETATM    6  C   UNK N   1      47.490  33.030  51.514  0.00  0.00    -0.001 C 
HETATM    7  C   UNK N   1      48.514  31.920  51.867  0.00  0.00     0.003 C 
HETATM    8  C   UNK N   1      48.312  31.422  53.358  0.00  0.00    -0.014 C 
HETATM    9  C   UNK N   1      47.852  33.080  47.699  0.00  0.00     0.063 C 
HETATM   10  C   UNK N   1      47.114  34.369  47.987  0.00  0.00     0.132 C 
HETATM   11  C   UNK N   1      48.156  32.618  54.325  0.00  0.00    -0.044 C 
HETATM   12  C   UNK N   1      49.691  30.320  55.268  0.00  0.00     0.036 C 
HETATM   13  C   UNK N   1      48.695  31.283  49.371  0.00  0.00     0.011 C 
HETATM   14  C   UNK N   1      46.812  34.574  49.445  0.00  0.00     0.084 C 
HETATM   15  C   UNK N   1      48.530  30.761  50.812  0.00  0.00     0.007 C 
HETATM   16  C   UNK N   1      47.715  34.239  52.443  0.00  0.00     0.033 C 
HETATM   17  C   UNK N   1      49.601  30.636  53.767  0.00  0.00     0.017 C 
HETATM   18  C   UNK N   1      46.181  31.642  49.030  0.00  0.00     0.016 C 
HETATM   19  C   UNK N   1      47.063  30.507  53.499  0.00  0.00     0.020 C 
HETATM   20  C   UNK N   1      47.920  33.876  53.888  0.00  0.00    -0.020 C 
ENDROOT
BRANCH   2  21
HETATM   21  O   UNK N   1      47.223  31.641  56.305  0.00  0.00    -0.389 OA
HETATM   22  H   UNK N   1      47.451  30.680  56.207  0.00  0.00     0.210 HD
ENDBRANCH   2  21
BRANCH   3  23
HETATM   23  O   UNK N   1      49.825  31.389  57.455  0.00  0.00    -0.393 OA
HETATM   24  H   UNK N   1      50.801  31.401  57.640  0.00  0.00     0.210 HD
ENDBRANCH   3  23
BRANCH   9  25
HETATM   25  C   UNK N   1      47.419  32.324  46.422  0.00  0.00     0.008 C 
HETATM   26  C   UNK N   1      48.614  31.772  45.645  0.00  0.00     0.006 C 
ENDBRANCH   9  25
TORSDOF 3
ENDMDL
MODEL 9
REMARK VINA RESULT:      -5.4     13.663     16.809
REMARK  3 active torsions:
REMARK  status: ('A' for Active; 'I' for Inactive)
REMARK    1  A    between atoms: O_1  and  C_4 
REMARK    2  A    between atoms: O_2  and  C_5 
REMARK    3  A    between atoms: C_11  and  C_20 
ROOT
HETATM    1  O   UNK N   1      28.753  52.067  58.439  0.00  0.00    -0.298 OA
HETATM    2  C   UNK N   1      29.944  43.846  62.528  0.00  0.00     0.176 C 
HETATM    3  C   UNK N   1      31.241  43.089  62.180  0.00  0.00     0.151 C 
HETATM    4  C   UNK N   1      29.434  48.681  57.728  0.00  0.00    -0.029 C 
HETATM    5  C   UNK N   1      29.521  48.758  59.259  0.00  0.00     0.006 C 
HETATM    6  C   UNK N   1      29.266  47.410  59.973  0.00  0.00    -0.001 C 
HETATM    7  C   UNK N   1      30.256  46.345  59.433  0.00  0.00     0.003 C 
HETATM    8  C   UNK N   1      29.997  44.939  60.118  0.00  0.00    -0.014 C 
HETATM    9  C   UNK N   1      29.748  50.158  57.345  0.00  0.00     0.063 C 
HETATM   10  C   UNK N   1      29.028  50.879  58.463  0.00  0.00     0.132 C 
HETATM   11  C   UNK N   1      29.836  45.089  61.647  0.00  0.00    -0.044 C 
HETATM   12  C   UNK N   1      31.294  42.753  60.674  0.00  0.00     0.036 C 
HETATM   13  C   UNK N   1      30.502  47.676  57.235  0.00  0.00     0.011 C 
HETATM   14  C   UNK N   1      28.684  49.991  59.626  0.00  0.00     0.084 C 
HETATM   15  C   UNK N   1      30.281  46.289  57.867  0.00  0.00     0.007 C 
HETATM   16  C   UNK N   1      29.485  47.582  61.488  0.00  0.00     0.033 C 
HETATM   17  C   UNK N   1      31.256  44.051  59.850  0.00  0.00     0.017 C 
HETATM   18  C   UNK N   1      28.007  48.263  57.234  0.00  0.00     0.016 C 
HETATM   19  C   UNK N   1      28.726  44.245  59.552  0.00  0.00     0.020 C 
HETATM   20  C   UNK N   1      29.638  46.289  62.240  0.00  0.00    -0.020 C 
ENDROOT
BRANCH   2  21
HETATM   21  O   UNK N   1      28.822  43.025  62.325  0.00  0.00    -0.389 OA
HETATM   22  H   UNK N   1      28.956  42.546  61.466  0.00  0.00     0.210 HD
ENDBRANCH   2  21
BRANCH   3  23
HETATM   23  O   UNK N   1      31.381  41.933  62.968  0.00  0.00    -0.393 OA
HETATM   24  H   UNK N   1      31.961  42.155  63.742  0.00  0.00     0.210 HD
ENDBRANCH   3  23
BRANCH   9  25
HETATM   25  C   UNK N   1      29.340  50.558  55.909  0.00  0.00     0.008 C 
HETATM   26  C   UNK N   1      30.547  50.928  55.048  0.00  0.00     0.006 C 
ENDBRANCH   9  25
TORSDOF 3
ENDMDL
