MODEL 1
REMARK VINA RESULT:      -6.9      0.000      0.000
REMARK  7 active torsions:
REMARK  status: ('A' for Active; 'I' for Inactive)
REMARK    1  A    between atoms: O_1  and  C_7 
REMARK    2  A    between atoms: O_2  and  C_8 
REMARK    3  A    between atoms: C_3  and  C_10 
REMARK    4  A    between atoms: C_6  and  C_7 
REMARK    5  A    between atoms: C_8  and  C_17 
REMARK    6  A    between atoms: C_10  and  C_19 
REMARK    7  A    between atoms: C_16  and  C_19 
ROOT
HETATM    1  C   UNK N   1      41.029  46.733  46.386  0.00  0.00    -0.034 C 
HETATM    2  C   UNK N   1      40.262  45.947  47.543  0.00  0.00     0.007 C 
HETATM    3  C   UNK N   1      41.133  45.359  48.729  0.00  0.00    -0.017 C 
HETATM    4  C   UNK N   1      41.970  47.808  47.077  0.00  0.00     0.018 C 
HETATM    5  C   UNK N   1      40.187  44.833  49.835  0.00  0.00    -0.079 C 
HETATM    6  C   UNK N   1      39.285  44.859  47.055  0.00  0.00     0.010 C 
HETATM    7  C   UNK N   1      42.001  46.527  49.267  0.00  0.00     0.014 C 
HETATM    8  C   UNK N   1      42.861  47.182  48.174  0.00  0.00     0.009 C 
HETATM    9  C   UNK N   1      41.845  45.791  45.455  0.00  0.00     0.016 C 
HETATM   10  C   UNK N   1      42.055  44.152  48.391  0.00  0.00     0.020 C 
HETATM   11  C   UNK N   1      38.923  44.437  49.555  0.00  0.00    -0.024 C 
HETATM   12  C   UNK N   1      38.310  44.488  48.178  0.00  0.00     0.028 C 
HETATM   13  C   UNK N   1      40.666  44.741  51.270  0.00  0.00     0.044 C 
ENDROOT
BRANCH   1  14
HETATM   14  C   UNK N   1      39.989  47.448  45.432  0.00  0.00     0.014 C 
BRANCH  14  15
HETATM   15  C   UNK N   1      39.687  48.930  45.741  0.00  0.00     0.034 C 
BRANCH  15  16
HETATM   16  C   UNK N   1      39.388  49.714  44.487  0.00  0.00    -0.086 C 
HETATM   17  C   UNK N   1      38.443  49.236  43.638  0.00  0.00     0.001 C 
HETATM   18  C   UNK N   1      40.149  51.007  44.287  0.00  0.00     0.043 C 
BRANCH  17  19
HETATM   19  C   UNK N   1      37.964  49.894  42.368  0.00  0.00     0.191 C 
BRANCH  19  20
HETATM   20  O   UNK N   1      38.978  49.842  41.404  0.00  0.00    -0.397 OA
HETATM   21  H   UNK N   1      38.731  50.494  40.696  0.00  0.00     0.209 HD
ENDBRANCH  19  20
ENDBRANCH  17  19
ENDBRANCH  15  16
ENDBRANCH  14  15
ENDBRANCH   1  14
BRANCH   4  22
HETATM   22  C   UNK N   1      42.841  48.626  46.086  0.00  0.00     0.169 C 
BRANCH  22  23
HETATM   23  O   UNK N   1      44.094  48.929  46.643  0.00  0.00    -0.400 OA
HETATM   24  H   UNK N   1      43.931  49.190  47.587  0.00  0.00     0.209 HD
ENDBRANCH  22  23
ENDBRANCH   4  22
TORSDOF 7
ENDMDL
MODEL 2
REMARK VINA RESULT:      -6.4     14.615     17.213
REMARK  7 active torsions:
REMARK  status: ('A' for Active; 'I' for Inactive)
REMARK    1  A    between atoms: O_1  and  C_7 
REMARK    2  A    between atoms: O_2  and  C_8 
REMARK    3  A    between atoms: C_3  and  C_10 
REMARK    4  A    between atoms: C_6  and  C_7 
REMARK    5  A    between atoms: C_8  and  C_17 
REMARK    6  A    between atoms: C_10  and  C_19 
REMARK    7  A    between atoms: C_16  and  C_19 
ROOT
HETATM    1  C   UNK N   1      46.949  33.326  49.903  0.00  0.00    -0.034 C 
HETATM    2  C   UNK N   1      48.383  33.154  49.227  0.00  0.00     0.007 C 
HETATM    3  C   UNK N   1      48.491  32.181  47.981  0.00  0.00    -0.017 C 
HETATM    4  C   UNK N   1      45.909  33.652  48.751  0.00  0.00     0.018 C 
HETATM    5  C   UNK N   1      49.898  32.324  47.353  0.00  0.00    -0.079 C 
HETATM    6  C   UNK N   1      49.533  32.841  50.205  0.00  0.00     0.010 C 
HETATM    7  C   UNK N   1      47.398  32.623  46.973  0.00  0.00     0.014 C 
HETATM    8  C   UNK N   1      45.990  32.636  47.589  0.00  0.00     0.009 C 
HETATM    9  C   UNK N   1      46.510  32.074  50.715  0.00  0.00     0.016 C 
HETATM   10  C   UNK N   1      48.338  30.659  48.264  0.00  0.00     0.020 C 
HETATM   11  C   UNK N   1      50.959  32.743  48.082  0.00  0.00    -0.024 C 
HETATM   12  C   UNK N   1      50.882  33.128  49.538  0.00  0.00     0.028 C 
HETATM   13  C   UNK N   1      50.120  31.986  45.891  0.00  0.00     0.044 C 
ENDROOT
BRANCH   1  14
HETATM   14  C   UNK N   1      46.983  34.504  50.960  0.00  0.00     0.014 C 
BRANCH  14  15
HETATM   15  C   UNK N   1      46.406  34.184  52.356  0.00  0.00     0.034 C 
BRANCH  15  16
HETATM   16  C   UNK N   1      47.497  33.974  53.378  0.00  0.00    -0.086 C 
HETATM   17  C   UNK N   1      48.634  34.705  53.266  0.00  0.00     0.001 C 
HETATM   18  C   UNK N   1      47.221  32.976  54.482  0.00  0.00     0.043 C 
BRANCH  17  19
HETATM   19  C   UNK N   1      49.812  34.682  54.209  0.00  0.00     0.191 C 
BRANCH  19  20
HETATM   20  O   UNK N   1      49.883  35.900  54.895  0.00  0.00    -0.397 OA
HETATM   21  H   UNK N   1      50.692  36.369  54.557  0.00  0.00     0.209 HD
ENDBRANCH  19  20
ENDBRANCH  17  19
ENDBRANCH  15  16
ENDBRANCH  14  15
ENDBRANCH   1  14
BRANCH   4  22
HETATM   22  C   UNK N   1      44.440  33.791  49.234  0.00  0.00     0.169 C 
BRANCH  22  23
HETATM   23  O   UNK N   1      43.594  32.904  48.550  0.00  0.00    -0.400 OA
HETATM   24  H   UNK N   1      42.705  32.962  48.989  0.00  0.00     0.209 HD
ENDBRANCH  22  23
ENDBRANCH   4  22
TORSDOF 7
ENDMDL
MODEL 3
REMARK VINA RESULT:      -6.4      2.950      6.489
REMARK  7 active torsions:
REMARK  status: ('A' for Active; 'I' for Inactive)
REMARK    1  A    between atoms: O_1  and  C_7 
REMARK    2  A    between atoms: O_2  and  C_8 
REMARK    3  A    between atoms: C_3  and  C_10 
REMARK    4  A    between atoms: C_6  and  C_7 
REMARK    5  A    between atoms: C_8  and  C_17 
REMARK    6  A    between atoms: C_10  and  C_19 
REMARK    7  A    between atoms: C_16  and  C_19 
ROOT
HETATM    1  C   UNK N   1      40.222  45.581  47.882  0.00  0.00    -0.034 C 
HETATM    2  C   UNK N   1      41.169  44.370  47.458  0.00  0.00     0.007 C 
HETATM    3  C   UNK N   1      41.393  44.125  45.908  0.00  0.00    -0.017 C 
HETATM    4  C   UNK N   1      40.710  46.871  47.100  0.00  0.00     0.018 C 
HETATM    5  C   UNK N   1      42.497  43.058  45.722  0.00  0.00    -0.079 C 
HETATM    6  C   UNK N   1      40.848  43.022  48.134  0.00  0.00     0.010 C 
HETATM    7  C   UNK N   1      41.840  45.482  45.303  0.00  0.00     0.014 C 
HETATM    8  C   UNK N   1      40.841  46.617  45.581  0.00  0.00     0.009 C 
HETATM    9  C   UNK N   1      38.718  45.295  47.607  0.00  0.00     0.016 C 
HETATM   10  C   UNK N   1      40.179  43.582  45.101  0.00  0.00     0.020 C 
HETATM   11  C   UNK N   1      42.761  42.138  46.680  0.00  0.00    -0.024 C 
HETATM   12  C   UNK N   1      42.044  42.072  48.005  0.00  0.00     0.028 C 
HETATM   13  C   UNK N   1      43.311  43.015  44.443  0.00  0.00     0.044 C 
ENDROOT
BRANCH   1  14
HETATM   14  C   UNK N   1      40.311  45.820  49.444  0.00  0.00     0.014 C 
BRANCH  14  15
HETATM   15  C   UNK N   1      41.672  45.508  50.104  0.00  0.00     0.034 C 
BRANCH  15  16
HETATM   16  C   UNK N   1      41.504  44.955  51.499  0.00  0.00    -0.086 C 
HETATM   17  C   UNK N   1      40.676  43.895  51.676  0.00  0.00     0.001 C 
HETATM   18  C   UNK N   1      42.308  45.612  52.599  0.00  0.00     0.043 C 
BRANCH  17  19
HETATM   19  C   UNK N   1      40.416  43.167  52.972  0.00  0.00     0.191 C 
BRANCH  19  20
HETATM   20  O   UNK N   1      39.042  42.932  53.107  0.00  0.00    -0.397 OA
HETATM   21  H   UNK N   1      38.676  43.690  53.636  0.00  0.00     0.209 HD
ENDBRANCH  19  20
ENDBRANCH  17  19
ENDBRANCH  15  16
ENDBRANCH  14  15
ENDBRANCH   1  14
BRANCH   4  22
HETATM   22  C   UNK N   1      39.850  48.139  47.355  0.00  0.00     0.169 C 
BRANCH  22  23
HETATM   23  O   UNK N   1      39.393  48.693  46.149  0.00  0.00    -0.400 OA
HETATM   24  H   UNK N   1      39.882  49.548  46.025  0.00  0.00     0.209 HD
ENDBRANCH  22  23
ENDBRANCH   4  22
TORSDOF 7
ENDMDL
MODEL 4
REMARK VINA RESULT:      -6.3      3.066      7.240
REMARK  7 active torsions:
REMARK  status: ('A' for Active; 'I' for Inactive)
REMARK    1  A    between atoms: O_1  and  C_7 
REMARK    2  A    between atoms: O_2  and  C_8 
REMARK    3  A    between atoms: C_3  and  C_10 
REMARK    4  A    between atoms: C_6  and  C_7 
REMARK    5  A    between atoms: C_8  and  C_17 
REMARK    6  A    between atoms: C_10  and  C_19 
REMARK    7  A    between atoms: C_16  and  C_19 
ROOT
HETATM    1  C   UNK N   1      41.120  46.016  48.477  0.00  0.00    -0.034 C 
HETATM    2  C   UNK N   1      41.652  47.219  47.575  0.00  0.00     0.007 C 
HETATM    3  C   UNK N   1      40.957  47.439  46.167  0.00  0.00    -0.017 C 
HETATM    4  C   UNK N   1      39.541  46.138  48.561  0.00  0.00     0.018 C 
HETATM    5  C   UNK N   1      41.466  48.767  45.558  0.00  0.00    -0.079 C 
HETATM    6  C   UNK N   1      43.181  47.269  47.389  0.00  0.00     0.010 C 
HETATM    7  C   UNK N   1      39.430  47.510  46.430  0.00  0.00     0.014 C 
HETATM    8  C   UNK N   1      38.893  46.271  47.164  0.00  0.00     0.009 C 
HETATM    9  C   UNK N   1      41.547  44.622  47.936  0.00  0.00     0.016 C 
HETATM   10  C   UNK N   1      41.237  46.369  45.073  0.00  0.00     0.020 C 
HETATM   11  C   UNK N   1      42.668  49.287  45.899  0.00  0.00    -0.024 C 
HETATM   12  C   UNK N   1      43.605  48.659  46.900  0.00  0.00     0.028 C 
HETATM   13  C   UNK N   1      40.620  49.517  44.548  0.00  0.00     0.044 C 
ENDROOT
BRANCH   1  14
HETATM   14  C   UNK N   1      41.754  46.101  49.925  0.00  0.00     0.014 C 
BRANCH  14  15
HETATM   15  C   UNK N   1      42.212  44.764  50.548  0.00  0.00     0.034 C 
BRANCH  15  16
HETATM   16  C   UNK N   1      41.616  44.553  51.919  0.00  0.00    -0.086 C 
HETATM   17  C   UNK N   1      40.793  43.491  52.107  0.00  0.00     0.001 C 
HETATM   18  C   UNK N   1      42.016  45.533  53.000  0.00  0.00     0.043 C 
BRANCH  17  19
HETATM   19  C   UNK N   1      40.145  43.078  53.405  0.00  0.00     0.191 C 
BRANCH  19  20
HETATM   20  O   UNK N   1      38.826  42.676  53.161  0.00  0.00    -0.397 OA
HETATM   21  H   UNK N   1      38.791  41.698  53.332  0.00  0.00     0.209 HD
ENDBRANCH  19  20
ENDBRANCH  17  19
ENDBRANCH  15  16
ENDBRANCH  14  15
ENDBRANCH   1  14
BRANCH   4  22
HETATM   22  C   UNK N   1      38.852  44.999  49.361  0.00  0.00     0.169 C 
BRANCH  22  23
HETATM   23  O   UNK N   1      38.073  44.188  48.520  0.00  0.00    -0.400 OA
HETATM   24  H   UNK N   1      37.147  44.544  48.561  0.00  0.00     0.209 HD
ENDBRANCH  22  23
ENDBRANCH   4  22
TORSDOF 7
ENDMDL
MODEL 5
REMARK VINA RESULT:      -6.2     14.723     17.427
REMARK  7 active torsions:
REMARK  status: ('A' for Active; 'I' for Inactive)
REMARK    1  A    between atoms: O_1  and  C_7 
REMARK    2  A    between atoms: O_2  and  C_8 
REMARK    3  A    between atoms: C_3  and  C_10 
REMARK    4  A    between atoms: C_6  and  C_7 
REMARK    5  A    between atoms: C_8  and  C_17 
REMARK    6  A    between atoms: C_10  and  C_19 
REMARK    7  A    between atoms: C_16  and  C_19 
ROOT
HETATM    1  C   UNK N   1      47.855  32.813  50.831  0.00  0.00    -0.034 C 
HETATM    2  C   UNK N   1      47.785  32.685  49.242  0.00  0.00     0.007 C 
HETATM    3  C   UNK N   1      46.357  32.785  48.563  0.00  0.00    -0.017 C 
HETATM    4  C   UNK N   1      47.044  34.111  51.246  0.00  0.00     0.018 C 
HETATM    5  C   UNK N   1      46.534  32.853  47.028  0.00  0.00    -0.079 C 
HETATM    6  C   UNK N   1      48.534  31.474  48.651  0.00  0.00     0.010 C 
HETATM    7  C   UNK N   1      45.701  34.087  49.094  0.00  0.00     0.014 C 
HETATM    8  C   UNK N   1      45.627  34.135  50.628  0.00  0.00     0.009 C 
HETATM    9  C   UNK N   1      47.308  31.553  51.562  0.00  0.00     0.016 C 
HETATM   10  C   UNK N   1      45.385  31.593  48.796  0.00  0.00     0.020 C 
HETATM   11  C   UNK N   1      47.628  32.339  46.418  0.00  0.00    -0.024 C 
HETATM   12  C   UNK N   1      48.772  31.685  47.152  0.00  0.00     0.028 C 
HETATM   13  C   UNK N   1      45.468  33.497  46.164  0.00  0.00     0.044 C 
ENDROOT
BRANCH   1  14
HETATM   14  C   UNK N   1      49.361  32.933  51.301  0.00  0.00     0.014 C 
BRANCH  14  15
HETATM   15  C   UNK N   1      49.774  32.049  52.498  0.00  0.00     0.034 C 
BRANCH  15  16
HETATM   16  C   UNK N   1      50.080  32.874  53.725  0.00  0.00    -0.086 C 
HETATM   17  C   UNK N   1      50.837  33.990  53.578  0.00  0.00     0.001 C 
HETATM   18  C   UNK N   1      49.482  32.406  55.033  0.00  0.00     0.043 C 
BRANCH  17  19
HETATM   19  C   UNK N   1      51.206  34.971  54.663  0.00  0.00     0.191 C 
BRANCH  19  20
HETATM   20  O   UNK N   1      50.115  35.807  54.927  0.00  0.00    -0.397 OA
HETATM   21  H   UNK N   1      50.033  36.422  54.150  0.00  0.00     0.209 HD
ENDBRANCH  19  20
ENDBRANCH  17  19
ENDBRANCH  15  16
ENDBRANCH  14  15
ENDBRANCH   1  14
BRANCH   4  22
HETATM   22  C   UNK N   1      46.961  34.352  52.778  0.00  0.00     0.169 C 
BRANCH  22  23
HETATM   23  O   UNK N   1      47.745  35.452  53.161  0.00  0.00    -0.400 OA
HETATM   24  H   UNK N   1      47.122  36.216  53.283  0.00  0.00     0.209 HD
ENDBRANCH  22  23
ENDBRANCH   4  22
TORSDOF 7
ENDMDL
MODEL 6
REMARK VINA RESULT:      -5.9     14.747     17.174
REMARK  7 active torsions:
REMARK  status: ('A' for Active; 'I' for Inactive)
REMARK    1  A    between atoms: O_1  and  C_7 
REMARK    2  A    between atoms: O_2  and  C_8 
REMARK    3  A    between atoms: C_3  and  C_10 
REMARK    4  A    between atoms: C_6  and  C_7 
REMARK    5  A    between atoms: C_8  and  C_17 
REMARK    6  A    between atoms: C_10  and  C_19 
REMARK    7  A    between atoms: C_16  and  C_19 
ROOT
HETATM    1  C   UNK N   1      47.419  32.273  50.906  0.00  0.00    -0.034 C 
HETATM    2  C   UNK N   1      47.318  32.118  49.322  0.00  0.00     0.007 C 
HETATM    3  C   UNK N   1      45.989  32.624  48.622  0.00  0.00    -0.017 C 
HETATM    4  C   UNK N   1      47.041  33.770  51.268  0.00  0.00     0.018 C 
HETATM    5  C   UNK N   1      46.182  32.582  47.087  0.00  0.00    -0.079 C 
HETATM    6  C   UNK N   1      47.664  30.717  48.779  0.00  0.00     0.010 C 
HETATM    7  C   UNK N   1      45.759  34.081  49.101  0.00  0.00     0.014 C 
HETATM    8  C   UNK N   1      45.700  34.203  50.633  0.00  0.00     0.009 C 
HETATM    9  C   UNK N   1      46.513  31.266  51.670  0.00  0.00     0.016 C 
HETATM   10  C   UNK N   1      44.700  31.793  48.880  0.00  0.00     0.020 C 
HETATM   11  C   UNK N   1      47.070  31.740  46.509  0.00  0.00    -0.024 C 
HETATM   12  C   UNK N   1      47.959  30.795  47.277  0.00  0.00     0.028 C 
HETATM   13  C   UNK N   1      45.364  33.490  46.189  0.00  0.00     0.044 C 
ENDROOT
BRANCH   1  14
HETATM   14  C   UNK N   1      48.889  31.947  51.391  0.00  0.00     0.014 C 
BRANCH  14  15
HETATM   15  C   UNK N   1      49.976  32.979  51.018  0.00  0.00     0.034 C 
BRANCH  15  16
HETATM   16  C   UNK N   1      50.688  32.605  49.740  0.00  0.00    -0.086 C 
HETATM   17  C   UNK N   1      50.664  33.485  48.708  0.00  0.00     0.001 C 
HETATM   18  C   UNK N   1      51.412  31.276  49.722  0.00  0.00     0.043 C 
BRANCH  17  19
HETATM   19  C   UNK N   1      51.354  33.324  47.376  0.00  0.00     0.191 C 
BRANCH  19  20
HETATM   20  O   UNK N   1      52.227  34.399  47.171  0.00  0.00    -0.397 OA
HETATM   21  H   UNK N   1      51.757  35.036  46.570  0.00  0.00     0.209 HD
ENDBRANCH  19  20
ENDBRANCH  17  19
ENDBRANCH  15  16
ENDBRANCH  14  15
ENDBRANCH   1  14
BRANCH   4  22
HETATM   22  C   UNK N   1      47.031  34.078  52.791  0.00  0.00     0.169 C 
BRANCH  22  23
HETATM   23  O   UNK N   1      47.856  35.173  53.092  0.00  0.00    -0.400 OA
HETATM   24  H   UNK N   1      48.736  34.993  52.668  0.00  0.00     0.209 HD
ENDBRANCH  22  23
ENDBRANCH   4  22
TORSDOF 7
ENDMDL
MODEL 7
REMARK VINA RESULT:      -5.9     15.716     17.878
REMARK  7 active torsions:
REMARK  status: ('A' for Active; 'I' for Inactive)
REMARK    1  A    between atoms: O_1  and  C_7 
REMARK    2  A    between atoms: O_2  and  C_8 
REMARK    3  A    between atoms: C_3  and  C_10 
REMARK    4  A    between atoms: C_6  and  C_7 
REMARK    5  A    between atoms: C_8  and  C_17 
REMARK    6  A    between atoms: C_10  and  C_19 
REMARK    7  A    between atoms: C_16  and  C_19 
ROOT
HETATM    1  C   UNK N   1      35.514  45.825  63.708  0.00  0.00    -0.034 C 
HETATM    2  C   UNK N   1      34.549  47.088  63.837  0.00  0.00     0.007 C 
HETATM    3  C   UNK N   1      35.210  48.526  63.753  0.00  0.00    -0.017 C 
HETATM    4  C   UNK N   1      36.414  46.036  62.419  0.00  0.00     0.018 C 
HETATM    5  C   UNK N   1      34.090  49.591  63.683  0.00  0.00    -0.079 C 
HETATM    6  C   UNK N   1      33.584  47.053  65.039  0.00  0.00     0.010 C 
HETATM    7  C   UNK N   1      36.065  48.549  62.458  0.00  0.00     0.014 C 
HETATM    8  C   UNK N   1      37.105  47.419  62.411  0.00  0.00     0.009 C 
HETATM    9  C   UNK N   1      36.392  45.606  64.974  0.00  0.00     0.016 C 
HETATM   10  C   UNK N   1      36.095  48.962  64.956  0.00  0.00     0.020 C 
HETATM   11  C   UNK N   1      32.855  49.353  64.184  0.00  0.00    -0.024 C 
HETATM   12  C   UNK N   1      32.442  48.053  64.825  0.00  0.00     0.028 C 
HETATM   13  C   UNK N   1      34.360  50.943  63.050  0.00  0.00     0.044 C 
ENDROOT
BRANCH   1  14
HETATM   14  C   UNK N   1      34.661  44.500  63.571  0.00  0.00     0.014 C 
BRANCH  14  15
HETATM   15  C   UNK N   1      33.327  44.624  62.803  0.00  0.00     0.034 C 
BRANCH  15  16
HETATM   16  C   UNK N   1      33.130  43.483  61.834  0.00  0.00    -0.086 C 
HETATM   17  C   UNK N   1      34.075  43.274  60.884  0.00  0.00     0.001 C 
HETATM   18  C   UNK N   1      31.895  42.630  62.022  0.00  0.00     0.043 C 
BRANCH  17  19
HETATM   19  C   UNK N   1      34.090  42.162  59.864  0.00  0.00     0.191 C 
BRANCH  19  20
HETATM   20  O   UNK N   1      34.694  42.619  58.686  0.00  0.00    -0.397 OA
HETATM   21  H   UNK N   1      35.643  42.327  58.722  0.00  0.00     0.209 HD
ENDBRANCH  19  20
ENDBRANCH  17  19
ENDBRANCH  15  16
ENDBRANCH  14  15
ENDBRANCH   1  14
BRANCH   4  22
HETATM   22  C   UNK N   1      37.462  44.915  62.179  0.00  0.00     0.169 C 
BRANCH  22  23
HETATM   23  O   UNK N   1      38.768  45.397  62.353  0.00  0.00    -0.400 OA
HETATM   24  H   UNK N   1      39.027  45.188  63.288  0.00  0.00     0.209 HD
ENDBRANCH  22  23
ENDBRANCH   4  22
TORSDOF 7
ENDMDL
MODEL 8
REMARK VINA RESULT:      -5.9     12.387     15.588
REMARK  7 active torsions:
REMARK  status: ('A' for Active; 'I' for Inactive)
REMARK    1  A    between atoms: O_1  and  C_7 
REMARK    2  A    between atoms: O_2  and  C_8 
REMARK    3  A    between atoms: C_3  and  C_10 
REMARK    4  A    between atoms: C_6  and  C_7 
REMARK    5  A    between atoms: C_8  and  C_17 
REMARK    6  A    between atoms: C_10  and  C_19 
REMARK    7  A    between atoms: C_16  and  C_19 
ROOT
HETATM    1  C   UNK N   1      28.539  53.523  40.055  0.00  0.00    -0.034 C 
HETATM    2  C   UNK N   1      29.641  53.214  41.166  0.00  0.00     0.007 C 
HETATM    3  C   UNK N   1      30.129  54.424  42.066  0.00  0.00    -0.017 C 
HETATM    4  C   UNK N   1      27.355  54.311  40.757  0.00  0.00     0.018 C 
HETATM    5  C   UNK N   1      31.023  53.875  43.204  0.00  0.00    -0.079 C 
HETATM    6  C   UNK N   1      30.873  52.436  40.665  0.00  0.00     0.010 C 
HETATM    7  C   UNK N   1      28.855  55.090  42.648  0.00  0.00     0.014 C 
HETATM    8  C   UNK N   1      27.862  55.530  41.560  0.00  0.00     0.009 C 
HETATM    9  C   UNK N   1      29.107  54.323  38.848  0.00  0.00     0.016 C 
HETATM   10  C   UNK N   1      30.999  55.509  41.370  0.00  0.00     0.020 C 
HETATM   11  C   UNK N   1      31.694  52.706  43.075  0.00  0.00    -0.024 C 
HETATM   12  C   UNK N   1      31.628  51.827  41.852  0.00  0.00     0.028 C 
HETATM   13  C   UNK N   1      31.171  54.648  44.499  0.00  0.00     0.044 C 
ENDROOT
BRANCH   1  14
HETATM   14  C   UNK N   1      28.003  52.171  39.430  0.00  0.00     0.014 C 
BRANCH  14  15
HETATM   15  C   UNK N   1      27.411  51.148  40.425  0.00  0.00     0.034 C 
BRANCH  15  16
HETATM   16  C   UNK N   1      26.059  50.649  39.975  0.00  0.00    -0.086 C 
HETATM   17  C   UNK N   1      25.239  50.089  40.900  0.00  0.00     0.001 C 
HETATM   18  C   UNK N   1      25.705  50.844  38.517  0.00  0.00     0.043 C 
BRANCH  17  19
HETATM   19  C   UNK N   1      23.838  49.581  40.665  0.00  0.00     0.191 C 
BRANCH  19  20
HETATM   20  O   UNK N   1      23.762  48.234  41.037  0.00  0.00    -0.397 OA
HETATM   21  H   UNK N   1      22.795  48.008  41.092  0.00  0.00     0.209 HD
ENDBRANCH  19  20
ENDBRANCH  17  19
ENDBRANCH  15  16
ENDBRANCH  14  15
ENDBRANCH   1  14
BRANCH   4  22
HETATM   22  C   UNK N   1      26.216  54.745  39.794  0.00  0.00     0.169 C 
BRANCH  22  23
HETATM   23  O   UNK N   1      25.032  54.038  40.057  0.00  0.00    -0.400 OA
HETATM   24  H   UNK N   1      24.352  54.371  39.414  0.00  0.00     0.209 HD
ENDBRANCH  22  23
ENDBRANCH   4  22
TORSDOF 7
ENDMDL
MODEL 9
REMARK VINA RESULT:      -5.7     14.126     17.724
REMARK  7 active torsions:
REMARK  status: ('A' for Active; 'I' for Inactive)
REMARK    1  A    between atoms: O_1  and  C_7 
REMARK    2  A    between atoms: O_2  and  C_8 
REMARK    3  A    between atoms: C_3  and  C_10 
REMARK    4  A    between atoms: C_6  and  C_7 
REMARK    5  A    between atoms: C_8  and  C_17 
REMARK    6  A    between atoms: C_10  and  C_19 
REMARK    7  A    between atoms: C_16  and  C_19 
ROOT
HETATM    1  C   UNK N   1      47.384  31.432  51.011  0.00  0.00    -0.034 C 
HETATM    2  C   UNK N   1      47.483  32.456  49.792  0.00  0.00     0.007 C 
HETATM    3  C   UNK N   1      46.738  33.847  49.943  0.00  0.00    -0.017 C 
HETATM    4  C   UNK N   1      47.768  32.218  52.333  0.00  0.00     0.018 C 
HETATM    5  C   UNK N   1      47.136  34.761  48.760  0.00  0.00    -0.079 C 
HETATM    6  C   UNK N   1      47.152  31.860  48.409  0.00  0.00     0.010 C 
HETATM    7  C   UNK N   1      47.208  34.461  51.287  0.00  0.00     0.014 C 
HETATM    8  C   UNK N   1      46.964  33.530  52.486  0.00  0.00     0.009 C 
HETATM    9  C   UNK N   1      45.977  30.779  51.136  0.00  0.00     0.016 C 
HETATM   10  C   UNK N   1      45.183  33.815  49.912  0.00  0.00     0.020 C 
HETATM   11  C   UNK N   1      47.552  34.248  47.578  0.00  0.00    -0.024 C 
HETATM   12  C   UNK N   1      47.690  32.772  47.302  0.00  0.00     0.028 C 
HETATM   13  C   UNK N   1      47.060  36.269  48.901  0.00  0.00     0.044 C 
ENDROOT
BRANCH   1  14
HETATM   14  C   UNK N   1      48.376  30.220  50.786  0.00  0.00     0.014 C 
BRANCH  14  15
HETATM   15  C   UNK N   1      49.867  30.497  51.076  0.00  0.00     0.034 C 
BRANCH  15  16
HETATM   16  C   UNK N   1      50.533  31.229  49.936  0.00  0.00    -0.086 C 
HETATM   17  C   UNK N   1      50.594  30.618  48.727  0.00  0.00     0.001 C 
HETATM   18  C   UNK N   1      51.058  32.618  50.226  0.00  0.00     0.043 C 
BRANCH  17  19
HETATM   19  C   UNK N   1      51.166  31.198  47.457  0.00  0.00     0.191 C 
BRANCH  19  20
HETATM   20  O   UNK N   1      50.735  30.439  46.362  0.00  0.00    -0.397 OA
HETATM   21  H   UNK N   1      50.780  31.035  45.568  0.00  0.00     0.209 HD
ENDBRANCH  19  20
ENDBRANCH  17  19
ENDBRANCH  15  16
ENDBRANCH  14  15
ENDBRANCH   1  14
BRANCH   4  22
HETATM   22  C   UNK N   1      47.662  31.375  53.633  0.00  0.00     0.169 C 
BRANCH  22  23
HETATM   23  O   UNK N   1      46.552  31.761  54.400  0.00  0.00    -0.400 OA
HETATM   24  H   UNK N   1      46.114  30.925  54.708  0.00  0.00     0.209 HD
ENDBRANCH  22  23
ENDBRANCH   4  22
TORSDOF 7
ENDMDL
