MODEL 1
REMARK VINA RESULT:      -5.3      0.000      0.000
REMARK  7 active torsions:
REMARK  status: ('A' for Active; 'I' for Inactive)
REMARK    1  A    between atoms: O_3  and  C_14 
REMARK    2  A    between atoms: O_3  and  C_22 
REMARK    3  A    between atoms: O_4  and  C_16 
REMARK    4  A    between atoms: O_4  and  C_23 
REMARK    5  A    between atoms: O_5  and  C_15 
REMARK    6  A    between atoms: C_11  and  C_17 
REMARK    7  A    between atoms: C_19  and  C_24 
ROOT
HETATM    1  C   UNK N   1      28.321  40.005  57.208  0.00  0.00     0.135 C 
HETATM    2  C   UNK N   1      27.841  46.696  58.487  0.00  0.00     0.070 C 
HETATM    3  C   UNK N   1      27.381  42.303  57.924  0.00  0.00     0.087 C 
HETATM    4  C   UNK N   1      29.040  48.812  58.639  0.00  0.00     0.032 C 
HETATM    5  C   UNK N   1      29.273  47.265  58.696  0.00  0.00    -0.005 C 
HETATM    6  C   UNK N   1      28.855  42.880  58.038  0.00  0.00     0.049 C 
HETATM    7  C   UNK N   1      27.828  45.160  58.751  0.00  0.00     0.026 C 
HETATM    8  C   UNK N   1      28.813  44.437  57.752  0.00  0.00     0.011 C 
HETATM    9  C   UNK N   1      27.412  40.767  58.200  0.00  0.00     0.072 C 
HETATM   10  C   UNK N   1      29.735  40.596  57.194  0.00  0.00     0.034 C 
HETATM   11  C   UNK N   1      27.030  47.593  59.439  0.00  0.00     0.040 C 
HETATM   12  C   UNK N   1      26.452  43.035  58.940  0.00  0.00     0.040 C 
HETATM   13  C   UNK N   1      27.565  49.002  59.119  0.00  0.00     0.013 C 
HETATM   14  C   UNK N   1      29.733  42.128  56.975  0.00  0.00     0.022 C 
HETATM   15  C   UNK N   1      30.207  46.634  57.628  0.00  0.00     0.013 C 
HETATM   16  C   UNK N   1      26.416  44.545  58.657  0.00  0.00     0.011 C 
HETATM   17  C   UNK N   1      30.237  45.091  57.772  0.00  0.00     0.007 C 
HETATM   18  C   UNK N   1      29.893  46.981  60.119  0.00  0.00     0.019 C 
ENDROOT
BRANCH   4  19
HETATM   19  C   UNK N   1      29.402  49.513  57.323  0.00  0.00    -0.030 A 
HETATM   20  C   UNK N   1      28.453  50.090  56.450  0.00  0.00     0.153 A 
HETATM   21  O   UNK N   1      28.840  50.700  55.334  0.00  0.00    -0.287 OA
HETATM   22  C   UNK N   1      30.116  50.792  54.970  0.00  0.00     0.287 A 
HETATM   23  O   UNK N   1      30.411  51.365  53.939  0.00  0.00    -0.260 OA
HETATM   24  C   UNK N   1      31.114  50.232  55.769  0.00  0.00     0.083 A 
HETATM   25  C   UNK N   1      30.754  49.593  56.950  0.00  0.00     0.015 A 
ENDBRANCH   4  19
BRANCH   2  26
HETATM   26  O   UNK N   1      27.432  46.938  57.154  0.00  0.00    -0.389 OA
HETATM   27  H   UNK N   1      26.976  47.817  57.114  0.00  0.00     0.210 HD
ENDBRANCH   2  26
BRANCH   6  28
HETATM   28  C   UNK N   1      29.442  42.673  59.454  0.00  0.00     0.244 C 
HETATM   29  O   UNK N   1      30.629  42.448  59.633  0.00  0.00    -0.306 OA
ENDBRANCH   6  28
BRANCH   3  30
HETATM   30  O   UNK N   1      26.919  42.543  56.626  0.00  0.00    -0.309 OA
BRANCH  30  31
HETATM   31  C   UNK N   1      25.626  42.557  56.188  0.00  0.00     0.255 C 
HETATM   32  O   UNK N   1      24.879  41.611  56.383  0.00  0.00    -0.266 OA
HETATM   33  C   UNK N   1      25.117  43.758  55.462  0.00  0.00     0.126 C 
ENDBRANCH  30  31
ENDBRANCH   3  30
BRANCH   1  34
HETATM   34  O   UNK N   1      27.793  40.035  55.924  0.00  0.00    -0.316 OA
BRANCH  34  35
HETATM   35  C   UNK N   1      28.420  39.521  54.826  0.00  0.00     0.255 C 
HETATM   36  O   UNK N   1      28.699  40.230  53.869  0.00  0.00    -0.266 OA
HETATM   37  C   UNK N   1      28.764  38.067  54.785  0.00  0.00     0.126 C 
ENDBRANCH  34  35
ENDBRANCH   1  34
TORSDOF 7
ENDMDL
MODEL 2
REMARK VINA RESULT:      -4.7      4.560      6.448
REMARK  7 active torsions:
REMARK  status: ('A' for Active; 'I' for Inactive)
REMARK    1  A    between atoms: O_3  and  C_14 
REMARK    2  A    between atoms: O_3  and  C_22 
REMARK    3  A    between atoms: O_4  and  C_16 
REMARK    4  A    between atoms: O_4  and  C_23 
REMARK    5  A    between atoms: O_5  and  C_15 
REMARK    6  A    between atoms: C_11  and  C_17 
REMARK    7  A    between atoms: C_19  and  C_24 
ROOT
HETATM    1  C   UNK N   1      28.871  41.782  58.306  0.00  0.00     0.135 C 
HETATM    2  C   UNK N   1      31.917  45.513  63.148  0.00  0.00     0.070 C 
HETATM    3  C   UNK N   1      29.269  43.531  60.166  0.00  0.00     0.087 C 
HETATM    4  C   UNK N   1      33.907  45.793  64.525  0.00  0.00     0.032 C 
HETATM    5  C   UNK N   1      33.131  44.714  63.700  0.00  0.00    -0.005 C 
HETATM    6  C   UNK N   1      30.559  42.740  60.646  0.00  0.00     0.049 C 
HETATM    7  C   UNK N   1      30.888  44.545  62.489  0.00  0.00     0.026 C 
HETATM    8  C   UNK N   1      31.571  43.770  61.296  0.00  0.00     0.011 C 
HETATM    9  C   UNK N   1      28.265  42.526  59.519  0.00  0.00     0.072 C 
HETATM   10  C   UNK N   1      30.184  41.090  58.687  0.00  0.00     0.034 C 
HETATM   11  C   UNK N   1      31.475  46.277  64.409  0.00  0.00     0.040 C 
HETATM   12  C   UNK N   1      28.622  44.264  61.381  0.00  0.00     0.040 C 
HETATM   13  C   UNK N   1      32.807  46.810  64.969  0.00  0.00     0.013 C 
HETATM   14  C   UNK N   1      31.180  42.051  59.379  0.00  0.00     0.022 C 
HETATM   15  C   UNK N   1      33.863  44.054  62.500  0.00  0.00     0.013 C 
HETATM   16  C   UNK N   1      29.610  45.261  62.007  0.00  0.00     0.011 C 
HETATM   17  C   UNK N   1      32.914  43.093  61.741  0.00  0.00     0.007 C 
HETATM   18  C   UNK N   1      32.758  43.578  64.731  0.00  0.00     0.019 C 
ENDROOT
BRANCH   4  19
HETATM   19  C   UNK N   1      35.145  46.409  63.858  0.00  0.00    -0.030 A 
HETATM   20  C   UNK N   1      36.395  45.759  63.764  0.00  0.00     0.153 A 
HETATM   21  O   UNK N   1      37.422  46.344  63.154  0.00  0.00    -0.287 OA
HETATM   22  C   UNK N   1      37.340  47.558  62.616  0.00  0.00     0.287 A 
HETATM   23  O   UNK N   1      38.311  48.043  62.067  0.00  0.00    -0.260 OA
HETATM   24  C   UNK N   1      36.144  48.274  62.682  0.00  0.00     0.083 A 
HETATM   25  C   UNK N   1      35.043  47.695  63.302  0.00  0.00     0.015 A 
ENDBRANCH   4  19
BRANCH   2  26
HETATM   26  O   UNK N   1      32.369  46.436  62.175  0.00  0.00    -0.389 OA
HETATM   27  H   UNK N   1      31.596  46.727  61.627  0.00  0.00     0.210 HD
ENDBRANCH   2  26
BRANCH   6  28
HETATM   28  C   UNK N   1      30.212  41.677  61.714  0.00  0.00     0.244 C 
HETATM   29  O   UNK N   1      30.751  40.581  61.730  0.00  0.00    -0.306 OA
ENDBRANCH   6  28
BRANCH   3  30
HETATM   30  O   UNK N   1      29.668  44.480  59.219  0.00  0.00    -0.309 OA
BRANCH  30  31
HETATM   31  C   UNK N   1      28.997  45.601  58.823  0.00  0.00     0.255 C 
HETATM   32  O   UNK N   1      27.838  45.546  58.441  0.00  0.00    -0.266 OA
HETATM   33  C   UNK N   1      29.694  46.920  58.869  0.00  0.00     0.126 C 
ENDBRANCH  30  31
ENDBRANCH   3  30
BRANCH   1  34
HETATM   34  O   UNK N   1      29.096  42.653  57.248  0.00  0.00    -0.316 OA
BRANCH  34  35
HETATM   35  C   UNK N   1      28.991  42.304  55.934  0.00  0.00     0.255 C 
HETATM   36  O   UNK N   1      27.901  42.245  55.381  0.00  0.00    -0.266 OA
HETATM   37  C   UNK N   1      30.225  41.979  55.155  0.00  0.00     0.126 C 
ENDBRANCH  34  35
ENDBRANCH   1  34
TORSDOF 7
ENDMDL
MODEL 3
REMARK VINA RESULT:      -4.7      4.519     11.086
REMARK  7 active torsions:
REMARK  status: ('A' for Active; 'I' for Inactive)
REMARK    1  A    between atoms: O_3  and  C_14 
REMARK    2  A    between atoms: O_3  and  C_22 
REMARK    3  A    between atoms: O_4  and  C_16 
REMARK    4  A    between atoms: O_4  and  C_23 
REMARK    5  A    between atoms: O_5  and  C_15 
REMARK    6  A    between atoms: C_11  and  C_17 
REMARK    7  A    between atoms: C_19  and  C_24 
ROOT
HETATM    1  C   UNK N   1      29.733  42.304  55.538  0.00  0.00     0.135 C 
HETATM    2  C   UNK N   1      26.826  36.185  56.400  0.00  0.00     0.070 C 
HETATM    3  C   UNK N   1      28.197  40.421  56.417  0.00  0.00     0.087 C 
HETATM    4  C   UNK N   1      26.637  33.905  55.561  0.00  0.00     0.032 C 
HETATM    5  C   UNK N   1      27.039  35.347  55.107  0.00  0.00    -0.005 C 
HETATM    6  C   UNK N   1      28.508  39.552  55.126  0.00  0.00     0.049 C 
HETATM    7  C   UNK N   1      26.947  37.706  56.084  0.00  0.00     0.026 C 
HETATM    8  C   UNK N   1      28.381  38.019  55.505  0.00  0.00     0.011 C 
HETATM    9  C   UNK N   1      28.323  41.935  56.056  0.00  0.00     0.072 C 
HETATM   10  C   UNK N   1      30.133  41.414  54.356  0.00  0.00     0.034 C 
HETATM   11  C   UNK N   1      25.457  35.657  56.866  0.00  0.00     0.040 C 
HETATM   12  C   UNK N   1      26.766  40.089  56.939  0.00  0.00     0.040 C 
HETATM   13  C   UNK N   1      25.612  34.131  56.718  0.00  0.00     0.013 C 
HETATM   14  C   UNK N   1      29.967  39.907  54.668  0.00  0.00     0.022 C 
HETATM   15  C   UNK N   1      28.494  35.574  54.616  0.00  0.00     0.013 C 
HETATM   16  C   UNK N   1      26.649  38.600  57.305  0.00  0.00     0.011 C 
HETATM   17  C   UNK N   1      28.740  37.073  54.309  0.00  0.00     0.007 C 
HETATM   18  C   UNK N   1      26.061  35.707  53.921  0.00  0.00     0.019 C 
ENDROOT
BRANCH   4  19
HETATM   19  C   UNK N   1      27.788  32.940  55.878  0.00  0.00    -0.030 A 
HETATM   20  C   UNK N   1      28.353  32.781  57.163  0.00  0.00     0.153 A 
HETATM   21  O   UNK N   1      29.337  31.911  57.370  0.00  0.00    -0.287 OA
HETATM   22  C   UNK N   1      29.848  31.160  56.398  0.00  0.00     0.287 A 
HETATM   23  O   UNK N   1      30.745  30.378  56.647  0.00  0.00    -0.260 OA
HETATM   24  C   UNK N   1      29.356  31.269  55.097  0.00  0.00     0.083 A 
HETATM   25  C   UNK N   1      28.322  32.161  54.838  0.00  0.00     0.015 A 
ENDBRANCH   4  19
BRANCH   2  26
HETATM   26  O   UNK N   1      27.812  35.832  57.352  0.00  0.00    -0.389 OA
HETATM   27  H   UNK N   1      28.682  35.729  56.888  0.00  0.00     0.210 HD
ENDBRANCH   2  26
BRANCH   6  28
HETATM   28  C   UNK N   1      27.506  39.843  53.985  0.00  0.00     0.244 C 
HETATM   29  O   UNK N   1      27.795  39.665  52.813  0.00  0.00    -0.306 OA
ENDBRANCH   6  28
BRANCH   3  30
HETATM   30  O   UNK N   1      29.132  40.088  57.403  0.00  0.00    -0.309 OA
BRANCH  30  31
HETATM   31  C   UNK N   1      29.058  40.333  58.743  0.00  0.00     0.255 C 
HETATM   32  O   UNK N   1      28.860  41.460  59.173  0.00  0.00    -0.266 OA
HETATM   33  C   UNK N   1      29.215  39.199  59.700  0.00  0.00     0.126 C 
ENDBRANCH  30  31
ENDBRANCH   3  30
BRANCH   1  34
HETATM   34  O   UNK N   1      30.681  42.190  56.546  0.00  0.00    -0.316 OA
BRANCH  34  35
HETATM   35  C   UNK N   1      31.633  43.130  56.812  0.00  0.00     0.255 C 
HETATM   36  O   UNK N   1      32.491  43.410  55.986  0.00  0.00    -0.266 OA
HETATM   37  C   UNK N   1      31.636  43.825  58.135  0.00  0.00     0.126 C 
ENDBRANCH  34  35
ENDBRANCH   1  34
TORSDOF 7
ENDMDL
MODEL 4
REMARK VINA RESULT:      -4.7      4.187      7.771
REMARK  7 active torsions:
REMARK  status: ('A' for Active; 'I' for Inactive)
REMARK    1  A    between atoms: O_3  and  C_14 
REMARK    2  A    between atoms: O_3  and  C_22 
REMARK    3  A    between atoms: O_4  and  C_16 
REMARK    4  A    between atoms: O_4  and  C_23 
REMARK    5  A    between atoms: O_5  and  C_15 
REMARK    6  A    between atoms: C_11  and  C_17 
REMARK    7  A    between atoms: C_19  and  C_24 
ROOT
HETATM    1  C   UNK N   1      30.884  44.796  63.060  0.00  0.00     0.135 C 
HETATM    2  C   UNK N   1      29.403  40.897  57.653  0.00  0.00     0.070 C 
HETATM    3  C   UNK N   1      30.889  42.838  61.375  0.00  0.00     0.087 C 
HETATM    4  C   UNK N   1      27.922  40.571  55.745  0.00  0.00     0.032 C 
HETATM    5  C   UNK N   1      27.984  41.275  57.141  0.00  0.00    -0.005 C 
HETATM    6  C   UNK N   1      29.481  43.306  60.812  0.00  0.00     0.049 C 
HETATM    7  C   UNK N   1      29.566  41.311  59.146  0.00  0.00     0.026 C 
HETATM    8  C   UNK N   1      29.373  42.870  59.293  0.00  0.00     0.011 C 
HETATM    9  C   UNK N   1      31.009  43.267  62.871  0.00  0.00     0.072 C 
HETATM   10  C   UNK N   1      29.588  45.322  62.433  0.00  0.00     0.034 C 
HETATM   11  C   UNK N   1      29.441  39.394  57.318  0.00  0.00     0.040 C 
HETATM   12  C   UNK N   1      31.025  41.292  61.224  0.00  0.00     0.040 C 
HETATM   13  C   UNK N   1      28.889  39.351  55.880  0.00  0.00     0.013 C 
HETATM   14  C   UNK N   1      29.416  44.867  60.963  0.00  0.00     0.022 C 
HETATM   15  C   UNK N   1      27.852  42.822  57.179  0.00  0.00     0.013 C 
HETATM   16  C   UNK N   1      30.919  40.875  59.748  0.00  0.00     0.011 C 
HETATM   17  C   UNK N   1      28.039  43.351  58.624  0.00  0.00     0.007 C 
HETATM   18  C   UNK N   1      26.796  40.661  57.980  0.00  0.00     0.019 C 
ENDROOT
BRANCH   4  19
HETATM   19  C   UNK N   1      28.150  41.461  54.517  0.00  0.00    -0.030 A 
HETATM   20  C   UNK N   1      29.374  41.541  53.817  0.00  0.00     0.153 A 
HETATM   21  O   UNK N   1      29.495  42.321  52.746  0.00  0.00    -0.287 OA
HETATM   22  C   UNK N   1      28.496  43.068  52.285  0.00  0.00     0.287 A 
HETATM   23  O   UNK N   1      28.664  43.760  51.299  0.00  0.00    -0.260 OA
HETATM   24  C   UNK N   1      27.259  43.059  52.930  0.00  0.00     0.083 A 
HETATM   25  C   UNK N   1      27.086  42.251  54.048  0.00  0.00     0.015 A 
ENDBRANCH   4  19
BRANCH   2  26
HETATM   26  O   UNK N   1      30.374  41.573  56.878  0.00  0.00    -0.389 OA
HETATM   27  H   UNK N   1      30.039  42.482  56.667  0.00  0.00     0.210 HD
ENDBRANCH   2  26
BRANCH   6  28
HETATM   28  C   UNK N   1      28.311  42.649  61.579  0.00  0.00     0.244 C 
HETATM   29  O   UNK N   1      27.253  43.229  61.763  0.00  0.00    -0.306 OA
ENDBRANCH   6  28
BRANCH   3  30
HETATM   30  O   UNK N   1      31.889  43.461  60.620  0.00  0.00    -0.309 OA
BRANCH  30  31
HETATM   31  C   UNK N   1      33.199  43.095  60.503  0.00  0.00     0.255 C 
HETATM   32  O   UNK N   1      33.940  43.067  61.474  0.00  0.00    -0.266 OA
HETATM   33  C   UNK N   1      33.731  42.716  59.161  0.00  0.00     0.126 C 
ENDBRANCH  30  31
ENDBRANCH   3  30
BRANCH   1  34
HETATM   34  O   UNK N   1      31.970  45.459  62.505  0.00  0.00    -0.316 OA
BRANCH  34  35
HETATM   35  C   UNK N   1      32.883  46.171  63.226  0.00  0.00     0.255 C 
HETATM   36  O   UNK N   1      34.002  45.727  63.444  0.00  0.00    -0.266 OA
HETATM   37  C   UNK N   1      32.511  47.514  63.768  0.00  0.00     0.126 C 
ENDBRANCH  34  35
ENDBRANCH   1  34
TORSDOF 7
ENDMDL
MODEL 5
REMARK VINA RESULT:      -4.6      3.852      5.351
REMARK  7 active torsions:
REMARK  status: ('A' for Active; 'I' for Inactive)
REMARK    1  A    between atoms: O_3  and  C_14 
REMARK    2  A    between atoms: O_3  and  C_22 
REMARK    3  A    between atoms: O_4  and  C_16 
REMARK    4  A    between atoms: O_4  and  C_23 
REMARK    5  A    between atoms: O_5  and  C_15 
REMARK    6  A    between atoms: C_11  and  C_17 
REMARK    7  A    between atoms: C_19  and  C_24 
ROOT
HETATM    1  C   UNK N   1      27.768  40.302  52.999  0.00  0.00     0.135 C 
HETATM    2  C   UNK N   1      29.995  41.757  59.288  0.00  0.00     0.070 C 
HETATM    3  C   UNK N   1      28.434  40.052  55.482  0.00  0.00     0.087 C 
HETATM    4  C   UNK N   1      31.074  43.413  60.714  0.00  0.00     0.032 C 
HETATM    5  C   UNK N   1      30.921  43.004  59.211  0.00  0.00    -0.005 C 
HETATM    6  C   UNK N   1      29.297  41.380  55.395  0.00  0.00     0.049 C 
HETATM    7  C   UNK N   1      29.917  41.056  57.899  0.00  0.00     0.026 C 
HETATM    8  C   UNK N   1      29.335  42.056  56.827  0.00  0.00     0.011 C 
HETATM    9  C   UNK N   1      28.386  39.380  54.074  0.00  0.00     0.072 C 
HETATM   10  C   UNK N   1      28.496  41.650  52.948  0.00  0.00     0.034 C 
HETATM   11  C   UNK N   1      30.648  40.981  60.447  0.00  0.00     0.040 C 
HETATM   12  C   UNK N   1      29.058  39.091  56.540  0.00  0.00     0.040 C 
HETATM   13  C   UNK N   1      30.881  42.078  61.503  0.00  0.00     0.013 C 
HETATM   14  C   UNK N   1      28.605  42.316  54.341  0.00  0.00     0.022 C 
HETATM   15  C   UNK N   1      30.273  44.030  58.243  0.00  0.00     0.013 C 
HETATM   16  C   UNK N   1      29.091  39.752  57.927  0.00  0.00     0.011 C 
HETATM   17  C   UNK N   1      30.110  43.419  56.828  0.00  0.00     0.007 C 
HETATM   18  C   UNK N   1      32.385  42.705  58.701  0.00  0.00     0.019 C 
ENDROOT
BRANCH   4  19
HETATM   19  C   UNK N   1      30.219  44.593  61.194  0.00  0.00    -0.030 A 
HETATM   20  C   UNK N   1      28.993  44.451  61.881  0.00  0.00     0.153 A 
HETATM   21  O   UNK N   1      28.313  45.520  62.286  0.00  0.00    -0.287 OA
HETATM   22  C   UNK N   1      28.730  46.764  62.063  0.00  0.00     0.287 A 
HETATM   23  O   UNK N   1      28.067  47.703  62.459  0.00  0.00    -0.260 OA
HETATM   24  C   UNK N   1      29.922  46.989  61.375  0.00  0.00     0.083 A 
HETATM   25  C   UNK N   1      30.669  45.900  60.942  0.00  0.00     0.015 A 
ENDBRANCH   4  19
BRANCH   2  26
HETATM   26  O   UNK N   1      28.695  42.164  59.672  0.00  0.00    -0.389 OA
HETATM   27  H   UNK N   1      28.158  42.330  58.856  0.00  0.00     0.210 HD
ENDBRANCH   2  26
BRANCH   6  28
HETATM   28  C   UNK N   1      30.755  41.088  54.969  0.00  0.00     0.244 C 
HETATM   29  O   UNK N   1      31.375  41.840  54.235  0.00  0.00    -0.306 OA
ENDBRANCH   6  28
BRANCH   3  30
HETATM   30  O   UNK N   1      27.140  40.399  55.887  0.00  0.00    -0.309 OA
BRANCH  30  31
HETATM   31  C   UNK N   1      26.190  39.589  56.437  0.00  0.00     0.255 C 
HETATM   32  O   UNK N   1      25.885  38.525  55.919  0.00  0.00    -0.266 OA
HETATM   33  C   UNK N   1      25.517  40.010  57.701  0.00  0.00     0.126 C 
ENDBRANCH  30  31
ENDBRANCH   3  30
BRANCH   1  34
HETATM   34  O   UNK N   1      26.417  40.514  53.239  0.00  0.00    -0.316 OA
BRANCH  34  35
HETATM   35  C   UNK N   1      25.413  39.825  52.624  0.00  0.00     0.255 C 
HETATM   36  O   UNK N   1      25.621  39.181  51.604  0.00  0.00    -0.266 OA
HETATM   37  C   UNK N   1      24.032  39.863  53.196  0.00  0.00     0.126 C 
ENDBRANCH  34  35
ENDBRANCH   1  34
TORSDOF 7
ENDMDL
MODEL 6
REMARK VINA RESULT:      -4.6      7.812     10.154
REMARK  7 active torsions:
REMARK  status: ('A' for Active; 'I' for Inactive)
REMARK    1  A    between atoms: O_3  and  C_14 
REMARK    2  A    between atoms: O_3  and  C_22 
REMARK    3  A    between atoms: O_4  and  C_16 
REMARK    4  A    between atoms: O_4  and  C_23 
REMARK    5  A    between atoms: O_5  and  C_15 
REMARK    6  A    between atoms: C_11  and  C_17 
REMARK    7  A    between atoms: C_19  and  C_24 
ROOT
HETATM    1  C   UNK N   1      35.730  46.799  64.301  0.00  0.00     0.135 C 
HETATM    2  C   UNK N   1      31.484  52.122  64.824  0.00  0.00     0.070 C 
HETATM    3  C   UNK N   1      33.668  48.242  64.885  0.00  0.00     0.087 C 
HETATM    4  C   UNK N   1      31.210  54.522  64.509  0.00  0.00     0.032 C 
HETATM    5  C   UNK N   1      32.313  53.432  64.711  0.00  0.00    -0.005 C 
HETATM    6  C   UNK N   1      34.520  49.564  64.672  0.00  0.00     0.049 C 
HETATM    7  C   UNK N   1      32.398  50.941  65.270  0.00  0.00     0.026 C 
HETATM    8  C   UNK N   1      33.547  50.725  64.211  0.00  0.00     0.011 C 
HETATM    9  C   UNK N   1      34.618  47.089  65.336  0.00  0.00     0.072 C 
HETATM   10  C   UNK N   1      36.517  48.072  63.971  0.00  0.00     0.034 C 
HETATM   11  C   UNK N   1      30.367  52.567  65.786  0.00  0.00     0.040 C 
HETATM   12  C   UNK N   1      32.559  48.501  65.950  0.00  0.00     0.040 C 
HETATM   13  C   UNK N   1      29.944  53.932  65.210  0.00  0.00     0.013 C 
HETATM   14  C   UNK N   1      35.596  49.250  63.572  0.00  0.00     0.022 C 
HETATM   15  C   UNK N   1      33.363  53.246  63.582  0.00  0.00     0.013 C 
HETATM   16  C   UNK N   1      31.618  49.629  65.497  0.00  0.00     0.011 C 
HETATM   17  C   UNK N   1      34.308  52.061  63.905  0.00  0.00     0.007 C 
HETATM   18  C   UNK N   1      33.079  53.842  66.029  0.00  0.00     0.019 C 
ENDROOT
BRANCH   4  19
HETATM   19  C   UNK N   1      30.996  55.025  63.075  0.00  0.00    -0.030 A 
HETATM   20  C   UNK N   1      31.918  55.839  62.379  0.00  0.00     0.153 A 
HETATM   21  O   UNK N   1      31.676  56.222  61.129  0.00  0.00    -0.287 OA
HETATM   22  C   UNK N   1      30.569  55.882  60.474  0.00  0.00     0.287 A 
HETATM   23  O   UNK N   1      30.404  56.260  59.330  0.00  0.00    -0.260 OA
HETATM   24  C   UNK N   1      29.601  55.095  61.098  0.00  0.00     0.083 A 
HETATM   25  C   UNK N   1      29.818  54.664  62.401  0.00  0.00     0.015 A 
ENDBRANCH   4  19
BRANCH   2  26
HETATM   26  O   UNK N   1      30.920  51.817  63.562  0.00  0.00    -0.389 OA
HETATM   27  H   UNK N   1      29.933  51.894  63.626  0.00  0.00     0.210 HD
ENDBRANCH   2  26
BRANCH   6  28
HETATM   28  C   UNK N   1      35.212  50.015  65.979  0.00  0.00     0.244 C 
HETATM   29  O   UNK N   1      36.408  49.852  66.164  0.00  0.00    -0.306 OA
ENDBRANCH   6  28
BRANCH   3  30
HETATM   30  O   UNK N   1      33.064  47.912  63.667  0.00  0.00    -0.309 OA
BRANCH  30  31
HETATM   31  C   UNK N   1      32.018  47.061  63.456  0.00  0.00     0.255 C 
HETATM   32  O   UNK N   1      32.079  45.885  63.785  0.00  0.00    -0.266 OA
HETATM   33  C   UNK N   1      30.774  47.582  62.817  0.00  0.00     0.126 C 
ENDBRANCH  30  31
ENDBRANCH   3  30
BRANCH   1  34
HETATM   34  O   UNK N   1      35.199  46.267  63.133  0.00  0.00    -0.316 OA
BRANCH  34  35
HETATM   35  C   UNK N   1      35.594  45.083  62.583  0.00  0.00     0.255 C 
HETATM   36  O   UNK N   1      34.817  44.144  62.480  0.00  0.00    -0.266 OA
HETATM   37  C   UNK N   1      37.001  44.924  62.103  0.00  0.00     0.126 C 
ENDBRANCH  34  35
ENDBRANCH   1  34
TORSDOF 7
ENDMDL
MODEL 7
REMARK VINA RESULT:      -4.4      3.582      7.435
REMARK  7 active torsions:
REMARK  status: ('A' for Active; 'I' for Inactive)
REMARK    1  A    between atoms: O_3  and  C_14 
REMARK    2  A    between atoms: O_3  and  C_22 
REMARK    3  A    between atoms: O_4  and  C_16 
REMARK    4  A    between atoms: O_4  and  C_23 
REMARK    5  A    between atoms: O_5  and  C_15 
REMARK    6  A    between atoms: C_11  and  C_17 
REMARK    7  A    between atoms: C_19  and  C_24 
ROOT
HETATM    1  C   UNK N   1      29.905  41.845  62.574  0.00  0.00     0.135 C 
HETATM    2  C   UNK N   1      29.731  41.881  55.747  0.00  0.00     0.070 C 
HETATM    3  C   UNK N   1      30.555  42.256  60.107  0.00  0.00     0.087 C 
HETATM    4  C   UNK N   1      28.607  41.045  53.753  0.00  0.00     0.032 C 
HETATM    5  C   UNK N   1      28.822  40.714  55.267  0.00  0.00    -0.005 C 
HETATM    6  C   UNK N   1      29.548  41.121  59.643  0.00  0.00     0.049 C 
HETATM    7  C   UNK N   1      30.256  41.599  57.187  0.00  0.00     0.026 C 
HETATM    8  C   UNK N   1      29.039  41.461  58.182  0.00  0.00     0.011 C 
HETATM    9  C   UNK N   1      31.059  41.933  61.548  0.00  0.00     0.072 C 
HETATM   10  C   UNK N   1      28.842  40.840  62.118  0.00  0.00     0.034 C 
HETATM   11  C   UNK N   1      30.763  41.933  54.606  0.00  0.00     0.040 C 
HETATM   12  C   UNK N   1      31.745  42.342  59.104  0.00  0.00     0.040 C 
HETATM   13  C   UNK N   1      29.882  41.851  53.345  0.00  0.00     0.013 C 
HETATM   14  C   UNK N   1      28.361  41.103  60.671  0.00  0.00     0.022 C 
HETATM   15  C   UNK N   1      27.570  40.667  56.184  0.00  0.00     0.013 C 
HETATM   16  C   UNK N   1      31.245  42.672  57.688  0.00  0.00     0.011 C 
HETATM   17  C   UNK N   1      27.980  40.430  57.659  0.00  0.00     0.007 C 
HETATM   18  C   UNK N   1      29.506  39.292  55.298  0.00  0.00     0.019 C 
ENDROOT
BRANCH   4  19
HETATM   19  C   UNK N   1      27.268  41.693  53.376  0.00  0.00    -0.030 A 
HETATM   20  C   UNK N   1      27.096  43.077  53.152  0.00  0.00     0.153 A 
HETATM   21  O   UNK N   1      25.909  43.568  52.808  0.00  0.00    -0.287 OA
HETATM   22  C   UNK N   1      24.829  42.804  52.668  0.00  0.00     0.287 A 
HETATM   23  O   UNK N   1      23.770  43.308  52.349  0.00  0.00    -0.260 OA
HETATM   24  C   UNK N   1      24.911  41.429  52.889  0.00  0.00     0.083 A 
HETATM   25  C   UNK N   1      26.135  40.873  53.241  0.00  0.00     0.015 A 
ENDBRANCH   4  19
BRANCH   2  26
HETATM   26  O   UNK N   1      28.983  43.082  55.756  0.00  0.00    -0.389 OA
HETATM   27  H   UNK N   1      29.446  43.743  56.331  0.00  0.00     0.210 HD
ENDBRANCH   2  26
BRANCH   6  28
HETATM   28  C   UNK N   1      30.231  39.735  59.597  0.00  0.00     0.244 C 
HETATM   29  O   UNK N   1      29.613  38.704  59.807  0.00  0.00    -0.306 OA
ENDBRANCH   6  28
BRANCH   3  30
HETATM   30  O   UNK N   1      29.867  43.475  60.106  0.00  0.00    -0.309 OA
BRANCH  30  31
HETATM   31  C   UNK N   1      30.395  44.733  60.112  0.00  0.00     0.255 C 
HETATM   32  O   UNK N   1      31.184  45.087  60.976  0.00  0.00    -0.266 OA
HETATM   33  C   UNK N   1      30.006  45.691  59.036  0.00  0.00     0.126 C 
ENDBRANCH  30  31
ENDBRANCH   3  30
BRANCH   1  34
HETATM   34  O   UNK N   1      29.315  43.087  62.770  0.00  0.00    -0.316 OA
BRANCH  34  35
HETATM   35  C   UNK N   1      29.512  43.862  63.875  0.00  0.00     0.255 C 
HETATM   36  O   UNK N   1      29.490  45.083  63.801  0.00  0.00    -0.266 OA
HETATM   37  C   UNK N   1      29.766  43.213  65.197  0.00  0.00     0.126 C 
ENDBRANCH  34  35
ENDBRANCH   1  34
TORSDOF 7
ENDMDL
MODEL 8
REMARK VINA RESULT:      -4.4      3.340      5.277
REMARK  7 active torsions:
REMARK  status: ('A' for Active; 'I' for Inactive)
REMARK    1  A    between atoms: O_3  and  C_14 
REMARK    2  A    between atoms: O_3  and  C_22 
REMARK    3  A    between atoms: O_4  and  C_16 
REMARK    4  A    between atoms: O_4  and  C_23 
REMARK    5  A    between atoms: O_5  and  C_15 
REMARK    6  A    between atoms: C_11  and  C_17 
REMARK    7  A    between atoms: C_19  and  C_24 
ROOT
HETATM    1  C   UNK N   1      27.657  41.414  51.462  0.00  0.00     0.135 C 
HETATM    2  C   UNK N   1      27.698  42.166  58.249  0.00  0.00     0.070 C 
HETATM    3  C   UNK N   1      26.989  41.240  53.951  0.00  0.00     0.087 C 
HETATM    4  C   UNK N   1      28.956  42.945  60.185  0.00  0.00     0.032 C 
HETATM    5  C   UNK N   1      29.152  42.473  58.706  0.00  0.00    -0.005 C 
HETATM    6  C   UNK N   1      28.461  41.646  54.385  0.00  0.00     0.049 C 
HETATM    7  C   UNK N   1      27.707  41.450  56.865  0.00  0.00     0.026 C 
HETATM    8  C   UNK N   1      28.393  42.377  55.788  0.00  0.00     0.011 C 
HETATM    9  C   UNK N   1      27.044  40.522  52.566  0.00  0.00     0.072 C 
HETATM   10  C   UNK N   1      29.039  41.929  51.877  0.00  0.00     0.034 C 
HETATM   11  C   UNK N   1      27.173  41.375  59.461  0.00  0.00     0.040 C 
HETATM   12  C   UNK N   1      26.362  40.313  55.037  0.00  0.00     0.040 C 
HETATM   13  C   UNK N   1      27.652  42.224  60.655  0.00  0.00     0.013 C 
HETATM   14  C   UNK N   1      29.026  42.599  53.272  0.00  0.00     0.022 C 
HETATM   15  C   UNK N   1      29.774  43.480  57.701  0.00  0.00     0.013 C 
HETATM   16  C   UNK N   1      26.299  41.028  56.396  0.00  0.00     0.011 C 
HETATM   17  C   UNK N   1      29.796  42.882  56.271  0.00  0.00     0.007 C 
HETATM   18  C   UNK N   1      30.097  41.212  58.784  0.00  0.00     0.019 C 
ENDROOT
BRANCH   4  19
HETATM   19  C   UNK N   1      29.000  44.458  60.434  0.00  0.00    -0.030 A 
HETATM   20  C   UNK N   1      27.855  45.284  60.483  0.00  0.00     0.153 A 
HETATM   21  O   UNK N   1      27.965  46.587  60.723  0.00  0.00    -0.287 OA
HETATM   22  C   UNK N   1      29.138  47.184  60.917  0.00  0.00     0.287 A 
HETATM   23  O   UNK N   1      29.178  48.380  61.135  0.00  0.00    -0.260 OA
HETATM   24  C   UNK N   1      30.319  46.442  60.867  0.00  0.00     0.083 A 
HETATM   25  C   UNK N   1      30.248  45.075  60.628  0.00  0.00     0.015 A 
ENDBRANCH   4  19
BRANCH   2  26
HETATM   26  O   UNK N   1      26.979  43.380  58.135  0.00  0.00    -0.389 OA
HETATM   27  H   UNK N   1      26.073  43.252  58.518  0.00  0.00     0.210 HD
ENDBRANCH   2  26
BRANCH   6  28
HETATM   28  C   UNK N   1      29.374  40.408  54.538  0.00  0.00     0.244 C 
HETATM   29  O   UNK N   1      30.590  40.491  54.468  0.00  0.00    -0.306 OA
ENDBRANCH   6  28
BRANCH   3  30
HETATM   30  O   UNK N   1      26.227  42.408  53.852  0.00  0.00    -0.309 OA
BRANCH  30  31
HETATM   31  C   UNK N   1      24.867  42.525  53.885  0.00  0.00     0.255 C 
HETATM   32  O   UNK N   1      24.152  41.834  53.174  0.00  0.00    -0.266 OA
HETATM   33  C   UNK N   1      24.244  43.512  54.815  0.00  0.00     0.126 C 
ENDBRANCH  30  31
ENDBRANCH   3  30
BRANCH   1  34
HETATM   34  O   UNK N   1      26.829  42.490  51.172  0.00  0.00    -0.316 OA
BRANCH  34  35
HETATM   35  C   UNK N   1      25.864  42.476  50.208  0.00  0.00     0.255 C 
HETATM   36  O   UNK N   1      25.761  41.536  49.432  0.00  0.00    -0.266 OA
HETATM   37  C   UNK N   1      24.922  43.631  50.087  0.00  0.00     0.126 C 
ENDBRANCH  34  35
ENDBRANCH   1  34
TORSDOF 7
ENDMDL
MODEL 9
REMARK VINA RESULT:      -4.4      3.706      8.278
REMARK  7 active torsions:
REMARK  status: ('A' for Active; 'I' for Inactive)
REMARK    1  A    between atoms: O_3  and  C_14 
REMARK    2  A    between atoms: O_3  and  C_22 
REMARK    3  A    between atoms: O_4  and  C_16 
REMARK    4  A    between atoms: O_4  and  C_23 
REMARK    5  A    between atoms: O_5  and  C_15 
REMARK    6  A    between atoms: C_11  and  C_17 
REMARK    7  A    between atoms: C_19  and  C_24 
ROOT
HETATM    1  C   UNK N   1      31.759  43.828  60.561  0.00  0.00     0.135 C 
HETATM    2  C   UNK N   1      27.688  41.909  55.425  0.00  0.00     0.070 C 
HETATM    3  C   UNK N   1      29.797  43.762  58.882  0.00  0.00     0.087 C 
HETATM    4  C   UNK N   1      27.425  40.437  53.501  0.00  0.00     0.032 C 
HETATM    5  C   UNK N   1      28.524  41.076  54.413  0.00  0.00    -0.005 C 
HETATM    6  C   UNK N   1      30.645  42.835  57.913  0.00  0.00     0.049 C 
HETATM    7  C   UNK N   1      28.623  42.818  56.278  0.00  0.00     0.026 C 
HETATM    8  C   UNK N   1      29.649  41.928  57.080  0.00  0.00     0.011 C 
HETATM    9  C   UNK N   1      30.769  44.658  59.712  0.00  0.00     0.072 C 
HETATM   10  C   UNK N   1      32.530  42.831  59.688  0.00  0.00     0.034 C 
HETATM   11  C   UNK N   1      26.688  42.598  54.478  0.00  0.00     0.040 C 
HETATM   12  C   UNK N   1      28.812  44.633  58.044  0.00  0.00     0.040 C 
HETATM   13  C   UNK N   1      26.231  41.443  53.567  0.00  0.00     0.013 C 
HETATM   14  C   UNK N   1      31.592  41.964  58.813  0.00  0.00     0.022 C 
HETATM   15  C   UNK N   1      29.445  40.118  55.217  0.00  0.00     0.013 C 
HETATM   16  C   UNK N   1      27.849  43.746  57.238  0.00  0.00     0.011 C 
HETATM   17  C   UNK N   1      30.398  40.922  56.138  0.00  0.00     0.007 C 
HETATM   18  C   UNK N   1      29.433  41.933  53.447  0.00  0.00     0.019 C 
ENDROOT
BRANCH   4  19
HETATM   19  C   UNK N   1      27.069  38.971  53.779  0.00  0.00    -0.030 A 
HETATM   20  C   UNK N   1      25.844  38.550  54.342  0.00  0.00     0.153 A 
HETATM   21  O   UNK N   1      25.594  37.258  54.538  0.00  0.00    -0.287 OA
HETATM   22  C   UNK N   1      26.469  36.303  54.234  0.00  0.00     0.287 A 
HETATM   23  O   UNK N   1      26.185  35.138  54.433  0.00  0.00    -0.260 OA
HETATM   24  C   UNK N   1      27.710  36.638  53.690  0.00  0.00     0.083 A 
HETATM   25  C   UNK N   1      28.008  37.976  53.461  0.00  0.00     0.015 A 
ENDBRANCH   4  19
BRANCH   2  26
HETATM   26  O   UNK N   1      26.988  41.031  56.286  0.00  0.00    -0.389 OA
HETATM   27  H   UNK N   1      27.598  40.300  56.563  0.00  0.00     0.210 HD
ENDBRANCH   2  26
BRANCH   6  28
HETATM   28  C   UNK N   1      31.480  43.666  56.912  0.00  0.00     0.244 C 
HETATM   29  O   UNK N   1      32.506  43.234  56.412  0.00  0.00    -0.306 OA
ENDBRANCH   6  28
BRANCH   3  30
HETATM   30  O   UNK N   1      29.061  42.937  59.740  0.00  0.00    -0.309 OA
BRANCH  30  31
HETATM   31  C   UNK N   1      27.977  43.273  60.497  0.00  0.00     0.255 C 
HETATM   32  O   UNK N   1      27.995  44.245  61.238  0.00  0.00    -0.266 OA
HETATM   33  C   UNK N   1      26.742  42.439  60.410  0.00  0.00     0.126 C 
ENDBRANCH  30  31
ENDBRANCH   3  30
BRANCH   1  34
HETATM   34  O   UNK N   1      31.098  43.144  61.573  0.00  0.00    -0.316 OA
BRANCH  34  35
HETATM   35  C   UNK N   1      31.561  43.032  62.851  0.00  0.00     0.255 C 
HETATM   36  O   UNK N   1      31.000  42.310  63.664  0.00  0.00    -0.266 OA
HETATM   37  C   UNK N   1      32.767  43.808  63.271  0.00  0.00     0.126 C 
ENDBRANCH  34  35
ENDBRANCH   1  34
TORSDOF 7
ENDMDL
