MODEL 1
REMARK VINA RESULT:      -5.6      0.000      0.000
REMARK  9 active torsions:
REMARK  status: ('A' for Active; 'I' for Inactive)
REMARK    1  A    between atoms: O_1  and  C_5 
REMARK    2  A    between atoms: O_2  and  C_6 
REMARK    3  A    between atoms: O_3  and  C_7 
REMARK    4  A    between atoms: O_4  and  C_15 
REMARK    5  A    between atoms: C_6  and  C_7 
REMARK    6  A    between atoms: C_6  and  C_15 
REMARK    7  A    between atoms: C_7  and  C_19 
REMARK    8  A    between atoms: C_10  and  C_14 
REMARK    9  A    between atoms: C_14  and  C_19 
ROOT
HETATM    1  C   UNK N   1      28.413  31.643  54.687  0.00  0.00     0.126 C 
HETATM    2  C   UNK N   1      27.913  38.464  54.823  0.00  0.00    -0.029 C 
HETATM    3  C   UNK N   1      26.752  34.164  55.011  0.00  0.00    -0.032 C 
HETATM    4  C   UNK N   1      28.739  39.789  54.794  0.00  0.00    -0.002 C 
HETATM    5  C   UNK N   1      28.863  37.530  55.654  0.00  0.00    -0.013 C 
HETATM    6  C   UNK N   1      27.340  33.384  56.241  0.00  0.00     0.008 C 
HETATM    7  C   UNK N   1      27.628  35.439  54.664  0.00  0.00     0.023 C 
HETATM    8  C   UNK N   1      28.651  32.522  55.963  0.00  0.00    -0.017 C 
HETATM    9  C   UNK N   1      27.973  32.489  53.477  0.00  0.00     0.033 C 
HETATM   10  C   UNK N   1      28.149  36.190  55.908  0.00  0.00    -0.070 C 
HETATM   11  C   UNK N   1      26.648  33.202  53.792  0.00  0.00     0.012 C 
HETATM   12  C   UNK N   1      27.639  37.749  53.456  0.00  0.00     0.011 C 
HETATM   13  C   UNK N   1      29.364  39.840  56.228  0.00  0.00     0.007 C 
HETATM   14  C   UNK N   1      29.200  38.432  56.849  0.00  0.00     0.015 C 
HETATM   15  C   UNK N   1      26.902  36.414  53.678  0.00  0.00     0.010 C 
HETATM   16  C   UNK N   1      27.421  34.340  57.464  0.00  0.00     0.033 C 
HETATM   17  C   UNK N   1      26.547  38.761  55.545  0.00  0.00     0.016 C 
HETATM   18  C   UNK N   1      25.291  34.581  55.372  0.00  0.00     0.016 C 
HETATM   19  C   UNK N   1      30.237  37.178  54.981  0.00  0.00     0.021 C 
HETATM   20  C   UNK N   1      28.023  35.688  57.160  0.00  0.00    -0.022 C 
HETATM   21  C   UNK N   1      29.959  33.343  55.814  0.00  0.00     0.018 C 
HETATM   22  C   UNK N   1      28.905  31.553  57.156  0.00  0.00     0.018 C 
ENDROOT
BRANCH   4  23
HETATM   23  C   UNK N   1      28.081  41.148  54.361  0.00  0.00    -0.011 C 
HETATM   24  C   UNK N   1      27.702  41.976  55.607  0.00  0.00     0.010 C 
BRANCH  23  25
HETATM   25  C   UNK N   1      29.025  41.961  53.434  0.00  0.00     0.039 C 
BRANCH  25  26
HETATM   26  C   UNK N   1      28.464  42.429  52.069  0.00  0.00     0.150 C 
BRANCH  26  27
HETATM   27  O   UNK N   1      29.435  43.206  51.408  0.00  0.00    -0.393 OA
HETATM   28  H   UNK N   1      30.222  42.633  51.208  0.00  0.00     0.210 HD
ENDBRANCH  26  27
BRANCH  26  29
HETATM   29  C   UNK N   1      27.967  41.245  51.179  0.00  0.00     0.180 C 
BRANCH  29  30
HETATM   30  O   UNK N   1      28.883  40.956  50.148  0.00  0.00    -0.390 OA
HETATM   31  H   UNK N   1      28.597  41.428  49.327  0.00  0.00     0.210 HD
ENDBRANCH  29  30
BRANCH  29  32
HETATM   32  C   UNK N   1      26.501  41.343  50.624  0.00  0.00     0.079 C 
HETATM   33  C   UNK N   1      25.956  42.785  50.592  0.00  0.00     0.048 C 
HETATM   34  C   UNK N   1      25.535  40.480  51.465  0.00  0.00     0.048 C 
BRANCH  32  35
HETATM   35  O   UNK N   1      26.492  40.873  49.295  0.00  0.00    -0.388 OA
HETATM   36  H   UNK N   1      27.420  40.617  49.048  0.00  0.00     0.210 HD
ENDBRANCH  32  35
ENDBRANCH  29  32
ENDBRANCH  26  29
ENDBRANCH  25  26
ENDBRANCH  23  25
ENDBRANCH   4  23
BRANCH   1  37
HETATM   37  O   UNK N   1      27.421  30.676  54.947  0.00  0.00    -0.395 OA
HETATM   38  H   UNK N   1      27.212  30.725  55.917  0.00  0.00     0.210 HD
ENDBRANCH   1  37
TORSDOF 9
ENDMDL
MODEL 2
REMARK VINA RESULT:      -5.6      7.593     10.587
REMARK  9 active torsions:
REMARK  status: ('A' for Active; 'I' for Inactive)
REMARK    1  A    between atoms: O_1  and  C_5 
REMARK    2  A    between atoms: O_2  and  C_6 
REMARK    3  A    between atoms: O_3  and  C_7 
REMARK    4  A    between atoms: O_4  and  C_15 
REMARK    5  A    between atoms: C_6  and  C_7 
REMARK    6  A    between atoms: C_6  and  C_15 
REMARK    7  A    between atoms: C_7  and  C_19 
REMARK    8  A    between atoms: C_10  and  C_14 
REMARK    9  A    between atoms: C_14  and  C_19 
ROOT
HETATM    1  C   UNK N   1      29.175  39.380  55.182  0.00  0.00     0.126 C 
HETATM    2  C   UNK N   1      31.761  43.153  60.269  0.00  0.00    -0.029 C 
HETATM    3  C   UNK N   1      29.426  42.032  56.640  0.00  0.00    -0.032 C 
HETATM    4  C   UNK N   1      32.606  43.090  61.581  0.00  0.00    -0.002 C 
HETATM    5  C   UNK N   1      30.967  41.801  60.352  0.00  0.00    -0.013 C 
HETATM    6  C   UNK N   1      28.242  41.036  56.910  0.00  0.00     0.008 C 
HETATM    7  C   UNK N   1      30.536  41.928  57.768  0.00  0.00     0.023 C 
HETATM    8  C   UNK N   1      28.536  39.499  56.608  0.00  0.00    -0.017 C 
HETATM    9  C   UNK N   1      30.417  40.278  55.030  0.00  0.00     0.033 C 
HETATM   10  C   UNK N   1      29.961  41.740  59.188  0.00  0.00    -0.070 C 
HETATM   11  C   UNK N   1      30.026  41.752  55.232  0.00  0.00     0.012 C 
HETATM   12  C   UNK N   1      32.535  43.154  58.906  0.00  0.00     0.011 C 
HETATM   13  C   UNK N   1      31.609  42.453  62.605  0.00  0.00     0.007 C 
HETATM   14  C   UNK N   1      30.438  41.852  61.791  0.00  0.00     0.015 C 
HETATM   15  C   UNK N   1      31.551  43.118  57.721  0.00  0.00     0.010 C 
HETATM   16  C   UNK N   1      27.630  41.332  58.308  0.00  0.00     0.033 C 
HETATM   17  C   UNK N   1      30.835  44.422  60.350  0.00  0.00     0.016 C 
HETATM   18  C   UNK N   1      28.827  43.473  56.589  0.00  0.00     0.016 C 
HETATM   19  C   UNK N   1      31.830  40.493  60.257  0.00  0.00     0.021 C 
HETATM   20  C   UNK N   1      28.646  41.498  59.409  0.00  0.00    -0.022 C 
HETATM   21  C   UNK N   1      29.425  38.781  57.657  0.00  0.00     0.018 C 
HETATM   22  C   UNK N   1      27.197  38.703  56.586  0.00  0.00     0.018 C 
ENDROOT
BRANCH   4  23
HETATM   23  C   UNK N   1      33.334  44.364  62.142  0.00  0.00    -0.011 C 
HETATM   24  C   UNK N   1      32.766  44.732  63.530  0.00  0.00     0.010 C 
BRANCH  23  25
HETATM   25  C   UNK N   1      34.869  44.146  62.221  0.00  0.00     0.039 C 
BRANCH  25  26
HETATM   26  C   UNK N   1      35.705  45.195  62.994  0.00  0.00     0.150 C 
BRANCH  26  27
HETATM   27  O   UNK N   1      36.159  44.629  64.201  0.00  0.00    -0.393 OA
HETATM   28  H   UNK N   1      36.586  45.340  64.748  0.00  0.00     0.210 HD
ENDBRANCH  26  27
BRANCH  26  29
HETATM   29  C   UNK N   1      36.883  45.776  62.148  0.00  0.00     0.180 C 
BRANCH  29  30
HETATM   30  O   UNK N   1      38.044  44.988  62.274  0.00  0.00    -0.390 OA
HETATM   31  H   UNK N   1      37.919  44.152  61.760  0.00  0.00     0.210 HD
ENDBRANCH  29  30
BRANCH  29  32
HETATM   32  C   UNK N   1      37.208  47.300  62.338  0.00  0.00     0.079 C 
HETATM   33  C   UNK N   1      38.202  47.573  63.485  0.00  0.00     0.048 C 
HETATM   34  C   UNK N   1      35.921  48.109  62.612  0.00  0.00     0.048 C 
BRANCH  32  35
HETATM   35  O   UNK N   1      37.805  47.782  61.155  0.00  0.00    -0.388 OA
HETATM   36  H   UNK N   1      38.657  48.233  61.397  0.00  0.00     0.210 HD
ENDBRANCH  32  35
ENDBRANCH  29  32
ENDBRANCH  26  29
ENDBRANCH  25  26
ENDBRANCH  23  25
ENDBRANCH   4  23
BRANCH   1  37
HETATM   37  O   UNK N   1      28.232  39.744  54.200  0.00  0.00    -0.395 OA
HETATM   38  H   UNK N   1      27.367  39.891  54.666  0.00  0.00     0.210 HD
ENDBRANCH   1  37
TORSDOF 9
ENDMDL
MODEL 3
REMARK VINA RESULT:      -5.5      6.773     12.317
REMARK  9 active torsions:
REMARK  status: ('A' for Active; 'I' for Inactive)
REMARK    1  A    between atoms: O_1  and  C_5 
REMARK    2  A    between atoms: O_2  and  C_6 
REMARK    3  A    between atoms: O_3  and  C_7 
REMARK    4  A    between atoms: O_4  and  C_15 
REMARK    5  A    between atoms: C_6  and  C_7 
REMARK    6  A    between atoms: C_6  and  C_15 
REMARK    7  A    between atoms: C_7  and  C_19 
REMARK    8  A    between atoms: C_10  and  C_14 
REMARK    9  A    between atoms: C_14  and  C_19 
ROOT
HETATM    1  C   UNK N   1      25.544  50.719  57.271  0.00  0.00     0.126 C 
HETATM    2  C   UNK N   1      29.807  45.806  59.393  0.00  0.00    -0.029 C 
HETATM    3  C   UNK N   1      27.825  49.785  59.046  0.00  0.00    -0.032 C 
HETATM    4  C   UNK N   1      30.129  44.283  59.280  0.00  0.00    -0.002 C 
HETATM    5  C   UNK N   1      28.237  45.791  59.336  0.00  0.00    -0.013 C 
HETATM    6  C   UNK N   1      26.334  49.815  59.542  0.00  0.00     0.008 C 
HETATM    7  C   UNK N   1      28.266  48.318  58.635  0.00  0.00     0.023 C 
HETATM    8  C   UNK N   1      25.216  49.696  58.413  0.00  0.00    -0.017 C 
HETATM    9  C   UNK N   1      26.976  50.541  56.731  0.00  0.00     0.033 C 
HETATM   10  C   UNK N   1      27.715  47.220  59.571  0.00  0.00    -0.070 C 
HETATM   11  C   UNK N   1      27.994  50.777  57.860  0.00  0.00     0.012 C 
HETATM   12  C   UNK N   1      30.304  46.742  58.238  0.00  0.00     0.011 C 
HETATM   13  C   UNK N   1      28.997  43.623  60.136  0.00  0.00     0.007 C 
HETATM   14  C   UNK N   1      27.911  44.701  60.366  0.00  0.00     0.015 C 
HETATM   15  C   UNK N   1      29.815  48.186  58.459  0.00  0.00     0.010 C 
HETATM   16  C   UNK N   1      26.172  48.840  60.742  0.00  0.00     0.033 C 
HETATM   17  C   UNK N   1      30.373  46.320  60.767  0.00  0.00     0.016 C 
HETATM   18  C   UNK N   1      28.719  50.324  60.207  0.00  0.00     0.016 C 
HETATM   19  C   UNK N   1      27.606  45.307  57.983  0.00  0.00     0.021 C 
HETATM   20  C   UNK N   1      26.792  47.483  60.528  0.00  0.00    -0.022 C 
HETATM   21  C   UNK N   1      25.027  48.274  57.822  0.00  0.00     0.018 C 
HETATM   22  C   UNK N   1      23.829  50.086  59.004  0.00  0.00     0.018 C 
ENDROOT
BRANCH   4  23
HETATM   23  C   UNK N   1      31.559  43.726  59.618  0.00  0.00    -0.011 C 
HETATM   24  C   UNK N   1      31.447  42.515  60.569  0.00  0.00     0.010 C 
BRANCH  23  25
HETATM   25  C   UNK N   1      32.331  43.338  58.328  0.00  0.00     0.039 C 
BRANCH  25  26
HETATM   26  C   UNK N   1      31.641  43.603  56.968  0.00  0.00     0.150 C 
BRANCH  26  27
HETATM   27  O   UNK N   1      32.407  44.524  56.229  0.00  0.00    -0.393 OA
HETATM   28  H   UNK N   1      32.556  44.159  55.317  0.00  0.00     0.210 HD
ENDBRANCH  26  27
BRANCH  26  29
HETATM   29  C   UNK N   1      31.370  42.294  56.159  0.00  0.00     0.180 C 
BRANCH  29  30
HETATM   30  O   UNK N   1      32.033  42.311  54.917  0.00  0.00    -0.390 OA
HETATM   31  H   UNK N   1      32.873  41.792  54.997  0.00  0.00     0.210 HD
ENDBRANCH  29  30
BRANCH  29  32
HETATM   32  C   UNK N   1      29.870  41.859  55.996  0.00  0.00     0.079 C 
HETATM   33  C   UNK N   1      29.301  41.155  57.244  0.00  0.00     0.048 C 
HETATM   34  C   UNK N   1      29.698  40.913  54.788  0.00  0.00     0.048 C 
BRANCH  32  35
HETATM   35  O   UNK N   1      29.089  43.013  55.786  0.00  0.00    -0.388 OA
HETATM   36  H   UNK N   1      29.208  43.304  54.843  0.00  0.00     0.210 HD
ENDBRANCH  32  35
ENDBRANCH  29  32
ENDBRANCH  26  29
ENDBRANCH  25  26
ENDBRANCH  23  25
ENDBRANCH   4  23
BRANCH   1  37
HETATM   37  O   UNK N   1      25.402  52.037  57.751  0.00  0.00    -0.395 OA
HETATM   38  H   UNK N   1      26.258  52.280  58.192  0.00  0.00     0.210 HD
ENDBRANCH   1  37
TORSDOF 9
ENDMDL
MODEL 4
REMARK VINA RESULT:      -5.4      5.987      9.261
REMARK  9 active torsions:
REMARK  status: ('A' for Active; 'I' for Inactive)
REMARK    1  A    between atoms: O_1  and  C_5 
REMARK    2  A    between atoms: O_2  and  C_6 
REMARK    3  A    between atoms: O_3  and  C_7 
REMARK    4  A    between atoms: O_4  and  C_15 
REMARK    5  A    between atoms: C_6  and  C_7 
REMARK    6  A    between atoms: C_6  and  C_15 
REMARK    7  A    between atoms: C_7  and  C_19 
REMARK    8  A    between atoms: C_10  and  C_14 
REMARK    9  A    between atoms: C_14  and  C_19 
ROOT
HETATM    1  C   UNK N   1      28.675  41.323  53.892  0.00  0.00     0.126 C 
HETATM    2  C   UNK N   1      28.972  45.213  59.512  0.00  0.00    -0.029 C 
HETATM    3  C   UNK N   1      27.562  42.152  56.593  0.00  0.00    -0.032 C 
HETATM    4  C   UNK N   1      29.842  46.263  60.273  0.00  0.00    -0.002 C 
HETATM    5  C   UNK N   1      30.081  44.287  58.896  0.00  0.00    -0.013 C 
HETATM    6  C   UNK N   1      28.524  40.921  56.425  0.00  0.00     0.008 C 
HETATM    7  C   UNK N   1      28.341  43.423  57.134  0.00  0.00     0.023 C 
HETATM    8  C   UNK N   1      29.508  40.966  55.172  0.00  0.00    -0.017 C 
HETATM    9  C   UNK N   1      27.863  42.619  54.075  0.00  0.00     0.033 C 
HETATM   10  C   UNK N   1      29.404  43.090  58.204  0.00  0.00    -0.070 C 
HETATM   11  C   UNK N   1      26.867  42.453  55.234  0.00  0.00     0.012 C 
HETATM   12  C   UNK N   1      28.086  45.727  58.326  0.00  0.00     0.011 C 
HETATM   13  C   UNK N   1      31.006  45.393  60.855  0.00  0.00     0.007 C 
HETATM   14  C   UNK N   1      30.971  44.032  60.120  0.00  0.00     0.015 C 
HETATM   15  C   UNK N   1      27.375  44.552  57.628  0.00  0.00     0.010 C 
HETATM   16  C   UNK N   1      29.201  40.608  57.789  0.00  0.00     0.033 C 
HETATM   17  C   UNK N   1      28.065  44.479  60.567  0.00  0.00     0.016 C 
HETATM   18  C   UNK N   1      26.432  41.735  57.588  0.00  0.00     0.016 C 
HETATM   19  C   UNK N   1      31.009  44.953  57.820  0.00  0.00     0.021 C 
HETATM   20  C   UNK N   1      29.756  41.816  58.499  0.00  0.00    -0.022 C 
HETATM   21  C   UNK N   1      30.712  41.933  55.316  0.00  0.00     0.018 C 
HETATM   22  C   UNK N   1      30.132  39.558  54.944  0.00  0.00     0.018 C 
ENDROOT
BRANCH   4  23
HETATM   23  C   UNK N   1      29.206  47.229  61.336  0.00  0.00    -0.011 C 
HETATM   24  C   UNK N   1      29.816  46.963  62.729  0.00  0.00     0.010 C 
BRANCH  23  25
HETATM   25  C   UNK N   1      29.398  48.716  60.932  0.00  0.00     0.039 C 
BRANCH  25  26
HETATM   26  C   UNK N   1      28.661  49.218  59.666  0.00  0.00     0.150 C 
BRANCH  26  27
HETATM   27  O   UNK N   1      27.442  49.813  60.043  0.00  0.00    -0.393 OA
HETATM   28  H   UNK N   1      27.185  49.476  60.941  0.00  0.00     0.210 HD
ENDBRANCH  26  27
BRANCH  26  29
HETATM   29  C   UNK N   1      29.532  50.183  58.800  0.00  0.00     0.180 C 
BRANCH  29  30
HETATM   30  O   UNK N   1      29.131  51.524  58.961  0.00  0.00    -0.390 OA
HETATM   31  H   UNK N   1      28.245  51.540  59.402  0.00  0.00     0.210 HD
ENDBRANCH  29  30
BRANCH  29  32
HETATM   32  C   UNK N   1      29.695  49.819  57.281  0.00  0.00     0.079 C 
HETATM   33  C   UNK N   1      28.378  49.916  56.486  0.00  0.00     0.048 C 
HETATM   34  C   UNK N   1      30.256  48.389  57.113  0.00  0.00     0.048 C 
BRANCH  32  35
HETATM   35  O   UNK N   1      30.595  50.732  56.695  0.00  0.00    -0.388 OA
HETATM   36  H   UNK N   1      31.504  50.550  57.054  0.00  0.00     0.210 HD
ENDBRANCH  32  35
ENDBRANCH  29  32
ENDBRANCH  26  29
ENDBRANCH  25  26
ENDBRANCH  23  25
ENDBRANCH   4  23
BRANCH   1  37
HETATM   37  O   UNK N   1      27.786  40.272  53.588  0.00  0.00    -0.395 OA
HETATM   38  H   UNK N   1      27.986  39.530  54.217  0.00  0.00     0.210 HD
ENDBRANCH   1  37
TORSDOF 9
ENDMDL
MODEL 5
REMARK VINA RESULT:      -5.4     22.591     25.527
REMARK  9 active torsions:
REMARK  status: ('A' for Active; 'I' for Inactive)
REMARK    1  A    between atoms: O_1  and  C_5 
REMARK    2  A    between atoms: O_2  and  C_6 
REMARK    3  A    between atoms: O_3  and  C_7 
REMARK    4  A    between atoms: O_4  and  C_15 
REMARK    5  A    between atoms: C_6  and  C_7 
REMARK    6  A    between atoms: C_6  and  C_15 
REMARK    7  A    between atoms: C_7  and  C_19 
REMARK    8  A    between atoms: C_10  and  C_14 
REMARK    9  A    between atoms: C_14  and  C_19 
ROOT
HETATM    1  C   UNK N   1      45.946  48.780  65.276  0.00  0.00     0.126 C 
HETATM    2  C   UNK N   1      46.392  54.112  61.014  0.00  0.00    -0.029 C 
HETATM    3  C   UNK N   1      45.394  50.058  62.578  0.00  0.00    -0.032 C 
HETATM    4  C   UNK N   1      46.817  55.611  60.911  0.00  0.00    -0.002 C 
HETATM    5  C   UNK N   1      45.802  54.061  62.469  0.00  0.00    -0.013 C 
HETATM    6  C   UNK N   1      44.331  50.050  63.735  0.00  0.00     0.008 C 
HETATM    7  C   UNK N   1      46.130  51.459  62.480  0.00  0.00     0.023 C 
HETATM    8  C   UNK N   1      44.909  49.954  65.217  0.00  0.00    -0.017 C 
HETATM    9  C   UNK N   1      47.043  48.924  64.204  0.00  0.00     0.033 C 
HETATM   10  C   UNK N   1      45.197  52.667  62.714  0.00  0.00    -0.070 C 
HETATM   11  C   UNK N   1      46.410  48.901  62.803  0.00  0.00     0.012 C 
HETATM   12  C   UNK N   1      47.521  53.029  60.933  0.00  0.00     0.011 C 
HETATM   13  C   UNK N   1      45.663  56.352  61.664  0.00  0.00     0.007 C 
HETATM   14  C   UNK N   1      44.875  55.283  62.459  0.00  0.00     0.015 C 
HETATM   15  C   UNK N   1      46.940  51.618  61.151  0.00  0.00     0.010 C 
HETATM   16  C   UNK N   1      43.303  51.192  63.497  0.00  0.00     0.033 C 
HETATM   17  C   UNK N   1      45.317  53.836  59.899  0.00  0.00     0.016 C 
HETATM   18  C   UNK N   1      44.643  49.736  61.247  0.00  0.00     0.016 C 
HETATM   19  C   UNK N   1      46.827  54.308  63.631  0.00  0.00     0.021 C 
HETATM   20  C   UNK N   1      43.921  52.521  63.147  0.00  0.00    -0.022 C 
HETATM   21  C   UNK N   1      45.544  51.259  65.762  0.00  0.00     0.018 C 
HETATM   22  C   UNK N   1      43.758  49.609  66.208  0.00  0.00     0.018 C 
ENDROOT
BRANCH   4  23
HETATM   23  C   UNK N   1      47.167  56.264  59.526  0.00  0.00    -0.011 C 
HETATM   24  C   UNK N   1      47.184  57.802  59.653  0.00  0.00     0.010 C 
BRANCH  23  25
HETATM   25  C   UNK N   1      48.528  55.746  58.987  0.00  0.00     0.039 C 
BRANCH  25  26
HETATM   26  C   UNK N   1      48.515  54.921  57.677  0.00  0.00     0.150 C 
BRANCH  26  27
HETATM   27  O   UNK N   1      47.188  54.584  57.352  0.00  0.00    -0.393 OA
HETATM   28  H   UNK N   1      47.093  54.570  56.363  0.00  0.00     0.210 HD
ENDBRANCH  26  27
BRANCH  26  29
HETATM   29  C   UNK N   1      49.234  55.647  56.495  0.00  0.00     0.180 C 
BRANCH  29  30
HETATM   30  O   UNK N   1      48.360  56.521  55.820  0.00  0.00    -0.390 OA
HETATM   31  H   UNK N   1      48.896  57.160  55.288  0.00  0.00     0.210 HD
ENDBRANCH  29  30
BRANCH  29  32
HETATM   32  C   UNK N   1      50.026  54.743  55.484  0.00  0.00     0.079 C 
HETATM   33  C   UNK N   1      51.487  54.491  55.907  0.00  0.00     0.048 C 
HETATM   34  C   UNK N   1      50.034  55.370  54.073  0.00  0.00     0.048 C 
BRANCH  32  35
HETATM   35  O   UNK N   1      49.395  53.484  55.420  0.00  0.00    -0.388 OA
HETATM   36  H   UNK N   1      48.422  53.628  55.282  0.00  0.00     0.210 HD
ENDBRANCH  32  35
ENDBRANCH  29  32
ENDBRANCH  26  29
ENDBRANCH  25  26
ENDBRANCH  23  25
ENDBRANCH   4  23
BRANCH   1  37
HETATM   37  O   UNK N   1      45.289  47.547  65.088  0.00  0.00    -0.395 OA
HETATM   38  H   UNK N   1      45.704  47.113  64.296  0.00  0.00     0.210 HD
ENDBRANCH   1  37
TORSDOF 9
ENDMDL
MODEL 6
REMARK VINA RESULT:      -5.3     14.743     17.651
REMARK  9 active torsions:
REMARK  status: ('A' for Active; 'I' for Inactive)
REMARK    1  A    between atoms: O_1  and  C_5 
REMARK    2  A    between atoms: O_2  and  C_6 
REMARK    3  A    between atoms: O_3  and  C_7 
REMARK    4  A    between atoms: O_4  and  C_15 
REMARK    5  A    between atoms: C_6  and  C_7 
REMARK    6  A    between atoms: C_6  and  C_15 
REMARK    7  A    between atoms: C_7  and  C_19 
REMARK    8  A    between atoms: C_10  and  C_14 
REMARK    9  A    between atoms: C_14  and  C_19 
ROOT
HETATM    1  C   UNK N   1      38.925  44.154  65.188  0.00  0.00     0.126 C 
HETATM    2  C   UNK N   1      34.605  49.371  64.222  0.00  0.00    -0.029 C 
HETATM    3  C   UNK N   1      36.376  45.286  63.986  0.00  0.00    -0.032 C 
HETATM    4  C   UNK N   1      34.291  50.841  64.644  0.00  0.00    -0.002 C 
HETATM    5  C   UNK N   1      35.142  48.774  65.572  0.00  0.00    -0.013 C 
HETATM    6  C   UNK N   1      36.385  44.500  65.347  0.00  0.00     0.008 C 
HETATM    7  C   UNK N   1      36.313  46.852  64.224  0.00  0.00     0.023 C 
HETATM    8  C   UNK N   1      37.753  44.525  66.162  0.00  0.00    -0.017 C 
HETATM    9  C   UNK N   1      38.944  45.056  63.939  0.00  0.00     0.033 C 
HETATM   10  C   UNK N   1      35.386  47.265  65.389  0.00  0.00    -0.070 C 
HETATM   11  C   UNK N   1      37.631  44.892  63.155  0.00  0.00     0.012 C 
HETATM   12  C   UNK N   1      35.718  49.147  63.142  0.00  0.00     0.011 C 
HETATM   13  C   UNK N   1      33.710  50.671  66.088  0.00  0.00     0.007 C 
HETATM   14  C   UNK N   1      34.060  49.238  66.556  0.00  0.00     0.015 C 
HETATM   15  C   UNK N   1      35.967  47.643  62.919  0.00  0.00     0.010 C 
HETATM   16  C   UNK N   1      35.118  44.877  66.165  0.00  0.00     0.033 C 
HETATM   17  C   UNK N   1      33.263  48.707  63.741  0.00  0.00     0.016 C 
HETATM   18  C   UNK N   1      35.135  44.802  63.171  0.00  0.00     0.016 C 
HETATM   19  C   UNK N   1      36.491  49.378  66.100  0.00  0.00     0.021 C 
HETATM   20  C   UNK N   1      34.840  46.357  66.234  0.00  0.00    -0.022 C 
HETATM   21  C   UNK N   1      38.062  45.859  66.890  0.00  0.00     0.018 C 
HETATM   22  C   UNK N   1      37.718  43.441  67.280  0.00  0.00     0.018 C 
ENDROOT
BRANCH   4  23
HETATM   23  C   UNK N   1      33.417  51.779  63.736  0.00  0.00    -0.011 C 
HETATM   24  C   UNK N   1      32.142  52.212  64.491  0.00  0.00     0.010 C 
BRANCH  23  25
HETATM   25  C   UNK N   1      34.223  53.020  63.269  0.00  0.00     0.039 C 
BRANCH  25  26
HETATM   26  C   UNK N   1      34.015  54.345  64.043  0.00  0.00     0.150 C 
BRANCH  26  27
HETATM   27  O   UNK N   1      35.121  54.571  64.884  0.00  0.00    -0.393 OA
HETATM   28  H   UNK N   1      34.806  55.011  65.717  0.00  0.00     0.210 HD
ENDBRANCH  26  27
BRANCH  26  29
HETATM   29  C   UNK N   1      33.748  55.563  63.100  0.00  0.00     0.180 C 
BRANCH  29  30
HETATM   30  O   UNK N   1      34.770  56.527  63.202  0.00  0.00    -0.390 OA
HETATM   31  H   UNK N   1      34.425  57.304  63.707  0.00  0.00     0.210 HD
ENDBRANCH  29  30
BRANCH  29  32
HETATM   32  C   UNK N   1      32.329  56.229  63.188  0.00  0.00     0.079 C 
HETATM   33  C   UNK N   1      31.214  55.375  62.550  0.00  0.00     0.048 C 
HETATM   34  C   UNK N   1      32.326  57.614  62.506  0.00  0.00     0.048 C 
BRANCH  32  35
HETATM   35  O   UNK N   1      31.993  56.390  64.548  0.00  0.00    -0.388 OA
HETATM   36  H   UNK N   1      31.728  57.337  64.694  0.00  0.00     0.210 HD
ENDBRANCH  32  35
ENDBRANCH  29  32
ENDBRANCH  26  29
ENDBRANCH  25  26
ENDBRANCH  23  25
ENDBRANCH   4  23
BRANCH   1  37
HETATM   37  O   UNK N   1      38.801  42.812  64.774  0.00  0.00    -0.395 OA
HETATM   38  H   UNK N   1      38.617  42.824  63.798  0.00  0.00     0.210 HD
ENDBRANCH   1  37
TORSDOF 9
ENDMDL
MODEL 7
REMARK VINA RESULT:      -5.3     24.171     28.193
REMARK  9 active torsions:
REMARK  status: ('A' for Active; 'I' for Inactive)
REMARK    1  A    between atoms: O_1  and  C_5 
REMARK    2  A    between atoms: O_2  and  C_6 
REMARK    3  A    between atoms: O_3  and  C_7 
REMARK    4  A    between atoms: O_4  and  C_15 
REMARK    5  A    between atoms: C_6  and  C_7 
REMARK    6  A    between atoms: C_6  and  C_15 
REMARK    7  A    between atoms: C_7  and  C_19 
REMARK    8  A    between atoms: C_10  and  C_14 
REMARK    9  A    between atoms: C_14  and  C_19 
ROOT
HETATM    1  C   UNK N   1      50.162  56.006  53.510  0.00  0.00     0.126 C 
HETATM    2  C   UNK N   1      50.107  53.050  59.679  0.00  0.00    -0.029 C 
HETATM    3  C   UNK N   1      51.636  54.784  55.867  0.00  0.00    -0.032 C 
HETATM    4  C   UNK N   1      49.190  52.658  60.880  0.00  0.00    -0.002 C 
HETATM    5  C   UNK N   1      49.461  54.411  59.234  0.00  0.00    -0.013 C 
HETATM    6  C   UNK N   1      51.422  56.334  55.724  0.00  0.00     0.008 C 
HETATM    7  C   UNK N   1      50.599  54.149  56.885  0.00  0.00     0.023 C 
HETATM    8  C   UNK N   1      50.159  56.791  54.867  0.00  0.00    -0.017 C 
HETATM    9  C   UNK N   1      50.232  54.482  53.725  0.00  0.00     0.033 C 
HETATM   10  C   UNK N   1      50.325  55.033  58.121  0.00  0.00    -0.070 C 
HETATM   11  C   UNK N   1      51.529  54.117  54.465  0.00  0.00     0.012 C 
HETATM   12  C   UNK N   1      50.110  52.107  58.429  0.00  0.00     0.011 C 
HETATM   13  C   UNK N   1      48.918  54.034  61.574  0.00  0.00     0.007 C 
HETATM   14  C   UNK N   1      49.341  55.140  60.578  0.00  0.00     0.015 C 
HETATM   15  C   UNK N   1      50.987  52.693  57.306  0.00  0.00     0.010 C 
HETATM   16  C   UNK N   1      51.551  57.001  57.122  0.00  0.00     0.033 C 
HETATM   17  C   UNK N   1      51.575  53.209  60.223  0.00  0.00     0.016 C 
HETATM   18  C   UNK N   1      53.101  54.554  56.358  0.00  0.00     0.016 C 
HETATM   19  C   UNK N   1      48.002  54.321  58.662  0.00  0.00     0.021 C 
HETATM   20  C   UNK N   1      50.784  56.304  58.217  0.00  0.00    -0.022 C 
HETATM   21  C   UNK N   1      48.789  56.632  55.576  0.00  0.00     0.018 C 
HETATM   22  C   UNK N   1      50.276  58.307  54.528  0.00  0.00     0.018 C 
ENDROOT
BRANCH   4  23
HETATM   23  C   UNK N   1      49.610  51.532  61.891  0.00  0.00    -0.011 C 
HETATM   24  C   UNK N   1      48.985  51.801  63.277  0.00  0.00     0.010 C 
BRANCH  23  25
HETATM   25  C   UNK N   1      49.202  50.127  61.372  0.00  0.00     0.039 C 
BRANCH  25  26
HETATM   26  C   UNK N   1      47.855  50.003  60.617  0.00  0.00     0.150 C 
BRANCH  26  27
HETATM   27  O   UNK N   1      47.996  49.081  59.563  0.00  0.00    -0.393 OA
HETATM   28  H   UNK N   1      48.609  49.464  58.882  0.00  0.00     0.210 HD
ENDBRANCH  26  27
BRANCH  26  29
HETATM   29  C   UNK N   1      46.665  49.629  61.558  0.00  0.00     0.180 C 
BRANCH  29  30
HETATM   30  O   UNK N   1      46.372  48.252  61.494  0.00  0.00    -0.390 OA
HETATM   31  H   UNK N   1      45.509  48.089  61.950  0.00  0.00     0.210 HD
ENDBRANCH  29  30
BRANCH  29  32
HETATM   32  C   UNK N   1      45.361  50.493  61.428  0.00  0.00     0.079 C 
HETATM   33  C   UNK N   1      45.623  51.918  60.903  0.00  0.00     0.048 C 
HETATM   34  C   UNK N   1      44.636  50.605  62.787  0.00  0.00     0.048 C 
BRANCH  32  35
HETATM   35  O   UNK N   1      44.499  49.868  60.503  0.00  0.00    -0.388 OA
HETATM   36  H   UNK N   1      45.028  49.628  59.697  0.00  0.00     0.210 HD
ENDBRANCH  32  35
ENDBRANCH  29  32
ENDBRANCH  26  29
ENDBRANCH  25  26
ENDBRANCH  23  25
ENDBRANCH   4  23
BRANCH   1  37
HETATM   37  O   UNK N   1      51.265  56.402  52.727  0.00  0.00    -0.395 OA
HETATM   38  H   UNK N   1      52.012  55.784  52.941  0.00  0.00     0.210 HD
ENDBRANCH   1  37
TORSDOF 9
ENDMDL
MODEL 8
REMARK VINA RESULT:      -5.2      1.621      2.890
REMARK  9 active torsions:
REMARK  status: ('A' for Active; 'I' for Inactive)
REMARK    1  A    between atoms: O_1  and  C_5 
REMARK    2  A    between atoms: O_2  and  C_6 
REMARK    3  A    between atoms: O_3  and  C_7 
REMARK    4  A    between atoms: O_4  and  C_15 
REMARK    5  A    between atoms: C_6  and  C_7 
REMARK    6  A    between atoms: C_6  and  C_15 
REMARK    7  A    between atoms: C_7  and  C_19 
REMARK    8  A    between atoms: C_10  and  C_14 
REMARK    9  A    between atoms: C_14  and  C_19 
ROOT
HETATM    1  C   UNK N   1      26.361  32.352  55.577  0.00  0.00     0.126 C 
HETATM    2  C   UNK N   1      28.441  38.834  56.258  0.00  0.00    -0.029 C 
HETATM    3  C   UNK N   1      27.645  34.556  57.226  0.00  0.00    -0.032 C 
HETATM    4  C   UNK N   1      28.632  40.183  55.495  0.00  0.00    -0.002 C 
HETATM    5  C   UNK N   1      28.807  37.795  55.139  0.00  0.00    -0.013 C 
HETATM    6  C   UNK N   1      28.494  33.530  56.391  0.00  0.00     0.008 C 
HETATM    7  C   UNK N   1      27.513  35.944  56.472  0.00  0.00     0.023 C 
HETATM    8  C   UNK N   1      27.768  32.882  55.130  0.00  0.00    -0.017 C 
HETATM    9  C   UNK N   1      25.524  33.448  56.264  0.00  0.00     0.033 C 
HETATM   10  C   UNK N   1      28.806  36.382  55.749  0.00  0.00    -0.070 C 
HETATM   11  C   UNK N   1      26.247  33.943  57.528  0.00  0.00     0.012 C 
HETATM   12  C   UNK N   1      27.000  38.484  56.763  0.00  0.00     0.011 C 
HETATM   13  C   UNK N   1      29.895  39.906  54.612  0.00  0.00     0.007 C 
HETATM   14  C   UNK N   1      30.126  38.376  54.611  0.00  0.00     0.015 C 
HETATM   15  C   UNK N   1      26.972  37.081  57.402  0.00  0.00     0.010 C 
HETATM   16  C   UNK N   1      29.898  34.135  56.111  0.00  0.00     0.033 C 
HETATM   17  C   UNK N   1      29.443  38.818  57.471  0.00  0.00     0.016 C 
HETATM   18  C   UNK N   1      28.355  34.743  58.605  0.00  0.00     0.016 C 
HETATM   19  C   UNK N   1      27.836  37.745  53.907  0.00  0.00     0.021 C 
HETATM   20  C   UNK N   1      29.875  35.560  55.620  0.00  0.00    -0.022 C 
HETATM   21  C   UNK N   1      27.624  33.817  53.901  0.00  0.00     0.018 C 
HETATM   22  C   UNK N   1      28.587  31.657  54.625  0.00  0.00     0.018 C 
ENDROOT
BRANCH   4  23
HETATM   23  C   UNK N   1      28.708  41.550  56.265  0.00  0.00    -0.011 C 
HETATM   24  C   UNK N   1      30.080  42.219  56.027  0.00  0.00     0.010 C 
BRANCH  23  25
HETATM   25  C   UNK N   1      27.557  42.501  55.840  0.00  0.00     0.039 C 
BRANCH  25  26
HETATM   26  C   UNK N   1      26.878  42.241  54.473  0.00  0.00     0.150 C 
BRANCH  26  27
HETATM   27  O   UNK N   1      25.488  42.424  54.602  0.00  0.00    -0.393 OA
HETATM   28  H   UNK N   1      25.186  43.082  53.922  0.00  0.00     0.210 HD
ENDBRANCH  26  27
BRANCH  26  29
HETATM   29  C   UNK N   1      27.472  43.118  53.324  0.00  0.00     0.180 C 
BRANCH  29  30
HETATM   30  O   UNK N   1      26.612  44.183  52.992  0.00  0.00    -0.390 OA
HETATM   31  H   UNK N   1      25.681  43.913  53.187  0.00  0.00     0.210 HD
ENDBRANCH  29  30
BRANCH  29  32
HETATM   32  C   UNK N   1      27.963  42.363  52.038  0.00  0.00     0.079 C 
HETATM   33  C   UNK N   1      27.426  40.922  51.935  0.00  0.00     0.048 C 
HETATM   34  C   UNK N   1      29.506  42.308  51.986  0.00  0.00     0.048 C 
BRANCH  32  35
HETATM   35  O   UNK N   1      27.494  43.057  50.904  0.00  0.00    -0.388 OA
HETATM   36  H   UNK N   1      27.227  43.972  51.186  0.00  0.00     0.210 HD
ENDBRANCH  32  35
ENDBRANCH  29  32
ENDBRANCH  26  29
ENDBRANCH  25  26
ENDBRANCH  23  25
ENDBRANCH   4  23
BRANCH   1  37
HETATM   37  O   UNK N   1      26.515  31.274  56.472  0.00  0.00    -0.395 OA
HETATM   38  H   UNK N   1      25.819  31.375  57.173  0.00  0.00     0.210 HD
ENDBRANCH   1  37
TORSDOF 9
ENDMDL
MODEL 9
REMARK VINA RESULT:      -5.0      7.564     13.148
REMARK  9 active torsions:
REMARK  status: ('A' for Active; 'I' for Inactive)
REMARK    1  A    between atoms: O_1  and  C_5 
REMARK    2  A    between atoms: O_2  and  C_6 
REMARK    3  A    between atoms: O_3  and  C_7 
REMARK    4  A    between atoms: O_4  and  C_15 
REMARK    5  A    between atoms: C_6  and  C_7 
REMARK    6  A    between atoms: C_6  and  C_15 
REMARK    7  A    between atoms: C_7  and  C_19 
REMARK    8  A    between atoms: C_10  and  C_14 
REMARK    9  A    between atoms: C_14  and  C_19 
ROOT
HETATM    1  C   UNK N   1      24.757  51.903  58.996  0.00  0.00     0.126 C 
HETATM    2  C   UNK N   1      28.992  46.534  58.793  0.00  0.00    -0.029 C 
HETATM    3  C   UNK N   1      27.003  50.359  57.657  0.00  0.00    -0.032 C 
HETATM    4  C   UNK N   1      29.475  45.280  59.587  0.00  0.00    -0.002 C 
HETATM    5  C   UNK N   1      28.761  47.563  59.957  0.00  0.00    -0.013 C 
HETATM    6  C   UNK N   1      27.276  51.553  58.641  0.00  0.00     0.008 C 
HETATM    7  C   UNK N   1      27.204  48.960  58.376  0.00  0.00     0.023 C 
HETATM    8  C   UNK N   1      26.144  51.843  59.724  0.00  0.00    -0.017 C 
HETATM    9  C   UNK N   1      24.489  50.638  58.159  0.00  0.00     0.033 C 
HETATM   10  C   UNK N   1      28.401  48.931  59.351  0.00  0.00    -0.070 C 
HETATM   11  C   UNK N   1      25.567  50.491  57.072  0.00  0.00     0.012 C 
HETATM   12  C   UNK N   1      27.644  46.418  58.002  0.00  0.00     0.011 C 
HETATM   13  C   UNK N   1      30.373  45.903  60.708  0.00  0.00     0.007 C 
HETATM   14  C   UNK N   1      30.069  47.419  60.746  0.00  0.00     0.015 C 
HETATM   15  C   UNK N   1      27.269  47.770  57.363  0.00  0.00     0.010 C 
HETATM   16  C   UNK N   1      28.719  51.431  59.206  0.00  0.00     0.033 C 
HETATM   17  C   UNK N   1      30.144  46.958  57.810  0.00  0.00     0.016 C 
HETATM   18  C   UNK N   1      27.987  50.506  56.453  0.00  0.00     0.016 C 
HETATM   19  C   UNK N   1      27.610  47.209  60.964  0.00  0.00     0.021 C 
HETATM   20  C   UNK N   1      29.084  50.051  59.690  0.00  0.00    -0.022 C 
HETATM   21  C   UNK N   1      26.088  50.837  60.903  0.00  0.00     0.018 C 
HETATM   22  C   UNK N   1      26.388  53.235  60.378  0.00  0.00     0.018 C 
ENDROOT
BRANCH   4  23
HETATM   23  C   UNK N   1      30.156  44.067  58.857  0.00  0.00    -0.011 C 
HETATM   24  C   UNK N   1      31.520  43.753  59.507  0.00  0.00     0.010 C 
BRANCH  23  25
HETATM   25  C   UNK N   1      29.241  42.812  58.876  0.00  0.00     0.039 C 
BRANCH  25  26
HETATM   26  C   UNK N   1      29.361  41.817  57.696  0.00  0.00     0.150 C 
BRANCH  26  27
HETATM   27  O   UNK N   1      28.270  40.927  57.726  0.00  0.00    -0.393 OA
HETATM   28  H   UNK N   1      28.419  40.215  57.050  0.00  0.00     0.210 HD
ENDBRANCH  26  27
BRANCH  26  29
HETATM   29  C   UNK N   1      29.487  42.530  56.312  0.00  0.00     0.180 C 
BRANCH  29  30
HETATM   30  O   UNK N   1      28.371  43.349  56.050  0.00  0.00    -0.390 OA
HETATM   31  H   UNK N   1      28.679  44.284  55.949  0.00  0.00     0.210 HD
ENDBRANCH  29  30
BRANCH  29  32
HETATM   32  C   UNK N   1      29.828  41.623  55.076  0.00  0.00     0.079 C 
HETATM   33  C   UNK N   1      31.272  41.804  54.567  0.00  0.00     0.048 C 
HETATM   34  C   UNK N   1      28.864  41.904  53.903  0.00  0.00     0.048 C 
BRANCH  32  35
HETATM   35  O   UNK N   1      29.696  40.273  55.461  0.00  0.00    -0.388 OA
HETATM   36  H   UNK N   1      30.566  39.967  55.830  0.00  0.00     0.210 HD
ENDBRANCH  32  35
ENDBRANCH  29  32
ENDBRANCH  26  29
ENDBRANCH  25  26
ENDBRANCH  23  25
ENDBRANCH   4  23
BRANCH   1  37
HETATM   37  O   UNK N   1      24.708  53.026  58.145  0.00  0.00    -0.395 OA
HETATM   38  H   UNK N   1      25.458  53.623  58.406  0.00  0.00     0.210 HD
ENDBRANCH   1  37
TORSDOF 9
ENDMDL
