MODEL 1
REMARK VINA RESULT:      -7.6      0.000      0.000
REMARK  5 active torsions:
REMARK  status: ('A' for Active; 'I' for Inactive)
REMARK    1  A    between atoms: O_3  and  C_8 
REMARK    2  A    between atoms: O_4  and  C_9 
REMARK    3  A    between atoms: O_5  and  C_10 
REMARK    4  A    between atoms: C_7  and  C_17 
REMARK    5  A    between atoms: C_11  and  C_18 
ROOT
HETATM    1  C   UNK N   1      41.140  44.661  49.512  0.00  0.00     0.038 C 
HETATM    2  C   UNK N   1      41.570  43.669  48.713  0.00  0.00     0.014 C 
ENDROOT
BRANCH   2   3
HETATM    3  C   UNK N   1      41.748  43.835  47.246  0.00  0.00    -0.033 A 
HETATM    4  C   UNK N   1      42.340  42.795  46.514  0.00  0.00     0.050 A 
HETATM    5  C   UNK N   1      42.503  42.904  45.125  0.00  0.00     0.099 A 
HETATM    6  C   UNK N   1      42.102  44.073  44.464  0.00  0.00     0.098 A 
HETATM    7  C   UNK N   1      41.529  45.123  45.192  0.00  0.00     0.040 A 
HETATM    8  C   UNK N   1      41.345  45.005  46.570  0.00  0.00     0.014 A 
BRANCH   5   9
HETATM    9  O   UNK N   1      43.040  41.886  44.419  0.00  0.00    -0.358 OA
HETATM   10  H   UNK N   1      43.719  41.309  44.795  0.00  0.00     0.218 HD
ENDBRANCH   5   9
BRANCH   6  11
HETATM   11  O   UNK N   1      42.268  44.180  43.129  0.00  0.00    -0.358 OA
HETATM   12  H   UNK N   1      43.091  44.517  42.746  0.00  0.00     0.218 HD
ENDBRANCH   6  11
ENDBRANCH   2   3
BRANCH   1  13
HETATM   13  C   UNK N   1      40.973  44.472  50.965  0.00  0.00     0.082 A 
HETATM   14  O   UNK N   1      41.626  45.252  51.826  0.00  0.00    -0.276 OA
HETATM   15  C   UNK N   1      41.487  45.137  53.146  0.00  0.00     0.290 A 
HETATM   16  O   UNK N   1      42.099  45.882  53.885  0.00  0.00    -0.260 OA
HETATM   17  C   UNK N   1      40.633  44.165  53.681  0.00  0.00     0.119 A 
HETATM   18  C   UNK N   1      39.938  43.323  52.812  0.00  0.00     0.074 A 
HETATM   19  C   UNK N   1      40.106  43.477  51.437  0.00  0.00     0.074 A 
BRANCH  18  20
HETATM   20  O   UNK N   1      39.108  42.369  53.281  0.00  0.00    -0.360 OA
HETATM   21  H   UNK N   1      39.184  41.447  53.000  0.00  0.00     0.217 HD
ENDBRANCH  18  20
ENDBRANCH   1  13
TORSDOF 5
ENDMDL
MODEL 2
REMARK VINA RESULT:      -7.5      4.604      8.677
REMARK  5 active torsions:
REMARK  status: ('A' for Active; 'I' for Inactive)
REMARK    1  A    between atoms: O_3  and  C_8 
REMARK    2  A    between atoms: O_4  and  C_9 
REMARK    3  A    between atoms: O_5  and  C_10 
REMARK    4  A    between atoms: C_7  and  C_17 
REMARK    5  A    between atoms: C_11  and  C_18 
ROOT
HETATM    1  C   UNK N   1      39.668  48.528  46.059  0.00  0.00     0.038 C 
HETATM    2  C   UNK N   1      40.813  47.838  46.212  0.00  0.00     0.014 C 
ENDROOT
BRANCH   2   3
HETATM    3  C   UNK N   1      41.235  47.255  47.513  0.00  0.00    -0.033 A 
HETATM    4  C   UNK N   1      40.546  46.138  48.009  0.00  0.00     0.050 A 
HETATM    5  C   UNK N   1      40.929  45.544  49.221  0.00  0.00     0.099 A 
HETATM    6  C   UNK N   1      41.988  46.087  49.961  0.00  0.00     0.098 A 
HETATM    7  C   UNK N   1      42.667  47.215  49.481  0.00  0.00     0.040 A 
HETATM    8  C   UNK N   1      42.301  47.791  48.264  0.00  0.00     0.014 A 
BRANCH   5   9
HETATM    9  O   UNK N   1      40.286  44.447  49.676  0.00  0.00    -0.358 OA
HETATM   10  H   UNK N   1      39.333  44.334  49.565  0.00  0.00     0.218 HD
ENDBRANCH   5   9
BRANCH   6  11
HETATM   11  O   UNK N   1      42.349  45.520  51.130  0.00  0.00    -0.358 OA
HETATM   12  H   UNK N   1      42.355  44.559  51.248  0.00  0.00     0.218 HD
ENDBRANCH   6  11
ENDBRANCH   2   3
BRANCH   1  13
HETATM   13  C   UNK N   1      39.270  49.095  44.758  0.00  0.00     0.082 A 
HETATM   14  O   UNK N   1      38.312  48.517  44.034  0.00  0.00    -0.276 OA
HETATM   15  C   UNK N   1      37.900  49.007  42.866  0.00  0.00     0.290 A 
HETATM   16  O   UNK N   1      37.015  48.445  42.253  0.00  0.00    -0.260 OA
HETATM   17  C   UNK N   1      38.480  50.172  42.349  0.00  0.00     0.119 A 
HETATM   18  C   UNK N   1      39.493  50.802  43.073  0.00  0.00     0.074 A 
HETATM   19  C   UNK N   1      39.893  50.262  44.293  0.00  0.00     0.074 A 
BRANCH  18  20
HETATM   20  O   UNK N   1      40.084  51.923  42.612  0.00  0.00    -0.360 OA
HETATM   21  H   UNK N   1      40.499  52.561  43.209  0.00  0.00     0.217 HD
ENDBRANCH  18  20
ENDBRANCH   1  13
TORSDOF 5
ENDMDL
MODEL 3
REMARK VINA RESULT:      -7.4      0.751      1.649
REMARK  5 active torsions:
REMARK  status: ('A' for Active; 'I' for Inactive)
REMARK    1  A    between atoms: O_3  and  C_8 
REMARK    2  A    between atoms: O_4  and  C_9 
REMARK    3  A    between atoms: O_5  and  C_10 
REMARK    4  A    between atoms: C_7  and  C_17 
REMARK    5  A    between atoms: C_11  and  C_18 
ROOT
HETATM    1  C   UNK N   1      41.066  44.621  49.616  0.00  0.00     0.038 C 
HETATM    2  C   UNK N   1      41.471  43.634  48.797  0.00  0.00     0.014 C 
ENDROOT
BRANCH   2   3
HETATM    3  C   UNK N   1      41.630  43.818  47.330  0.00  0.00    -0.033 A 
HETATM    4  C   UNK N   1      41.239  45.037  46.755  0.00  0.00     0.050 A 
HETATM    5  C   UNK N   1      41.395  45.258  45.378  0.00  0.00     0.099 A 
HETATM    6  C   UNK N   1      41.917  44.245  44.563  0.00  0.00     0.098 A 
HETATM    7  C   UNK N   1      42.290  43.018  45.128  0.00  0.00     0.040 A 
HETATM    8  C   UNK N   1      42.156  42.807  46.501  0.00  0.00     0.014 A 
BRANCH   5   9
HETATM    9  O   UNK N   1      41.052  46.445  44.835  0.00  0.00    -0.358 OA
HETATM   10  H   UNK N   1      40.870  46.538  43.889  0.00  0.00     0.218 HD
ENDBRANCH   5   9
BRANCH   6  11
HETATM   11  O   UNK N   1      42.058  44.455  43.238  0.00  0.00    -0.358 OA
HETATM   12  H   UNK N   1      42.913  44.690  42.850  0.00  0.00     0.218 HD
ENDBRANCH   6  11
ENDBRANCH   2   3
BRANCH   1  13
HETATM   13  C   UNK N   1      40.918  44.415  51.069  0.00  0.00     0.082 A 
HETATM   14  O   UNK N   1      41.573  45.191  51.931  0.00  0.00    -0.276 OA
HETATM   15  C   UNK N   1      41.450  45.061  53.251  0.00  0.00     0.290 A 
HETATM   16  O   UNK N   1      42.064  45.803  53.991  0.00  0.00    -0.260 OA
HETATM   17  C   UNK N   1      40.612  44.075  53.785  0.00  0.00     0.119 A 
HETATM   18  C   UNK N   1      39.914  43.236  52.914  0.00  0.00     0.074 A 
HETATM   19  C   UNK N   1      40.065  43.406  51.540  0.00  0.00     0.074 A 
BRANCH  18  20
HETATM   20  O   UNK N   1      39.099  42.269  53.383  0.00  0.00    -0.360 OA
HETATM   21  H   UNK N   1      38.241  42.477  53.780  0.00  0.00     0.217 HD
ENDBRANCH  18  20
ENDBRANCH   1  13
TORSDOF 5
ENDMDL
MODEL 4
REMARK VINA RESULT:      -7.1      0.801      2.022
REMARK  5 active torsions:
REMARK  status: ('A' for Active; 'I' for Inactive)
REMARK    1  A    between atoms: O_3  and  C_8 
REMARK    2  A    between atoms: O_4  and  C_9 
REMARK    3  A    between atoms: O_5  and  C_10 
REMARK    4  A    between atoms: C_7  and  C_17 
REMARK    5  A    between atoms: C_11  and  C_18 
ROOT
HETATM    1  C   UNK N   1      40.806  43.825  49.524  0.00  0.00     0.038 C 
HETATM    2  C   UNK N   1      41.457  44.771  48.825  0.00  0.00     0.014 C 
ENDROOT
BRANCH   2   3
HETATM    3  C   UNK N   1      41.600  44.727  47.346  0.00  0.00    -0.033 A 
HETATM    4  C   UNK N   1      41.973  43.518  46.738  0.00  0.00     0.050 A 
HETATM    5  C   UNK N   1      42.096  43.429  45.344  0.00  0.00     0.099 A 
HETATM    6  C   UNK N   1      41.874  44.562  44.549  0.00  0.00     0.098 A 
HETATM    7  C   UNK N   1      41.521  45.777  45.151  0.00  0.00     0.040 A 
HETATM    8  C   UNK N   1      41.377  45.859  46.537  0.00  0.00     0.014 A 
BRANCH   5   9
HETATM    9  O   UNK N   1      42.419  42.255  44.761  0.00  0.00    -0.358 OA
HETATM   10  H   UNK N   1      43.340  41.994  44.620  0.00  0.00     0.218 HD
ENDBRANCH   5   9
BRANCH   6  11
HETATM   11  O   UNK N   1      42.001  44.477  43.209  0.00  0.00    -0.358 OA
HETATM   12  H   UNK N   1      41.868  45.247  42.637  0.00  0.00     0.218 HD
ENDBRANCH   6  11
ENDBRANCH   2   3
BRANCH   1  13
HETATM   13  C   UNK N   1      40.675  43.893  50.991  0.00  0.00     0.082 A 
HETATM   14  O   UNK N   1      39.873  43.048  51.636  0.00  0.00    -0.276 OA
HETATM   15  C   UNK N   1      39.743  43.052  52.963  0.00  0.00     0.290 A 
HETATM   16  O   UNK N   1      39.004  42.252  53.500  0.00  0.00    -0.260 OA
HETATM   17  C   UNK N   1      40.461  43.973  53.736  0.00  0.00     0.119 A 
HETATM   18  C   UNK N   1      41.306  44.881  53.095  0.00  0.00     0.074 A 
HETATM   19  C   UNK N   1      41.419  44.841  51.707  0.00  0.00     0.074 A 
BRANCH  18  20
HETATM   20  O   UNK N   1      42.014  45.788  53.798  0.00  0.00    -0.360 OA
HETATM   21  H   UNK N   1      42.868  45.569  54.195  0.00  0.00     0.217 HD
ENDBRANCH  18  20
ENDBRANCH   1  13
TORSDOF 5
ENDMDL
MODEL 5
REMARK VINA RESULT:      -7.0      1.189      7.557
REMARK  5 active torsions:
REMARK  status: ('A' for Active; 'I' for Inactive)
REMARK    1  A    between atoms: O_3  and  C_8 
REMARK    2  A    between atoms: O_4  and  C_9 
REMARK    3  A    between atoms: O_5  and  C_10 
REMARK    4  A    between atoms: C_7  and  C_17 
REMARK    5  A    between atoms: C_11  and  C_18 
ROOT
HETATM    1  C   UNK N   1      41.563  43.171  48.284  0.00  0.00     0.038 C 
HETATM    2  C   UNK N   1      41.501  44.234  49.106  0.00  0.00     0.014 C 
ENDROOT
BRANCH   2   3
HETATM    3  C   UNK N   1      41.136  44.121  50.543  0.00  0.00    -0.033 A 
HETATM    4  C   UNK N   1      41.753  44.978  51.467  0.00  0.00     0.050 A 
HETATM    5  C   UNK N   1      41.418  44.918  52.828  0.00  0.00     0.099 A 
HETATM    6  C   UNK N   1      40.482  43.976  53.277  0.00  0.00     0.098 A 
HETATM    7  C   UNK N   1      39.877  43.105  52.362  0.00  0.00     0.040 A 
HETATM    8  C   UNK N   1      40.193  43.180  51.005  0.00  0.00     0.014 A 
BRANCH   5   9
HETATM    9  O   UNK N   1      41.987  45.769  53.709  0.00  0.00    -0.358 OA
HETATM   10  H   UNK N   1      41.599  46.632  53.905  0.00  0.00     0.218 HD
ENDBRANCH   5   9
BRANCH   6  11
HETATM   11  O   UNK N   1      40.168  43.915  54.587  0.00  0.00    -0.358 OA
HETATM   12  H   UNK N   1      40.852  43.897  55.273  0.00  0.00     0.218 HD
ENDBRANCH   6  11
ENDBRANCH   2   3
BRANCH   1  13
HETATM   13  C   UNK N   1      41.930  43.309  46.862  0.00  0.00     0.082 A 
HETATM   14  O   UNK N   1      41.577  44.395  46.177  0.00  0.00    -0.276 OA
HETATM   15  C   UNK N   1      41.909  44.577  44.899  0.00  0.00     0.290 A 
HETATM   16  O   UNK N   1      41.569  45.592  44.325  0.00  0.00    -0.260 OA
HETATM   17  C   UNK N   1      42.652  43.603  44.221  0.00  0.00     0.119 A 
HETATM   18  C   UNK N   1      43.033  42.447  44.903  0.00  0.00     0.074 A 
HETATM   19  C   UNK N   1      42.672  42.296  46.240  0.00  0.00     0.074 A 
BRANCH  18  20
HETATM   20  O   UNK N   1      43.746  41.480  44.289  0.00  0.00    -0.360 OA
HETATM   21  H   UNK N   1      44.361  41.682  43.570  0.00  0.00     0.217 HD
ENDBRANCH  18  20
ENDBRANCH   1  13
TORSDOF 5
ENDMDL
MODEL 6
REMARK VINA RESULT:      -7.0      4.625      5.971
REMARK  5 active torsions:
REMARK  status: ('A' for Active; 'I' for Inactive)
REMARK    1  A    between atoms: O_3  and  C_8 
REMARK    2  A    between atoms: O_4  and  C_9 
REMARK    3  A    between atoms: O_5  and  C_10 
REMARK    4  A    between atoms: C_7  and  C_17 
REMARK    5  A    between atoms: C_11  and  C_18 
ROOT
HETATM    1  C   UNK N   1      40.680  47.592  46.349  0.00  0.00     0.038 C 
HETATM    2  C   UNK N   1      39.566  48.263  46.005  0.00  0.00     0.014 C 
ENDROOT
BRANCH   2   3
HETATM    3  C   UNK N   1      39.498  49.157  44.819  0.00  0.00    -0.033 A 
HETATM    4  C   UNK N   1      38.612  48.836  43.779  0.00  0.00     0.050 A 
HETATM    5  C   UNK N   1      38.501  49.667  42.654  0.00  0.00     0.099 A 
HETATM    6  C   UNK N   1      39.302  50.812  42.550  0.00  0.00     0.098 A 
HETATM    7  C   UNK N   1      40.202  51.128  43.576  0.00  0.00     0.040 A 
HETATM    8  C   UNK N   1      40.296  50.314  44.705  0.00  0.00     0.014 A 
BRANCH   5   9
HETATM    9  O   UNK N   1      37.622  49.373  41.673  0.00  0.00    -0.358 OA
HETATM   10  H   UNK N   1      37.903  49.273  40.752  0.00  0.00     0.218 HD
ENDBRANCH   5   9
BRANCH   6  11
HETATM   11  O   UNK N   1      39.201  51.605  41.464  0.00  0.00    -0.358 OA
HETATM   12  H   UNK N   1      38.427  52.170  41.318  0.00  0.00     0.218 HD
ENDBRANCH   6  11
ENDBRANCH   2   3
BRANCH   1  13
HETATM   13  C   UNK N   1      40.722  46.709  47.529  0.00  0.00     0.082 A 
HETATM   14  O   UNK N   1      41.815  46.651  48.289  0.00  0.00    -0.276 OA
HETATM   15  C   UNK N   1      41.890  45.889  49.380  0.00  0.00     0.290 A 
HETATM   16  O   UNK N   1      42.909  45.882  50.042  0.00  0.00    -0.260 OA
HETATM   17  C   UNK N   1      40.798  45.104  49.766  0.00  0.00     0.119 A 
HETATM   18  C   UNK N   1      39.637  45.131  48.990  0.00  0.00     0.074 A 
HETATM   19  C   UNK N   1      39.594  45.944  47.860  0.00  0.00     0.074 A 
BRANCH  18  20
HETATM   20  O   UNK N   1      38.562  44.388  49.321  0.00  0.00    -0.360 OA
HETATM   21  H   UNK N   1      37.958  44.655  50.028  0.00  0.00     0.217 HD
ENDBRANCH  18  20
ENDBRANCH   1  13
TORSDOF 5
ENDMDL
MODEL 7
REMARK VINA RESULT:      -6.7      1.165      7.615
REMARK  5 active torsions:
REMARK  status: ('A' for Active; 'I' for Inactive)
REMARK    1  A    between atoms: O_3  and  C_8 
REMARK    2  A    between atoms: O_4  and  C_9 
REMARK    3  A    between atoms: O_5  and  C_10 
REMARK    4  A    between atoms: C_7  and  C_17 
REMARK    5  A    between atoms: C_11  and  C_18 
ROOT
HETATM    1  C   UNK N   1      41.727  43.080  48.158  0.00  0.00     0.038 C 
HETATM    2  C   UNK N   1      41.959  44.057  49.053  0.00  0.00     0.014 C 
ENDROOT
BRANCH   2   3
HETATM    3  C   UNK N   1      41.397  44.039  50.429  0.00  0.00    -0.033 A 
HETATM    4  C   UNK N   1      41.952  44.888  51.398  0.00  0.00     0.050 A 
HETATM    5  C   UNK N   1      41.434  44.919  52.702  0.00  0.00     0.099 A 
HETATM    6  C   UNK N   1      40.372  44.073  53.051  0.00  0.00     0.098 A 
HETATM    7  C   UNK N   1      39.827  43.208  52.093  0.00  0.00     0.040 A 
HETATM    8  C   UNK N   1      40.327  43.195  50.791  0.00  0.00     0.014 A 
BRANCH   5   9
HETATM    9  O   UNK N   1      41.947  45.763  53.621  0.00  0.00    -0.358 OA
HETATM   10  H   UNK N   1      41.608  46.662  53.731  0.00  0.00     0.218 HD
ENDBRANCH   5   9
BRANCH   6  11
HETATM   11  O   UNK N   1      39.881  44.096  54.307  0.00  0.00    -0.358 OA
HETATM   12  H   UNK N   1      39.702  44.930  54.766  0.00  0.00     0.218 HD
ENDBRANCH   6  11
ENDBRANCH   2   3
BRANCH   1  13
HETATM   13  C   UNK N   1      42.298  43.119  46.799  0.00  0.00     0.082 A 
HETATM   14  O   UNK N   1      43.338  42.349  46.482  0.00  0.00    -0.276 OA
HETATM   15  C   UNK N   1      43.871  42.329  45.261  0.00  0.00     0.290 A 
HETATM   16  O   UNK N   1      44.813  41.598  45.025  0.00  0.00    -0.260 OA
HETATM   17  C   UNK N   1      43.344  43.142  44.251  0.00  0.00     0.119 A 
HETATM   18  C   UNK N   1      42.260  43.971  44.546  0.00  0.00     0.074 A 
HETATM   19  C   UNK N   1      41.727  43.960  45.833  0.00  0.00     0.074 A 
BRANCH  18  20
HETATM   20  O   UNK N   1      41.722  44.775  43.607  0.00  0.00    -0.360 OA
HETATM   21  H   UNK N   1      41.739  44.540  42.668  0.00  0.00     0.217 HD
ENDBRANCH  18  20
ENDBRANCH   1  13
TORSDOF 5
ENDMDL
MODEL 8
REMARK VINA RESULT:      -6.3      1.296      7.552
REMARK  5 active torsions:
REMARK  status: ('A' for Active; 'I' for Inactive)
REMARK    1  A    between atoms: O_3  and  C_8 
REMARK    2  A    between atoms: O_4  and  C_9 
REMARK    3  A    between atoms: O_5  and  C_10 
REMARK    4  A    between atoms: C_7  and  C_17 
REMARK    5  A    between atoms: C_11  and  C_18 
ROOT
HETATM    1  C   UNK N   1      41.699  43.547  48.576  0.00  0.00     0.038 C 
HETATM    2  C   UNK N   1      41.319  44.534  49.406  0.00  0.00     0.014 C 
ENDROOT
BRANCH   2   3
HETATM    3  C   UNK N   1      41.150  44.336  50.870  0.00  0.00    -0.033 A 
HETATM    4  C   UNK N   1      40.147  43.466  51.324  0.00  0.00     0.050 A 
HETATM    5  C   UNK N   1      39.972  43.234  52.696  0.00  0.00     0.099 A 
HETATM    6  C   UNK N   1      40.783  43.899  53.626  0.00  0.00     0.098 A 
HETATM    7  C   UNK N   1      41.773  44.784  53.180  0.00  0.00     0.040 A 
HETATM    8  C   UNK N   1      41.963  44.997  51.814  0.00  0.00     0.014 A 
BRANCH   5   9
HETATM    9  O   UNK N   1      39.029  42.369  53.127  0.00  0.00    -0.358 OA
HETATM   10  H   UNK N   1      38.157  42.670  53.416  0.00  0.00     0.218 HD
ENDBRANCH   5   9
BRANCH   6  11
HETATM   11  O   UNK N   1      40.607  43.682  54.946  0.00  0.00    -0.358 OA
HETATM   12  H   UNK N   1      40.551  44.415  55.577  0.00  0.00     0.218 HD
ENDBRANCH   6  11
ENDBRANCH   2   3
BRANCH   1  13
HETATM   13  C   UNK N   1      41.862  43.768  47.127  0.00  0.00     0.082 A 
HETATM   14  O   UNK N   1      42.401  42.824  46.357  0.00  0.00    -0.276 OA
HETATM   15  C   UNK N   1      42.543  42.968  45.040  0.00  0.00     0.290 A 
HETATM   16  O   UNK N   1      43.032  42.070  44.383  0.00  0.00    -0.260 OA
HETATM   17  C   UNK N   1      42.125  44.147  44.412  0.00  0.00     0.119 A 
HETATM   18  C   UNK N   1      41.563  45.163  45.186  0.00  0.00     0.074 A 
HETATM   19  C   UNK N   1      41.426  44.974  46.560  0.00  0.00     0.074 A 
BRANCH  18  20
HETATM   20  O   UNK N   1      41.151  46.318  44.626  0.00  0.00    -0.360 OA
HETATM   21  H   UNK N   1      41.771  47.030  44.415  0.00  0.00     0.217 HD
ENDBRANCH  18  20
ENDBRANCH   1  13
TORSDOF 5
ENDMDL
MODEL 9
REMARK VINA RESULT:      -5.4      3.181      3.758
REMARK  5 active torsions:
REMARK  status: ('A' for Active; 'I' for Inactive)
REMARK    1  A    between atoms: O_3  and  C_8 
REMARK    2  A    between atoms: O_4  and  C_9 
REMARK    3  A    between atoms: O_5  and  C_10 
REMARK    4  A    between atoms: C_7  and  C_17 
REMARK    5  A    between atoms: C_11  and  C_18 
ROOT
HETATM    1  C   UNK N   1      39.992  45.365  49.696  0.00  0.00     0.038 C 
HETATM    2  C   UNK N   1      40.883  46.060  48.967  0.00  0.00     0.014 C 
ENDROOT
BRANCH   2   3
HETATM    3  C   UNK N   1      40.543  46.693  47.666  0.00  0.00    -0.033 A 
HETATM    4  C   UNK N   1      41.462  47.577  47.082  0.00  0.00     0.050 A 
HETATM    5  C   UNK N   1      41.188  48.175  45.843  0.00  0.00     0.099 A 
HETATM    6  C   UNK N   1      39.973  47.915  45.195  0.00  0.00     0.098 A 
HETATM    7  C   UNK N   1      39.042  47.048  45.783  0.00  0.00     0.040 A 
HETATM    8  C   UNK N   1      39.325  46.435  47.003  0.00  0.00     0.014 A 
BRANCH   5   9
HETATM    9  O   UNK N   1      42.092  48.997  45.268  0.00  0.00    -0.358 OA
HETATM   10  H   UNK N   1      41.860  49.560  44.516  0.00  0.00     0.218 HD
ENDBRANCH   5   9
BRANCH   6  11
HETATM   11  O   UNK N   1      39.707  48.498  44.008  0.00  0.00    -0.358 OA
HETATM   12  H   UNK N   1      39.213  48.036  43.316  0.00  0.00     0.218 HD
ENDBRANCH   6  11
ENDBRANCH   2   3
BRANCH   1  13
HETATM   13  C   UNK N   1      40.353  44.748  50.986  0.00  0.00     0.082 A 
HETATM   14  O   UNK N   1      39.590  43.793  51.514  0.00  0.00    -0.276 OA
HETATM   15  C   UNK N   1      39.890  43.187  52.663  0.00  0.00     0.290 A 
HETATM   16  O   UNK N   1      39.163  42.315  53.094  0.00  0.00    -0.260 OA
HETATM   17  C   UNK N   1      41.043  43.551  53.368  0.00  0.00     0.119 A 
HETATM   18  C   UNK N   1      41.865  44.554  52.851  0.00  0.00     0.074 A 
HETATM   19  C   UNK N   1      41.520  45.160  51.645  0.00  0.00     0.074 A 
BRANCH  18  20
HETATM   20  O   UNK N   1      42.983  44.940  53.498  0.00  0.00    -0.360 OA
HETATM   21  H   UNK N   1      43.152  44.686  54.416  0.00  0.00     0.217 HD
ENDBRANCH  18  20
ENDBRANCH   1  13
TORSDOF 5
ENDMDL
