MODEL 1
REMARK VINA RESULT:      -5.1      0.000      0.000
REMARK  9 active torsions:
REMARK  status: ('A' for Active; 'I' for Inactive)
REMARK    1  A    between atoms: O_1  and  C_10 
REMARK    2  A    between atoms: O_2  and  C_11 
REMARK    3  A    between atoms: O_3  and  C_12 
REMARK    4  A    between atoms: O_5  and  C_23 
REMARK    5  A    between atoms: O_6  and  C_24 
REMARK    6  A    between atoms: O_7  and  C_25 
REMARK    7  A    between atoms: O_9  and  C_29 
REMARK    8  A    between atoms: C_22  and  C_27 
REMARK    9  A    between atoms: C_26  and  C_29 
ROOT
HETATM    1  O   UNK N   1      28.030  40.999  58.058  0.00  0.00    -0.286 OA
HETATM    2  C   UNK N   1      30.483  42.377  57.464  0.00  0.00     0.116 A 
HETATM    3  C   UNK N   1      31.709  42.965  57.042  0.00  0.00     0.100 A 
HETATM    4  C   UNK N   1      27.292  38.645  56.599  0.00  0.00     0.081 A 
HETATM    5  C   UNK N   1      28.539  39.646  54.753  0.00  0.00    -0.029 A 
HETATM    6  C   UNK N   1      30.193  41.466  55.211  0.00  0.00    -0.030 A 
HETATM    7  C   UNK N   1      29.741  41.599  56.538  0.00  0.00     0.058 A 
HETATM    8  C   UNK N   1      28.080  39.703  56.088  0.00  0.00     0.055 A 
HETATM    9  C   UNK N   1      27.454  37.486  54.463  0.00  0.00    -0.059 A 
HETATM   10  C   UNK N   1      26.984  37.547  55.781  0.00  0.00     0.044 A 
HETATM   11  C   UNK N   1      32.166  42.766  55.732  0.00  0.00     0.040 A 
HETATM   12  C   UNK N   1      28.222  38.539  53.951  0.00  0.00     0.015 A 
HETATM   13  C   UNK N   1      31.414  42.030  54.824  0.00  0.00     0.012 A 
HETATM   14  C   UNK N   1      29.305  40.818  54.164  0.00  0.00     0.085 C 
HETATM   15  C   UNK N   1      28.521  40.839  56.951  0.00  0.00     0.199 C 
HETATM   16  C   UNK N   1      27.139  36.302  53.595  0.00  0.00     0.048 C 
ENDROOT
BRANCH  14  17
HETATM   17  C   UNK N   1      28.266  41.853  53.594  0.00  0.00     0.166 C 
HETATM   18  O   UNK N   1      26.972  41.411  53.989  0.00  0.00    -0.372 OA
HETATM   19  C   UNK N   1      25.959  42.348  53.648  0.00  0.00     0.176 C 
HETATM   20  C   UNK N   1      25.846  42.463  52.110  0.00  0.00     0.180 C 
HETATM   21  C   UNK N   1      27.187  42.927  51.539  0.00  0.00     0.180 C 
HETATM   22  C   UNK N   1      28.308  41.995  52.034  0.00  0.00     0.179 C 
BRANCH  19  23
HETATM   23  C   UNK N   1      24.631  41.863  54.243  0.00  0.00     0.198 C 
BRANCH  23  24
HETATM   24  O   UNK N   1      23.745  42.936  54.413  0.00  0.00    -0.398 OA
HETATM   25  H   UNK N   1      23.002  42.799  53.769  0.00  0.00     0.209 HD
ENDBRANCH  23  24
ENDBRANCH  19  23
BRANCH  20  26
HETATM   26  O   UNK N   1      24.815  43.340  51.724  0.00  0.00    -0.390 OA
HETATM   27  H   UNK N   1      24.348  43.639  52.548  0.00  0.00     0.210 HD
ENDBRANCH  20  26
BRANCH  21  28
HETATM   28  O   UNK N   1      27.121  42.923  50.135  0.00  0.00    -0.390 OA
HETATM   29  H   UNK N   1      26.446  43.602  49.872  0.00  0.00     0.210 HD
ENDBRANCH  21  28
BRANCH  22  30
HETATM   30  O   UNK N   1      29.535  42.498  51.570  0.00  0.00    -0.390 OA
HETATM   31  H   UNK N   1      29.346  43.084  50.789  0.00  0.00     0.210 HD
ENDBRANCH  22  30
ENDBRANCH  14  17
BRANCH   4  32
HETATM   32  O   UNK N   1      26.860  38.667  57.878  0.00  0.00    -0.360 OA
HETATM   33  H   UNK N   1      26.975  39.443  58.445  0.00  0.00     0.217 HD
ENDBRANCH   4  32
BRANCH   2  34
HETATM   34  O   UNK N   1      29.990  42.524  58.727  0.00  0.00    -0.352 OA
HETATM   35  C   UNK N   1      29.499  43.675  59.309  0.00  0.00     0.210 C 
ENDBRANCH   2  34
BRANCH   3  36
HETATM   36  O   UNK N   1      32.458  43.701  57.888  0.00  0.00    -0.358 OA
HETATM   37  H   UNK N   1      32.063  44.339  58.501  0.00  0.00     0.218 HD
ENDBRANCH   3  36
TORSDOF 9
ENDMDL
MODEL 2
REMARK VINA RESULT:      -4.9      2.987      7.934
REMARK  9 active torsions:
REMARK  status: ('A' for Active; 'I' for Inactive)
REMARK    1  A    between atoms: O_1  and  C_10 
REMARK    2  A    between atoms: O_2  and  C_11 
REMARK    3  A    between atoms: O_3  and  C_12 
REMARK    4  A    between atoms: O_5  and  C_23 
REMARK    5  A    between atoms: O_6  and  C_24 
REMARK    6  A    between atoms: O_7  and  C_25 
REMARK    7  A    between atoms: O_9  and  C_29 
REMARK    8  A    between atoms: C_22  and  C_27 
REMARK    9  A    between atoms: C_26  and  C_29 
ROOT
HETATM    1  O   UNK N   1      26.987  43.132  57.783  0.00  0.00    -0.286 OA
HETATM    2  C   UNK N   1      28.464  41.489  55.941  0.00  0.00     0.116 A 
HETATM    3  C   UNK N   1      29.301  40.795  55.022  0.00  0.00     0.100 A 
HETATM    4  C   UNK N   1      27.718  45.872  58.198  0.00  0.00     0.081 A 
HETATM    5  C   UNK N   1      29.985  45.136  57.667  0.00  0.00    -0.029 A 
HETATM    6  C   UNK N   1      30.341  42.971  56.467  0.00  0.00    -0.030 A 
HETATM    7  C   UNK N   1      28.992  42.604  56.644  0.00  0.00     0.058 A 
HETATM    8  C   UNK N   1      28.613  44.841  57.830  0.00  0.00     0.055 A 
HETATM    9  C   UNK N   1      29.556  47.470  58.209  0.00  0.00    -0.059 A 
HETATM   10  C   UNK N   1      28.198  47.178  58.387  0.00  0.00     0.044 A 
HETATM   11  C   UNK N   1      30.621  41.220  54.821  0.00  0.00     0.040 A 
HETATM   12  C   UNK N   1      30.446  46.447  57.858  0.00  0.00     0.015 A 
HETATM   13  C   UNK N   1      31.138  42.291  55.539  0.00  0.00     0.012 A 
HETATM   14  C   UNK N   1      30.970  44.020  57.365  0.00  0.00     0.085 C 
HETATM   15  C   UNK N   1      28.133  43.463  57.515  0.00  0.00     0.199 C 
HETATM   16  C   UNK N   1      30.064  48.870  58.393  0.00  0.00     0.048 C 
ENDROOT
BRANCH  14  17
HETATM   17  C   UNK N   1      31.432  43.385  58.728  0.00  0.00     0.166 C 
HETATM   18  O   UNK N   1      30.814  44.130  59.771  0.00  0.00    -0.372 OA
HETATM   19  C   UNK N   1      31.049  43.557  61.050  0.00  0.00     0.176 C 
HETATM   20  C   UNK N   1      32.554  43.639  61.394  0.00  0.00     0.180 C 
HETATM   21  C   UNK N   1      33.354  42.877  60.337  0.00  0.00     0.180 C 
HETATM   22  C   UNK N   1      32.986  43.399  58.937  0.00  0.00     0.179 C 
BRANCH  19  23
HETATM   23  C   UNK N   1      30.224  44.332  62.086  0.00  0.00     0.198 C 
BRANCH  23  24
HETATM   24  O   UNK N   1      30.984  45.368  62.647  0.00  0.00    -0.398 OA
HETATM   25  H   UNK N   1      31.886  44.996  62.829  0.00  0.00     0.209 HD
ENDBRANCH  23  24
ENDBRANCH  19  23
BRANCH  20  26
HETATM   26  O   UNK N   1      32.826  43.132  62.679  0.00  0.00    -0.390 OA
HETATM   27  H   UNK N   1      33.722  43.462  62.951  0.00  0.00     0.210 HD
ENDBRANCH  20  26
BRANCH  21  28
HETATM   28  O   UNK N   1      34.729  43.045  60.583  0.00  0.00    -0.390 OA
HETATM   29  H   UNK N   1      34.910  42.680  61.489  0.00  0.00     0.210 HD
ENDBRANCH  21  28
BRANCH  22  30
HETATM   30  O   UNK N   1      33.665  42.621  57.984  0.00  0.00    -0.390 OA
HETATM   31  H   UNK N   1      33.014  41.977  57.598  0.00  0.00     0.210 HD
ENDBRANCH  22  30
ENDBRANCH  14  17
BRANCH   4  32
HETATM   32  O   UNK N   1      26.399  45.619  58.338  0.00  0.00    -0.360 OA
HETATM   33  H   UNK N   1      25.806  45.551  57.575  0.00  0.00     0.217 HD
ENDBRANCH   4  32
BRANCH   2  34
HETATM   34  O   UNK N   1      27.168  41.133  56.174  0.00  0.00    -0.352 OA
HETATM   35  C   UNK N   1      26.710  39.994  56.803  0.00  0.00     0.210 C 
ENDBRANCH   2  34
BRANCH   3  36
HETATM   36  O   UNK N   1      28.841  39.740  54.320  0.00  0.00    -0.358 OA
HETATM   37  H   UNK N   1      28.066  39.805  53.743  0.00  0.00     0.218 HD
ENDBRANCH   3  36
TORSDOF 9
ENDMDL
MODEL 3
REMARK VINA RESULT:      -4.7     20.313     24.559
REMARK  9 active torsions:
REMARK  status: ('A' for Active; 'I' for Inactive)
REMARK    1  A    between atoms: O_1  and  C_10 
REMARK    2  A    between atoms: O_2  and  C_11 
REMARK    3  A    between atoms: O_3  and  C_12 
REMARK    4  A    between atoms: O_5  and  C_23 
REMARK    5  A    between atoms: O_6  and  C_24 
REMARK    6  A    between atoms: O_7  and  C_25 
REMARK    7  A    between atoms: O_9  and  C_29 
REMARK    8  A    between atoms: C_22  and  C_27 
REMARK    9  A    between atoms: C_26  and  C_29 
ROOT
HETATM    1  O   UNK N   1      49.712  49.664  59.835  0.00  0.00    -0.286 OA
HETATM    2  C   UNK N   1      46.959  49.856  60.646  0.00  0.00     0.116 A 
HETATM    3  C   UNK N   1      45.633  50.094  61.108  0.00  0.00     0.100 A 
HETATM    4  C   UNK N   1      51.636  51.579  60.751  0.00  0.00     0.081 A 
HETATM    5  C   UNK N   1      49.754  53.134  60.819  0.00  0.00    -0.029 A 
HETATM    6  C   UNK N   1      47.414  52.254  60.843  0.00  0.00    -0.030 A 
HETATM    7  C   UNK N   1      47.857  50.950  60.543  0.00  0.00     0.058 A 
HETATM    8  C   UNK N   1      50.257  51.839  60.567  0.00  0.00     0.055 A 
HETATM    9  C   UNK N   1      51.981  53.885  61.457  0.00  0.00    -0.059 A 
HETATM   10  C   UNK N   1      52.486  52.606  61.192  0.00  0.00     0.044 A 
HETATM   11  C   UNK N   1      45.237  51.392  61.457  0.00  0.00     0.040 A 
HETATM   12  C   UNK N   1      50.619  54.147  61.262  0.00  0.00     0.015 A 
HETATM   13  C   UNK N   1      46.114  52.461  61.320  0.00  0.00     0.012 A 
HETATM   14  C   UNK N   1      48.295  53.449  60.535  0.00  0.00     0.085 C 
HETATM   15  C   UNK N   1      49.299  50.754  60.202  0.00  0.00     0.199 C 
HETATM   16  C   UNK N   1      52.887  54.976  61.946  0.00  0.00     0.048 C 
ENDROOT
BRANCH  14  17
HETATM   17  C   UNK N   1      48.165  53.866  59.024  0.00  0.00     0.166 C 
HETATM   18  O   UNK N   1      49.456  53.743  58.439  0.00  0.00    -0.372 OA
HETATM   19  C   UNK N   1      49.431  53.961  57.035  0.00  0.00     0.176 C 
HETATM   20  C   UNK N   1      49.041  55.427  56.737  0.00  0.00     0.180 C 
HETATM   21  C   UNK N   1      47.657  55.709  57.324  0.00  0.00     0.180 C 
HETATM   22  C   UNK N   1      47.643  55.330  58.816  0.00  0.00     0.179 C 
BRANCH  19  23
HETATM   23  C   UNK N   1      50.827  53.658  56.474  0.00  0.00     0.198 C 
BRANCH  23  24
HETATM   24  O   UNK N   1      50.743  53.244  55.138  0.00  0.00    -0.398 OA
HETATM   25  H   UNK N   1      51.322  53.853  54.611  0.00  0.00     0.209 HD
ENDBRANCH  23  24
ENDBRANCH  19  23
BRANCH  20  26
HETATM   26  O   UNK N   1      49.057  55.704  55.357  0.00  0.00    -0.390 OA
HETATM   27  H   UNK N   1      48.372  56.400  55.180  0.00  0.00     0.210 HD
ENDBRANCH  20  26
BRANCH  21  28
HETATM   28  O   UNK N   1      47.348  57.070  57.154  0.00  0.00    -0.390 OA
HETATM   29  H   UNK N   1      47.777  57.562  57.902  0.00  0.00     0.210 HD
ENDBRANCH  21  28
BRANCH  22  30
HETATM   30  O   UNK N   1      46.338  55.512  59.304  0.00  0.00    -0.390 OA
HETATM   31  H   UNK N   1      46.375  56.209  60.012  0.00  0.00     0.210 HD
ENDBRANCH  22  30
ENDBRANCH  14  17
BRANCH   4  32
HETATM   32  O   UNK N   1      52.137  50.344  60.537  0.00  0.00    -0.360 OA
HETATM   33  H   UNK N   1      52.319  50.012  59.646  0.00  0.00     0.217 HD
ENDBRANCH   4  32
BRANCH   2  34
HETATM   34  O   UNK N   1      47.409  48.616  60.301  0.00  0.00    -0.352 OA
HETATM   35  C   UNK N   1      47.032  47.858  59.211  0.00  0.00     0.210 C 
ENDBRANCH   2  34
BRANCH   3  36
HETATM   36  O   UNK N   1      44.748  49.086  61.237  0.00  0.00    -0.358 OA
HETATM   37  H   UNK N   1      44.716  48.528  62.029  0.00  0.00     0.218 HD
ENDBRANCH   3  36
TORSDOF 9
ENDMDL
MODEL 4
REMARK VINA RESULT:      -4.5     18.576     23.259
REMARK  9 active torsions:
REMARK  status: ('A' for Active; 'I' for Inactive)
REMARK    1  A    between atoms: O_1  and  C_10 
REMARK    2  A    between atoms: O_2  and  C_11 
REMARK    3  A    between atoms: O_3  and  C_12 
REMARK    4  A    between atoms: O_5  and  C_23 
REMARK    5  A    between atoms: O_6  and  C_24 
REMARK    6  A    between atoms: O_7  and  C_25 
REMARK    7  A    between atoms: O_9  and  C_29 
REMARK    8  A    between atoms: C_22  and  C_27 
REMARK    9  A    between atoms: C_26  and  C_29 
ROOT
HETATM    1  O   UNK N   1      45.807  49.831  60.368  0.00  0.00    -0.286 OA
HETATM    2  C   UNK N   1      44.226  51.533  62.065  0.00  0.00     0.116 A 
HETATM    3  C   UNK N   1      43.581  52.449  62.943  0.00  0.00     0.100 A 
HETATM    4  C   UNK N   1      48.669  49.902  60.496  0.00  0.00     0.081 A 
HETATM    5  C   UNK N   1      48.379  52.238  61.144  0.00  0.00    -0.029 A 
HETATM    6  C   UNK N   1      46.166  53.026  62.002  0.00  0.00    -0.030 A 
HETATM    7  C   UNK N   1      45.542  51.822  61.619  0.00  0.00     0.058 A 
HETATM    8  C   UNK N   1      47.816  50.994  60.785  0.00  0.00     0.055 A 
HETATM    9  C   UNK N   1      50.614  51.294  60.951  0.00  0.00    -0.059 A 
HETATM   10  C   UNK N   1      50.061  50.063  60.579  0.00  0.00     0.044 A 
HETATM   11  C   UNK N   1      44.248  53.610  63.357  0.00  0.00     0.040 A 
HETATM   12  C   UNK N   1      49.773  52.380  61.225  0.00  0.00     0.015 A 
HETATM   13  C   UNK N   1      45.523  53.899  62.887  0.00  0.00     0.012 A 
HETATM   14  C   UNK N   1      47.478  53.442  61.365  0.00  0.00     0.085 C 
HETATM   15  C   UNK N   1      46.332  50.841  60.812  0.00  0.00     0.199 C 
HETATM   16  C   UNK N   1      52.103  51.459  61.059  0.00  0.00     0.048 C 
ENDROOT
BRANCH  14  17
HETATM   17  C   UNK N   1      47.231  54.136  59.975  0.00  0.00     0.166 C 
HETATM   18  O   UNK N   1      48.343  53.823  59.143  0.00  0.00    -0.372 OA
HETATM   19  C   UNK N   1      48.161  54.283  57.811  0.00  0.00     0.176 C 
HETATM   20  C   UNK N   1      48.120  55.828  57.789  0.00  0.00     0.180 C 
HETATM   21  C   UNK N   1      46.962  56.314  58.661  0.00  0.00     0.180 C 
HETATM   22  C   UNK N   1      47.078  55.693  60.065  0.00  0.00     0.179 C 
BRANCH  19  23
HETATM   23  C   UNK N   1      49.330  53.770  56.959  0.00  0.00     0.198 C 
BRANCH  23  24
HETATM   24  O   UNK N   1      48.918  53.550  55.637  0.00  0.00    -0.398 OA
HETATM   25  H   UNK N   1      48.335  54.313  55.388  0.00  0.00     0.209 HD
ENDBRANCH  23  24
ENDBRANCH  19  23
BRANCH  20  26
HETATM   26  O   UNK N   1      47.997  56.331  56.481  0.00  0.00    -0.390 OA
HETATM   27  H   UNK N   1      48.034  57.322  56.532  0.00  0.00     0.210 HD
ENDBRANCH  20  26
BRANCH  21  28
HETATM   28  O   UNK N   1      46.991  57.718  58.735  0.00  0.00    -0.390 OA
HETATM   29  H   UNK N   1      47.869  58.011  58.376  0.00  0.00     0.210 HD
ENDBRANCH  21  28
BRANCH  22  30
HETATM   30  O   UNK N   1      45.954  56.083  60.813  0.00  0.00    -0.390 OA
HETATM   31  H   UNK N   1      45.373  56.633  60.223  0.00  0.00     0.210 HD
ENDBRANCH  22  30
ENDBRANCH  14  17
BRANCH   4  32
HETATM   32  O   UNK N   1      48.155  48.697  60.171  0.00  0.00    -0.360 OA
HETATM   33  H   UNK N   1      47.876  48.060  60.845  0.00  0.00     0.217 HD
ENDBRANCH   4  32
BRANCH   2  34
HETATM   34  O   UNK N   1      43.636  50.382  61.635  0.00  0.00    -0.352 OA
HETATM   35  C   UNK N   1      42.459  50.254  60.926  0.00  0.00     0.210 C 
ENDBRANCH   2  34
BRANCH   3  36
HETATM   36  O   UNK N   1      42.337  52.212  63.406  0.00  0.00    -0.358 OA
HETATM   37  H   UNK N   1      42.017  52.593  64.238  0.00  0.00     0.218 HD
ENDBRANCH   3  36
TORSDOF 9
ENDMDL
MODEL 5
REMARK VINA RESULT:      -4.5     19.400     22.707
REMARK  9 active torsions:
REMARK  status: ('A' for Active; 'I' for Inactive)
REMARK    1  A    between atoms: O_1  and  C_10 
REMARK    2  A    between atoms: O_2  and  C_11 
REMARK    3  A    between atoms: O_3  and  C_12 
REMARK    4  A    between atoms: O_5  and  C_23 
REMARK    5  A    between atoms: O_6  and  C_24 
REMARK    6  A    between atoms: O_7  and  C_25 
REMARK    7  A    between atoms: O_9  and  C_29 
REMARK    8  A    between atoms: C_22  and  C_27 
REMARK    9  A    between atoms: C_26  and  C_29 
ROOT
HETATM    1  O   UNK N   1      46.137  53.805  64.730  0.00  0.00    -0.286 OA
HETATM    2  C   UNK N   1      43.816  52.106  64.745  0.00  0.00     0.116 A 
HETATM    3  C   UNK N   1      42.661  51.287  64.594  0.00  0.00     0.100 A 
HETATM    4  C   UNK N   1      46.875  55.239  62.361  0.00  0.00     0.081 A 
HETATM    5  C   UNK N   1      45.842  53.382  61.159  0.00  0.00    -0.029 A 
HETATM    6  C   UNK N   1      44.250  51.863  62.348  0.00  0.00    -0.030 A 
HETATM    7  C   UNK N   1      44.594  52.413  63.598  0.00  0.00     0.058 A 
HETATM    8  C   UNK N   1      46.188  54.003  62.380  0.00  0.00     0.055 A 
HETATM    9  C   UNK N   1      46.837  55.230  59.926  0.00  0.00    -0.059 A 
HETATM   10  C   UNK N   1      47.196  55.841  61.134  0.00  0.00     0.044 A 
HETATM   11  C   UNK N   1      42.308  50.802  63.328  0.00  0.00     0.040 A 
HETATM   12  C   UNK N   1      46.169  53.999  59.942  0.00  0.00     0.015 A 
HETATM   13  C   UNK N   1      43.096  51.081  62.218  0.00  0.00     0.012 A 
HETATM   14  C   UNK N   1      45.189  52.010  61.166  0.00  0.00     0.085 C 
HETATM   15  C   UNK N   1      45.734  53.379  63.658  0.00  0.00     0.199 C 
HETATM   16  C   UNK N   1      47.164  55.883  58.615  0.00  0.00     0.048 C 
ENDROOT
BRANCH  14  17
HETATM   17  C   UNK N   1      46.324  50.922  61.213  0.00  0.00     0.166 C 
HETATM   18  O   UNK N   1      47.495  51.508  60.654  0.00  0.00    -0.372 OA
HETATM   19  C   UNK N   1      48.628  50.660  60.774  0.00  0.00     0.176 C 
HETATM   20  C   UNK N   1      48.423  49.385  59.922  0.00  0.00     0.180 C 
HETATM   21  C   UNK N   1      47.177  48.647  60.412  0.00  0.00     0.180 C 
HETATM   22  C   UNK N   1      45.978  49.612  60.425  0.00  0.00     0.179 C 
BRANCH  19  23
HETATM   23  C   UNK N   1      49.862  51.430  60.287  0.00  0.00     0.198 C 
BRANCH  23  24
HETATM   24  O   UNK N   1      50.042  51.255  58.908  0.00  0.00    -0.398 OA
HETATM   25  H   UNK N   1      49.489  50.475  58.644  0.00  0.00     0.209 HD
ENDBRANCH  23  24
ENDBRANCH  19  23
BRANCH  20  26
HETATM   26  O   UNK N   1      49.547  48.539  59.966  0.00  0.00    -0.390 OA
HETATM   27  H   UNK N   1      49.219  47.603  60.023  0.00  0.00     0.210 HD
ENDBRANCH  20  26
BRANCH  21  28
HETATM   28  O   UNK N   1      46.923  47.551  59.569  0.00  0.00    -0.390 OA
HETATM   29  H   UNK N   1      45.994  47.650  59.232  0.00  0.00     0.210 HD
ENDBRANCH  21  28
BRANCH  22  30
HETATM   30  O   UNK N   1      44.872  48.934  60.964  0.00  0.00    -0.390 OA
HETATM   31  H   UNK N   1      45.126  47.979  61.073  0.00  0.00     0.210 HD
ENDBRANCH  22  30
ENDBRANCH  14  17
BRANCH   4  32
HETATM   32  O   UNK N   1      47.197  55.863  63.515  0.00  0.00    -0.360 OA
HETATM   33  H   UNK N   1      47.498  55.375  64.295  0.00  0.00     0.217 HD
ENDBRANCH   4  32
BRANCH   2  34
HETATM   34  O   UNK N   1      44.206  52.618  65.947  0.00  0.00    -0.352 OA
HETATM   35  C   UNK N   1      44.708  51.927  67.032  0.00  0.00     0.210 C 
ENDBRANCH   2  34
BRANCH   3  36
HETATM   36  O   UNK N   1      41.882  50.979  65.650  0.00  0.00    -0.358 OA
HETATM   37  H   UNK N   1      42.166  51.139  66.563  0.00  0.00     0.218 HD
ENDBRANCH   3  36
TORSDOF 9
ENDMDL
MODEL 6
REMARK VINA RESULT:      -4.4     20.228     24.253
REMARK  9 active torsions:
REMARK  status: ('A' for Active; 'I' for Inactive)
REMARK    1  A    between atoms: O_1  and  C_10 
REMARK    2  A    between atoms: O_2  and  C_11 
REMARK    3  A    between atoms: O_3  and  C_12 
REMARK    4  A    between atoms: O_5  and  C_23 
REMARK    5  A    between atoms: O_6  and  C_24 
REMARK    6  A    between atoms: O_7  and  C_25 
REMARK    7  A    between atoms: O_9  and  C_29 
REMARK    8  A    between atoms: C_22  and  C_27 
REMARK    9  A    between atoms: C_26  and  C_29 
ROOT
HETATM    1  O   UNK N   1      48.607  55.269  58.823  0.00  0.00    -0.286 OA
HETATM    2  C   UNK N   1      50.103  53.432  57.192  0.00  0.00     0.116 A 
HETATM    3  C   UNK N   1      50.881  52.447  56.520  0.00  0.00     0.100 A 
HETATM    4  C   UNK N   1      48.830  55.193  61.679  0.00  0.00     0.081 A 
HETATM    5  C   UNK N   1      49.276  52.812  61.378  0.00  0.00    -0.029 A 
HETATM    6  C   UNK N   1      49.988  51.953  59.140  0.00  0.00    -0.030 A 
HETATM    7  C   UNK N   1      49.682  53.183  58.524  0.00  0.00     0.058 A 
HETATM    8  C   UNK N   1      48.999  54.080  60.822  0.00  0.00     0.055 A 
HETATM    9  C   UNK N   1      49.240  53.773  63.614  0.00  0.00    -0.059 A 
HETATM   10  C   UNK N   1      48.949  55.029  63.068  0.00  0.00     0.044 A 
HETATM   11  C   UNK N   1      51.223  51.258  57.178  0.00  0.00     0.040 A 
HETATM   12  C   UNK N   1      49.395  52.667  62.769  0.00  0.00     0.015 A 
HETATM   13  C   UNK N   1      50.777  51.009  58.470  0.00  0.00     0.012 A 
HETATM   14  C   UNK N   1      49.367  51.593  60.476  0.00  0.00     0.085 C 
HETATM   15  C   UNK N   1      48.986  54.227  59.337  0.00  0.00     0.199 C 
HETATM   16  C   UNK N   1      49.386  53.602  65.098  0.00  0.00     0.048 C 
ENDROOT
BRANCH  14  17
HETATM   17  C   UNK N   1      47.917  51.013  60.281  0.00  0.00     0.166 C 
HETATM   18  O   UNK N   1      47.055  51.727  61.160  0.00  0.00    -0.372 OA
HETATM   19  C   UNK N   1      45.690  51.383  60.968  0.00  0.00     0.176 C 
HETATM   20  C   UNK N   1      45.460  49.906  61.361  0.00  0.00     0.180 C 
HETATM   21  C   UNK N   1      46.342  49.009  60.491  0.00  0.00     0.180 C 
HETATM   22  C   UNK N   1      47.805  49.479  60.583  0.00  0.00     0.179 C 
BRANCH  19  23
HETATM   23  C   UNK N   1      44.832  52.306  61.843  0.00  0.00     0.198 C 
BRANCH  23  24
HETATM   24  O   UNK N   1      44.494  51.671  63.046  0.00  0.00    -0.398 OA
HETATM   25  H   UNK N   1      43.708  52.153  63.413  0.00  0.00     0.209 HD
ENDBRANCH  23  24
ENDBRANCH  19  23
BRANCH  20  26
HETATM   26  O   UNK N   1      44.108  49.535  61.240  0.00  0.00    -0.390 OA
HETATM   27  H   UNK N   1      43.912  48.866  61.947  0.00  0.00     0.210 HD
ENDBRANCH  20  26
BRANCH  21  28
HETATM   28  O   UNK N   1      46.220  47.676  60.923  0.00  0.00    -0.390 OA
HETATM   29  H   UNK N   1      45.483  47.651  61.587  0.00  0.00     0.210 HD
ENDBRANCH  21  28
BRANCH  22  30
HETATM   30  O   UNK N   1      48.574  48.697  59.705  0.00  0.00    -0.390 OA
HETATM   31  H   UNK N   1      49.360  48.359  60.211  0.00  0.00     0.210 HD
ENDBRANCH  22  30
ENDBRANCH  14  17
BRANCH   4  32
HETATM   32  O   UNK N   1      48.585  56.420  61.171  0.00  0.00    -0.360 OA
HETATM   33  H   UNK N   1      48.279  57.153  61.725  0.00  0.00     0.217 HD
ENDBRANCH   4  32
BRANCH   2  34
HETATM   34  O   UNK N   1      49.747  54.614  56.612  0.00  0.00    -0.352 OA
HETATM   35  C   UNK N   1      50.580  55.638  56.211  0.00  0.00     0.210 C 
ENDBRANCH   2  34
BRANCH   3  36
HETATM   36  O   UNK N   1      51.317  52.643  55.260  0.00  0.00    -0.358 OA
HETATM   37  H   UNK N   1      51.612  53.512  54.947  0.00  0.00     0.218 HD
ENDBRANCH   3  36
TORSDOF 9
ENDMDL
MODEL 7
REMARK VINA RESULT:      -4.3      6.274      7.654
REMARK  9 active torsions:
REMARK  status: ('A' for Active; 'I' for Inactive)
REMARK    1  A    between atoms: O_1  and  C_10 
REMARK    2  A    between atoms: O_2  and  C_11 
REMARK    3  A    between atoms: O_3  and  C_12 
REMARK    4  A    between atoms: O_5  and  C_23 
REMARK    5  A    between atoms: O_6  and  C_24 
REMARK    6  A    between atoms: O_7  and  C_25 
REMARK    7  A    between atoms: O_9  and  C_29 
REMARK    8  A    between atoms: C_22  and  C_27 
REMARK    9  A    between atoms: C_26  and  C_29 
ROOT
HETATM    1  O   UNK N   1      29.477  44.186  61.824  0.00  0.00    -0.286 OA
HETATM    2  C   UNK N   1      31.663  43.574  60.058  0.00  0.00     0.116 A 
HETATM    3  C   UNK N   1      32.647  43.309  59.063  0.00  0.00     0.100 A 
HETATM    4  C   UNK N   1      26.851  44.661  60.780  0.00  0.00     0.081 A 
HETATM    5  C   UNK N   1      28.010  45.486  58.796  0.00  0.00    -0.029 A 
HETATM    6  C   UNK N   1      30.403  44.870  58.407  0.00  0.00    -0.030 A 
HETATM    7  C   UNK N   1      30.520  44.339  59.706  0.00  0.00     0.058 A 
HETATM    8  C   UNK N   1      28.058  44.924  60.090  0.00  0.00     0.055 A 
HETATM    9  C   UNK N   1      25.577  45.492  58.878  0.00  0.00    -0.059 A 
HETATM   10  C   UNK N   1      25.621  44.949  60.168  0.00  0.00     0.044 A 
HETATM   11  C   UNK N   1      32.475  43.799  57.762  0.00  0.00     0.040 A 
HETATM   12  C   UNK N   1      26.771  45.766  58.199  0.00  0.00     0.015 A 
HETATM   13  C   UNK N   1      31.369  44.576  57.438  0.00  0.00     0.012 A 
HETATM   14  C   UNK N   1      29.299  45.859  58.084  0.00  0.00     0.085 C 
HETATM   15  C   UNK N   1      29.383  44.536  60.658  0.00  0.00     0.199 C 
HETATM   16  C   UNK N   1      24.261  45.782  58.218  0.00  0.00     0.048 C 
ENDROOT
BRANCH  14  17
HETATM   17  C   UNK N   1      29.705  47.314  58.526  0.00  0.00     0.166 C 
HETATM   18  O   UNK N   1      28.685  47.790  59.398  0.00  0.00    -0.372 OA
HETATM   19  C   UNK N   1      29.015  49.046  59.974  0.00  0.00     0.176 C 
HETATM   20  C   UNK N   1      29.079  50.128  58.872  0.00  0.00     0.180 C 
HETATM   21  C   UNK N   1      30.143  49.740  57.845  0.00  0.00     0.180 C 
HETATM   22  C   UNK N   1      29.868  48.315  57.331  0.00  0.00     0.179 C 
BRANCH  19  23
HETATM   23  C   UNK N   1      27.938  49.402  61.007  0.00  0.00     0.198 C 
BRANCH  23  24
HETATM   24  O   UNK N   1      28.440  50.311  61.949  0.00  0.00    -0.398 OA
HETATM   25  H   UNK N   1      27.780  51.048  62.015  0.00  0.00     0.209 HD
ENDBRANCH  23  24
ENDBRANCH  19  23
BRANCH  20  26
HETATM   26  O   UNK N   1      29.349  51.403  59.404  0.00  0.00    -0.390 OA
HETATM   27  H   UNK N   1      30.227  51.701  59.047  0.00  0.00     0.210 HD
ENDBRANCH  20  26
BRANCH  21  28
HETATM   28  O   UNK N   1      30.125  50.662  56.783  0.00  0.00    -0.390 OA
HETATM   29  H   UNK N   1      29.284  51.184  56.864  0.00  0.00     0.210 HD
ENDBRANCH  21  28
BRANCH  22  30
HETATM   30  O   UNK N   1      30.910  47.952  56.461  0.00  0.00    -0.390 OA
HETATM   31  H   UNK N   1      31.730  48.433  56.753  0.00  0.00     0.210 HD
ENDBRANCH  22  30
ENDBRANCH  14  17
BRANCH   4  32
HETATM   32  O   UNK N   1      26.870  44.104  62.010  0.00  0.00    -0.360 OA
HETATM   33  H   UNK N   1      27.680  44.053  62.537  0.00  0.00     0.217 HD
ENDBRANCH   4  32
BRANCH   2  34
HETATM   34  O   UNK N   1      31.766  43.117  61.339  0.00  0.00    -0.352 OA
HETATM   35  C   UNK N   1      32.688  43.495  62.294  0.00  0.00     0.210 C 
ENDBRANCH   2  34
BRANCH   3  36
HETATM   36  O   UNK N   1      33.742  42.575  59.344  0.00  0.00    -0.358 OA
HETATM   37  H   UNK N   1      34.638  42.929  59.240  0.00  0.00     0.218 HD
ENDBRANCH   3  36
TORSDOF 9
ENDMDL
MODEL 8
REMARK VINA RESULT:      -4.3      2.512      5.809
REMARK  9 active torsions:
REMARK  status: ('A' for Active; 'I' for Inactive)
REMARK    1  A    between atoms: O_1  and  C_10 
REMARK    2  A    between atoms: O_2  and  C_11 
REMARK    3  A    between atoms: O_3  and  C_12 
REMARK    4  A    between atoms: O_5  and  C_23 
REMARK    5  A    between atoms: O_6  and  C_24 
REMARK    6  A    between atoms: O_7  and  C_25 
REMARK    7  A    between atoms: O_9  and  C_29 
REMARK    8  A    between atoms: C_22  and  C_27 
REMARK    9  A    between atoms: C_26  and  C_29 
ROOT
HETATM    1  O   UNK N   1      31.181  42.220  55.203  0.00  0.00    -0.286 OA
HETATM    2  C   UNK N   1      30.678  42.713  57.991  0.00  0.00     0.116 A 
HETATM    3  C   UNK N   1      30.283  42.896  59.347  0.00  0.00     0.100 A 
HETATM    4  C   UNK N   1      29.048  41.441  53.455  0.00  0.00     0.081 A 
HETATM    5  C   UNK N   1      28.065  40.419  55.442  0.00  0.00    -0.029 A 
HETATM    6  C   UNK N   1      28.838  41.122  57.714  0.00  0.00    -0.030 A 
HETATM    7  C   UNK N   1      29.923  41.836  57.169  0.00  0.00     0.058 A 
HETATM    8  C   UNK N   1      29.106  41.159  54.840  0.00  0.00     0.055 A 
HETATM    9  C   UNK N   1      26.917  40.273  53.300  0.00  0.00    -0.059 A 
HETATM   10  C   UNK N   1      27.955  40.993  52.696  0.00  0.00     0.044 A 
HETATM   11  C   UNK N   1      29.163  42.219  59.846  0.00  0.00     0.040 A 
HETATM   12  C   UNK N   1      26.979  39.981  54.669  0.00  0.00     0.015 A 
HETATM   13  C   UNK N   1      28.452  41.337  59.042  0.00  0.00     0.012 A 
HETATM   14  C   UNK N   1      28.161  40.030  56.908  0.00  0.00     0.085 C 
HETATM   15  C   UNK N   1      30.194  41.705  55.704  0.00  0.00     0.199 C 
HETATM   16  C   UNK N   1      25.739  39.811  52.492  0.00  0.00     0.048 C 
ENDROOT
BRANCH  14  17
HETATM   17  C   UNK N   1      28.963  38.680  57.009  0.00  0.00     0.166 C 
HETATM   18  O   UNK N   1      29.220  38.241  55.680  0.00  0.00    -0.372 OA
HETATM   19  C   UNK N   1      30.064  37.098  55.647  0.00  0.00     0.176 C 
HETATM   20  C   UNK N   1      29.341  35.892  56.290  0.00  0.00     0.180 C 
HETATM   21  C   UNK N   1      28.991  36.229  57.740  0.00  0.00     0.180 C 
HETATM   22  C   UNK N   1      28.204  37.551  57.787  0.00  0.00     0.179 C 
BRANCH  19  23
HETATM   23  C   UNK N   1      30.407  36.793  54.183  0.00  0.00     0.198 C 
BRANCH  23  24
HETATM   24  O   UNK N   1      31.789  36.891  53.969  0.00  0.00    -0.398 OA
HETATM   25  H   UNK N   1      32.124  35.968  53.829  0.00  0.00     0.209 HD
ENDBRANCH  23  24
ENDBRANCH  19  23
BRANCH  20  26
HETATM   26  O   UNK N   1      30.119  34.721  56.230  0.00  0.00    -0.390 OA
HETATM   27  H   UNK N   1      29.582  34.023  55.772  0.00  0.00     0.210 HD
ENDBRANCH  20  26
BRANCH  21  28
HETATM   28  O   UNK N   1      28.235  35.181  58.293  0.00  0.00    -0.390 OA
HETATM   29  H   UNK N   1      28.398  35.187  59.272  0.00  0.00     0.210 HD
ENDBRANCH  21  28
BRANCH  22  30
HETATM   30  O   UNK N   1      27.977  37.881  59.133  0.00  0.00    -0.390 OA
HETATM   31  H   UNK N   1      27.357  38.659  59.154  0.00  0.00     0.210 HD
ENDBRANCH  22  30
ENDBRANCH  14  17
BRANCH   4  32
HETATM   32  O   UNK N   1      30.020  42.165  52.860  0.00  0.00    -0.360 OA
HETATM   33  H   UNK N   1      30.764  42.532  53.359  0.00  0.00     0.217 HD
ENDBRANCH   4  32
BRANCH   2  34
HETATM   34  O   UNK N   1      31.751  43.351  57.442  0.00  0.00    -0.352 OA
HETATM   35  C   UNK N   1      31.930  44.710  57.283  0.00  0.00     0.210 C 
ENDBRANCH   2  34
BRANCH   3  36
HETATM   36  O   UNK N   1      30.959  43.729  60.164  0.00  0.00    -0.358 OA
HETATM   37  H   UNK N   1      30.795  44.684  60.173  0.00  0.00     0.218 HD
ENDBRANCH   3  36
TORSDOF 9
ENDMDL
MODEL 9
REMARK VINA RESULT:      -4.3      5.033      8.361
REMARK  9 active torsions:
REMARK  status: ('A' for Active; 'I' for Inactive)
REMARK    1  A    between atoms: O_1  and  C_10 
REMARK    2  A    between atoms: O_2  and  C_11 
REMARK    3  A    between atoms: O_3  and  C_12 
REMARK    4  A    between atoms: O_5  and  C_23 
REMARK    5  A    between atoms: O_6  and  C_24 
REMARK    6  A    between atoms: O_7  and  C_25 
REMARK    7  A    between atoms: O_9  and  C_29 
REMARK    8  A    between atoms: C_22  and  C_27 
REMARK    9  A    between atoms: C_26  and  C_29 
ROOT
HETATM    1  O   UNK N   1      26.297  47.542  59.900  0.00  0.00    -0.286 OA
HETATM    2  C   UNK N   1      27.403  49.188  57.817  0.00  0.00     0.116 A 
HETATM    3  C   UNK N   1      28.095  49.970  56.849  0.00  0.00     0.100 A 
HETATM    4  C   UNK N   1      27.945  46.615  62.053  0.00  0.00     0.081 A 
HETATM    5  C   UNK N   1      29.763  46.695  60.426  0.00  0.00    -0.029 A 
HETATM    6  C   UNK N   1      29.508  48.052  58.341  0.00  0.00    -0.030 A 
HETATM    7  C   UNK N   1      28.134  48.243  58.584  0.00  0.00     0.058 A 
HETATM    8  C   UNK N   1      28.402  46.896  60.744  0.00  0.00     0.055 A 
HETATM    9  C   UNK N   1      30.199  45.968  62.708  0.00  0.00    -0.059 A 
HETATM   10  C   UNK N   1      28.847  46.151  63.023  0.00  0.00     0.044 A 
HETATM   11  C   UNK N   1      29.474  49.802  56.670  0.00  0.00     0.040 A 
HETATM   12  C   UNK N   1      30.652  46.233  61.409  0.00  0.00     0.015 A 
HETATM   13  C   UNK N   1      30.173  48.849  57.402  0.00  0.00     0.012 A 
HETATM   14  C   UNK N   1      30.247  46.903  59.001  0.00  0.00     0.085 C 
HETATM   15  C   UNK N   1      27.503  47.491  59.712  0.00  0.00     0.199 C 
HETATM   16  C   UNK N   1      31.167  45.489  63.751  0.00  0.00     0.048 C 
ENDROOT
BRANCH  14  17
HETATM   17  C   UNK N   1      30.029  45.565  58.204  0.00  0.00     0.166 C 
HETATM   18  O   UNK N   1      29.281  44.691  59.043  0.00  0.00    -0.372 OA
HETATM   19  C   UNK N   1      28.902  43.498  58.371  0.00  0.00     0.176 C 
HETATM   20  C   UNK N   1      30.159  42.670  58.021  0.00  0.00     0.180 C 
HETATM   21  C   UNK N   1      31.073  43.498  57.117  0.00  0.00     0.180 C 
HETATM   22  C   UNK N   1      31.361  44.856  57.781  0.00  0.00     0.179 C 
BRANCH  19  23
HETATM   23  C   UNK N   1      27.978  42.695  59.297  0.00  0.00     0.198 C 
BRANCH  23  24
HETATM   24  O   UNK N   1      28.719  41.793  60.073  0.00  0.00    -0.398 OA
HETATM   25  H   UNK N   1      29.666  41.882  59.790  0.00  0.00     0.209 HD
ENDBRANCH  23  24
ENDBRANCH  19  23
BRANCH  20  26
HETATM   26  O   UNK N   1      29.828  41.450  57.403  0.00  0.00    -0.390 OA
HETATM   27  H   UNK N   1      30.253  41.439  56.505  0.00  0.00     0.210 HD
ENDBRANCH  20  26
BRANCH  21  28
HETATM   28  O   UNK N   1      32.267  42.793  56.889  0.00  0.00    -0.390 OA
HETATM   29  H   UNK N   1      32.761  42.769  57.750  0.00  0.00     0.210 HD
ENDBRANCH  21  28
BRANCH  22  30
HETATM   30  O   UNK N   1      32.125  45.629  56.890  0.00  0.00    -0.390 OA
HETATM   31  H   UNK N   1      31.505  46.248  56.418  0.00  0.00     0.210 HD
ENDBRANCH  22  30
ENDBRANCH  14  17
BRANCH   4  32
HETATM   32  O   UNK N   1      26.653  46.820  62.388  0.00  0.00    -0.360 OA
HETATM   33  H   UNK N   1      25.977  47.022  61.724  0.00  0.00     0.217 HD
ENDBRANCH   4  32
BRANCH   2  34
HETATM   34  O   UNK N   1      26.065  49.312  58.047  0.00  0.00    -0.352 OA
HETATM   35  C   UNK N   1      25.031  48.889  57.237  0.00  0.00     0.210 C 
ENDBRANCH   2  34
BRANCH   3  36
HETATM   36  O   UNK N   1      27.449  50.891  56.106  0.00  0.00    -0.358 OA
HETATM   37  H   UNK N   1      26.660  51.350  56.430  0.00  0.00     0.218 HD
ENDBRANCH   3  36
TORSDOF 9
ENDMDL
