MODEL 1
REMARK VINA RESULT:      -8.0      0.000      0.000
REMARK  9 active torsions:
REMARK  status: ('A' for Active; 'I' for Inactive)
REMARK    1  A    between atoms: O_2  and  C_12 
REMARK    2  A    between atoms: O_3  and  C_13 
REMARK    3  A    between atoms: O_4  and  C_14 
REMARK    4  A    between atoms: O_5  and  C_23 
REMARK    5  A    between atoms: O_5  and  C_28 
REMARK    6  A    between atoms: O_7  and  C_25 
REMARK    7  A    between atoms: O_8  and  C_26 
REMARK    8  A    between atoms: O_9  and  C_27 
REMARK    9  A    between atoms: C_15  and  C_24 
ROOT
HETATM    1  O   UNK N   1      42.711  46.753  48.993  0.00  0.00    -0.337 OA
HETATM    2  O   UNK N   1      39.848  46.936  46.234  0.00  0.00    -0.289 OA
HETATM    3  C   UNK N   1      42.951  47.562  47.926  0.00  0.00     0.089 A 
HETATM    4  C   UNK N   1      42.222  48.542  45.816  0.00  0.00     0.085 A 
HETATM    5  C   UNK N   1      44.336  49.215  46.817  0.00  0.00     0.071 A 
HETATM    6  C   UNK N   1      42.007  47.646  46.883  0.00  0.00     0.079 A 
HETATM    7  C   UNK N   1      44.117  48.330  47.884  0.00  0.00     0.074 A 
HETATM    8  C   UNK N   1      43.389  49.322  45.793  0.00  0.00     0.074 A 
HETATM    9  C   UNK N   1      41.423  46.325  49.296  0.00  0.00     0.198 C 
HETATM   10  C   UNK N   1      40.760  45.703  48.050  0.00  0.00     0.233 C 
HETATM   11  C   UNK N   1      40.804  46.778  46.978  0.00  0.00     0.196 C 
ENDROOT
BRANCH  10  12
HETATM   12  O   UNK N   1      41.496  44.543  47.676  0.00  0.00    -0.343 OA
BRANCH  12  13
HETATM   13  C   UNK N   1      40.751  43.685  46.813  0.00  0.00     0.292 C 
HETATM   14  O   UNK N   1      41.276  42.361  46.766  0.00  0.00    -0.351 OA
HETATM   15  C   UNK N   1      42.600  42.324  46.249  0.00  0.00     0.152 C 
HETATM   16  C   UNK N   1      42.647  42.849  44.792  0.00  0.00     0.178 C 
HETATM   17  C   UNK N   1      43.077  40.871  46.317  0.00  0.00     0.042 C 
HETATM   18  C   UNK N   1      42.060  44.272  44.754  0.00  0.00     0.183 C 
HETATM   19  C   UNK N   1      40.661  44.277  45.394  0.00  0.00     0.204 C 
BRANCH  16  20
HETATM   20  O   UNK N   1      43.969  42.888  44.317  0.00  0.00    -0.390 OA
HETATM   21  H   UNK N   1      44.564  42.678  45.082  0.00  0.00     0.210 HD
ENDBRANCH  16  20
BRANCH  18  22
HETATM   22  O   UNK N   1      42.029  44.789  43.445  0.00  0.00    -0.390 OA
HETATM   23  H   UNK N   1      42.332  45.734  43.478  0.00  0.00     0.210 HD
ENDBRANCH  18  22
BRANCH  19  24
HETATM   24  O   UNK N   1      39.772  43.489  44.639  0.00  0.00    -0.388 OA
HETATM   25  H   UNK N   1      38.971  44.045  44.454  0.00  0.00     0.210 HD
ENDBRANCH  19  24
ENDBRANCH  12  13
ENDBRANCH  10  12
BRANCH   9  26
HETATM   26  C   UNK N   1      41.416  45.402  50.492  0.00  0.00    -0.026 A 
HETATM   27  C   UNK N   1      42.241  45.641  51.607  0.00  0.00     0.012 A 
HETATM   28  C   UNK N   1      42.201  44.778  52.708  0.00  0.00     0.037 A 
HETATM   29  C   UNK N   1      41.343  43.673  52.707  0.00  0.00     0.065 A 
HETATM   30  C   UNK N   1      40.522  43.431  51.598  0.00  0.00     0.037 A 
HETATM   31  C   UNK N   1      40.559  44.289  50.497  0.00  0.00     0.012 A 
BRANCH  29  32
HETATM   32  O   UNK N   1      41.312  42.851  53.776  0.00  0.00    -0.361 OA
HETATM   33  H   UNK N   1      40.501  42.395  54.042  0.00  0.00     0.217 HD
ENDBRANCH  29  32
ENDBRANCH   9  26
BRANCH   4  34
HETATM   34  O   UNK N   1      41.317  48.650  44.821  0.00  0.00    -0.360 OA
HETATM   35  H   UNK N   1      40.505  48.124  44.808  0.00  0.00     0.217 HD
ENDBRANCH   4  34
BRANCH   5  36
HETATM   36  O   UNK N   1      45.450  49.974  46.775  0.00  0.00    -0.361 OA
HETATM   37  H   UNK N   1      45.537  50.780  47.302  0.00  0.00     0.217 HD
ENDBRANCH   5  36
TORSDOF 9
ENDMDL
MODEL 2
REMARK VINA RESULT:      -6.5     15.528     18.067
REMARK  9 active torsions:
REMARK  status: ('A' for Active; 'I' for Inactive)
REMARK    1  A    between atoms: O_2  and  C_12 
REMARK    2  A    between atoms: O_3  and  C_13 
REMARK    3  A    between atoms: O_4  and  C_14 
REMARK    4  A    between atoms: O_5  and  C_23 
REMARK    5  A    between atoms: O_5  and  C_28 
REMARK    6  A    between atoms: O_7  and  C_25 
REMARK    7  A    between atoms: O_8  and  C_26 
REMARK    8  A    between atoms: O_9  and  C_27 
REMARK    9  A    between atoms: C_15  and  C_24 
ROOT
HETATM    1  O   UNK N   1      26.529  55.372  41.998  0.00  0.00    -0.337 OA
HETATM    2  O   UNK N   1      29.409  57.787  40.686  0.00  0.00    -0.289 OA
HETATM    3  C   UNK N   1      26.443  56.677  42.375  0.00  0.00     0.089 A 
HETATM    4  C   UNK N   1      27.318  58.952  42.315  0.00  0.00     0.085 A 
HETATM    5  C   UNK N   1      25.215  58.473  43.447  0.00  0.00     0.071 A 
HETATM    6  C   UNK N   1      27.448  57.586  41.989  0.00  0.00     0.079 A 
HETATM    7  C   UNK N   1      25.341  57.116  43.113  0.00  0.00     0.074 A 
HETATM    8  C   UNK N   1      26.197  59.384  43.043  0.00  0.00     0.074 A 
HETATM    9  C   UNK N   1      27.333  54.983  40.932  0.00  0.00     0.198 C 
HETATM   10  C   UNK N   1      28.761  55.539  41.109  0.00  0.00     0.233 C 
HETATM   11  C   UNK N   1      28.606  57.045  41.231  0.00  0.00     0.196 C 
ENDROOT
BRANCH  10  12
HETATM   12  O   UNK N   1      29.331  54.962  42.279  0.00  0.00    -0.343 OA
BRANCH  12  13
HETATM   13  C   UNK N   1      30.748  55.120  42.324  0.00  0.00     0.292 C 
HETATM   14  O   UNK N   1      31.445  53.984  41.819  0.00  0.00    -0.351 OA
HETATM   15  C   UNK N   1      31.192  52.813  42.585  0.00  0.00     0.152 C 
HETATM   16  C   UNK N   1      31.671  52.987  44.048  0.00  0.00     0.178 C 
HETATM   17  C   UNK N   1      31.931  51.656  41.907  0.00  0.00     0.042 C 
HETATM   18  C   UNK N   1      30.984  54.223  44.655  0.00  0.00     0.183 C 
HETATM   19  C   UNK N   1      31.220  55.447  43.753  0.00  0.00     0.204 C 
BRANCH  16  20
HETATM   20  O   UNK N   1      31.343  51.858  44.819  0.00  0.00    -0.390 OA
HETATM   21  H   UNK N   1      30.365  51.883  44.978  0.00  0.00     0.210 HD
ENDBRANCH  16  20
BRANCH  18  22
HETATM   22  O   UNK N   1      31.415  54.466  45.973  0.00  0.00    -0.390 OA
HETATM   23  H   UNK N   1      31.764  53.614  46.347  0.00  0.00     0.210 HD
ENDBRANCH  18  22
BRANCH  19  24
HETATM   24  O   UNK N   1      32.589  55.768  43.708  0.00  0.00    -0.388 OA
HETATM   25  H   UNK N   1      33.092  54.943  43.936  0.00  0.00     0.210 HD
ENDBRANCH  19  24
ENDBRANCH  12  13
ENDBRANCH  10  12
BRANCH   9  26
HETATM   26  C   UNK N   1      27.302  53.486  40.737  0.00  0.00    -0.026 A 
HETATM   27  C   UNK N   1      28.421  52.787  40.247  0.00  0.00     0.012 A 
HETATM   28  C   UNK N   1      28.370  51.397  40.093  0.00  0.00     0.037 A 
HETATM   29  C   UNK N   1      27.208  50.693  40.425  0.00  0.00     0.065 A 
HETATM   30  C   UNK N   1      26.091  51.386  40.912  0.00  0.00     0.037 A 
HETATM   31  C   UNK N   1      26.138  52.773  41.066  0.00  0.00     0.012 A 
BRANCH  29  32
HETATM   32  O   UNK N   1      27.172  49.354  40.274  0.00  0.00    -0.361 OA
HETATM   33  H   UNK N   1      27.820  48.777  40.704  0.00  0.00     0.217 HD
ENDBRANCH  29  32
ENDBRANCH   9  26
BRANCH   4  34
HETATM   34  O   UNK N   1      28.260  59.839  41.935  0.00  0.00    -0.360 OA
HETATM   35  H   UNK N   1      28.522  59.942  41.009  0.00  0.00     0.217 HD
ENDBRANCH   4  34
BRANCH   5  36
HETATM   36  O   UNK N   1      24.148  58.911  44.144  0.00  0.00    -0.361 OA
HETATM   37  H   UNK N   1      24.079  58.786  45.101  0.00  0.00     0.217 HD
ENDBRANCH   5  36
TORSDOF 9
ENDMDL
MODEL 3
REMARK VINA RESULT:      -6.4     14.228     16.444
REMARK  9 active torsions:
REMARK  status: ('A' for Active; 'I' for Inactive)
REMARK    1  A    between atoms: O_2  and  C_12 
REMARK    2  A    between atoms: O_3  and  C_13 
REMARK    3  A    between atoms: O_4  and  C_14 
REMARK    4  A    between atoms: O_5  and  C_23 
REMARK    5  A    between atoms: O_5  and  C_28 
REMARK    6  A    between atoms: O_7  and  C_25 
REMARK    7  A    between atoms: O_8  and  C_26 
REMARK    8  A    between atoms: O_9  and  C_27 
REMARK    9  A    between atoms: C_15  and  C_24 
ROOT
HETATM    1  O   UNK N   1      29.844  40.839  56.465  0.00  0.00    -0.337 OA
HETATM    2  O   UNK N   1      26.489  42.906  57.030  0.00  0.00    -0.289 OA
HETATM    3  C   UNK N   1      29.990  42.151  56.793  0.00  0.00     0.089 A 
HETATM    4  C   UNK N   1      29.003  44.302  57.378  0.00  0.00     0.085 A 
HETATM    5  C   UNK N   1      31.421  44.016  57.392  0.00  0.00     0.071 A 
HETATM    6  C   UNK N   1      28.852  42.963  56.964  0.00  0.00     0.079 A 
HETATM    7  C   UNK N   1      31.268  42.681  56.990  0.00  0.00     0.074 A 
HETATM    8  C   UNK N   1      30.292  44.818  57.591  0.00  0.00     0.074 A 
HETATM    9  C   UNK N   1      28.644  40.172  56.685  0.00  0.00     0.198 C 
HETATM   10  C   UNK N   1      27.473  40.965  56.070  0.00  0.00     0.233 C 
HETATM   11  C   UNK N   1      27.525  42.343  56.709  0.00  0.00     0.196 C 
ENDROOT
BRANCH  10  12
HETATM   12  O   UNK N   1      27.653  41.022  54.659  0.00  0.00    -0.343 OA
BRANCH  12  13
HETATM   13  C   UNK N   1      26.883  42.060  54.056  0.00  0.00     0.292 C 
HETATM   14  O   UNK N   1      25.880  41.562  53.176  0.00  0.00    -0.351 OA
HETATM   15  C   UNK N   1      26.433  40.846  52.079  0.00  0.00     0.152 C 
HETATM   16  C   UNK N   1      27.339  41.759  51.214  0.00  0.00     0.178 C 
HETATM   17  C   UNK N   1      25.265  40.302  51.252  0.00  0.00     0.042 C 
HETATM   18  C   UNK N   1      28.435  42.366  52.109  0.00  0.00     0.183 C 
HETATM   19  C   UNK N   1      27.792  43.062  53.321  0.00  0.00     0.204 C 
BRANCH  16  20
HETATM   20  O   UNK N   1      27.947  41.025  50.181  0.00  0.00    -0.390 OA
HETATM   21  H   UNK N   1      27.979  40.077  50.472  0.00  0.00     0.210 HD
ENDBRANCH  16  20
BRANCH  18  22
HETATM   22  O   UNK N   1      29.265  43.248  51.391  0.00  0.00    -0.390 OA
HETATM   23  H   UNK N   1      28.724  44.037  51.125  0.00  0.00     0.210 HD
ENDBRANCH  18  22
BRANCH  19  24
HETATM   24  O   UNK N   1      27.007  44.153  52.903  0.00  0.00    -0.388 OA
HETATM   25  H   UNK N   1      26.108  43.798  52.678  0.00  0.00     0.210 HD
ENDBRANCH  19  24
ENDBRANCH  12  13
ENDBRANCH  10  12
BRANCH   9  26
HETATM   26  C   UNK N   1      28.710  38.744  56.198  0.00  0.00    -0.026 A 
HETATM   27  C   UNK N   1      29.801  38.277  55.441  0.00  0.00     0.012 A 
HETATM   28  C   UNK N   1      29.844  36.944  55.018  0.00  0.00     0.037 A 
HETATM   29  C   UNK N   1      28.804  36.067  55.344  0.00  0.00     0.065 A 
HETATM   30  C   UNK N   1      27.715  36.529  56.096  0.00  0.00     0.037 A 
HETATM   31  C   UNK N   1      27.668  37.858  56.519  0.00  0.00     0.012 A 
BRANCH  29  32
HETATM   32  O   UNK N   1      28.858  34.784  54.932  0.00  0.00    -0.361 OA
HETATM   33  H   UNK N   1      29.029  34.059  55.551  0.00  0.00     0.217 HD
ENDBRANCH  29  32
ENDBRANCH   9  26
BRANCH   4  34
HETATM   34  O   UNK N   1      27.921  45.086  57.568  0.00  0.00    -0.360 OA
HETATM   35  H   UNK N   1      27.122  44.993  57.031  0.00  0.00     0.217 HD
ENDBRANCH   4  34
BRANCH   5  36
HETATM   36  O   UNK N   1      32.649  44.532  57.602  0.00  0.00    -0.361 OA
HETATM   37  H   UNK N   1      32.855  45.051  58.392  0.00  0.00     0.217 HD
ENDBRANCH   5  36
TORSDOF 9
ENDMDL
MODEL 4
REMARK VINA RESULT:      -6.3     13.998     16.784
REMARK  9 active torsions:
REMARK  status: ('A' for Active; 'I' for Inactive)
REMARK    1  A    between atoms: O_2  and  C_12 
REMARK    2  A    between atoms: O_3  and  C_13 
REMARK    3  A    between atoms: O_4  and  C_14 
REMARK    4  A    between atoms: O_5  and  C_23 
REMARK    5  A    between atoms: O_5  and  C_28 
REMARK    6  A    between atoms: O_7  and  C_25 
REMARK    7  A    between atoms: O_8  and  C_26 
REMARK    8  A    between atoms: O_9  and  C_27 
REMARK    9  A    between atoms: C_15  and  C_24 
ROOT
HETATM    1  O   UNK N   1      27.531  41.561  55.695  0.00  0.00    -0.337 OA
HETATM    2  O   UNK N   1      30.967  41.708  53.689  0.00  0.00    -0.289 OA
HETATM    3  C   UNK N   1      27.467  42.026  54.418  0.00  0.00     0.089 A 
HETATM    4  C   UNK N   1      28.568  42.561  52.310  0.00  0.00     0.085 A 
HETATM    5  C   UNK N   1      26.150  42.762  52.518  0.00  0.00     0.071 A 
HETATM    6  C   UNK N   1      28.645  42.152  53.656  0.00  0.00     0.079 A 
HETATM    7  C   UNK N   1      26.228  42.345  53.855  0.00  0.00     0.074 A 
HETATM    8  C   UNK N   1      27.315  42.862  51.750  0.00  0.00     0.074 A 
HETATM    9  C   UNK N   1      28.630  40.834  56.141  0.00  0.00     0.198 C 
HETATM   10  C   UNK N   1      29.934  41.595  55.828  0.00  0.00     0.233 C 
HETATM   11  C   UNK N   1      29.931  41.824  54.327  0.00  0.00     0.196 C 
ENDROOT
BRANCH  10  12
HETATM   12  O   UNK N   1      29.933  42.818  56.557  0.00  0.00    -0.343 OA
BRANCH  12  13
HETATM   13  C   UNK N   1      31.228  43.153  57.054  0.00  0.00     0.292 C 
HETATM   14  O   UNK N   1      31.492  42.582  58.332  0.00  0.00    -0.351 OA
HETATM   15  C   UNK N   1      30.594  43.054  59.329  0.00  0.00     0.152 C 
HETATM   16  C   UNK N   1      30.722  44.587  59.516  0.00  0.00     0.178 C 
HETATM   17  C   UNK N   1      30.929  42.320  60.630  0.00  0.00     0.042 C 
HETATM   18  C   UNK N   1      30.483  45.278  58.161  0.00  0.00     0.183 C 
HETATM   19  C   UNK N   1      31.421  44.680  57.098  0.00  0.00     0.204 C 
BRANCH  16  20
HETATM   20  O   UNK N   1      29.775  45.058  60.442  0.00  0.00    -0.390 OA
HETATM   21  H   UNK N   1      28.978  45.348  59.928  0.00  0.00     0.210 HD
ENDBRANCH  16  20
BRANCH  18  22
HETATM   22  O   UNK N   1      30.634  46.674  58.254  0.00  0.00    -0.390 OA
HETATM   23  H   UNK N   1      30.665  46.920  59.215  0.00  0.00     0.210 HD
ENDBRANCH  18  22
BRANCH  19  24
HETATM   24  O   UNK N   1      32.764  44.950  57.420  0.00  0.00    -0.388 OA
HETATM   25  H   UNK N   1      33.326  44.508  56.732  0.00  0.00     0.210 HD
ENDBRANCH  19  24
ENDBRANCH  12  13
ENDBRANCH  10  12
BRANCH   9  26
HETATM   26  C   UNK N   1      28.493  40.471  57.600  0.00  0.00    -0.026 A 
HETATM   27  C   UNK N   1      27.470  41.015  58.399  0.00  0.00     0.012 A 
HETATM   28  C   UNK N   1      27.357  40.646  59.744  0.00  0.00     0.037 A 
HETATM   29  C   UNK N   1      28.260  39.735  60.304  0.00  0.00     0.065 A 
HETATM   30  C   UNK N   1      29.281  39.193  59.512  0.00  0.00     0.037 A 
HETATM   31  C   UNK N   1      29.397  39.559  58.170  0.00  0.00     0.012 A 
BRANCH  29  32
HETATM   32  O   UNK N   1      28.139  39.386  61.601  0.00  0.00    -0.361 OA
HETATM   33  H   UNK N   1      27.661  39.942  62.233  0.00  0.00     0.217 HD
ENDBRANCH  29  32
ENDBRANCH   9  26
BRANCH   4  34
HETATM   34  O   UNK N   1      29.685  42.666  51.560  0.00  0.00    -0.360 OA
HETATM   35  H   UNK N   1      29.722  42.342  50.649  0.00  0.00     0.217 HD
ENDBRANCH   4  34
BRANCH   5  36
HETATM   36  O   UNK N   1      24.958  43.056  51.960  0.00  0.00    -0.361 OA
HETATM   37  H   UNK N   1      24.813  43.877  51.471  0.00  0.00     0.217 HD
ENDBRANCH   5  36
TORSDOF 9
ENDMDL
MODEL 5
REMARK VINA RESULT:      -6.2     14.446     15.964
REMARK  9 active torsions:
REMARK  status: ('A' for Active; 'I' for Inactive)
REMARK    1  A    between atoms: O_2  and  C_12 
REMARK    2  A    between atoms: O_3  and  C_13 
REMARK    3  A    between atoms: O_4  and  C_14 
REMARK    4  A    between atoms: O_5  and  C_23 
REMARK    5  A    between atoms: O_5  and  C_28 
REMARK    6  A    between atoms: O_7  and  C_25 
REMARK    7  A    between atoms: O_8  and  C_26 
REMARK    8  A    between atoms: O_9  and  C_27 
REMARK    9  A    between atoms: C_15  and  C_24 
ROOT
HETATM    1  O   UNK N   1      30.865  45.381  58.224  0.00  0.00    -0.337 OA
HETATM    2  O   UNK N   1      26.975  44.712  58.741  0.00  0.00    -0.289 OA
HETATM    3  C   UNK N   1      30.027  46.398  57.887  0.00  0.00     0.089 A 
HETATM    4  C   UNK N   1      27.770  47.304  57.721  0.00  0.00     0.085 A 
HETATM    5  C   UNK N   1      29.694  48.694  57.180  0.00  0.00     0.071 A 
HETATM    6  C   UNK N   1      28.633  46.225  57.997  0.00  0.00     0.079 A 
HETATM    7  C   UNK N   1      30.553  47.622  57.465  0.00  0.00     0.074 A 
HETATM    8  C   UNK N   1      28.310  48.535  57.315  0.00  0.00     0.074 A 
HETATM    9  C   UNK N   1      30.440  44.339  59.041  0.00  0.00     0.198 C 
HETATM   10  C   UNK N   1      29.129  43.736  58.497  0.00  0.00     0.233 C 
HETATM   11  C   UNK N   1      28.142  44.888  58.423  0.00  0.00     0.196 C 
ENDROOT
BRANCH  10  12
HETATM   12  O   UNK N   1      29.387  43.168  57.217  0.00  0.00    -0.343 OA
BRANCH  12  13
HETATM   13  C   UNK N   1      28.268  42.442  56.712  0.00  0.00     0.292 C 
HETATM   14  O   UNK N   1      28.256  41.083  57.139  0.00  0.00    -0.351 OA
HETATM   15  C   UNK N   1      29.389  40.361  56.673  0.00  0.00     0.152 C 
HETATM   16  C   UNK N   1      29.427  40.317  55.125  0.00  0.00     0.178 C 
HETATM   17  C   UNK N   1      29.301  38.947  57.254  0.00  0.00     0.042 C 
HETATM   18  C   UNK N   1      29.407  41.758  54.583  0.00  0.00     0.183 C 
HETATM   19  C   UNK N   1      28.210  42.522  55.175  0.00  0.00     0.204 C 
BRANCH  16  20
HETATM   20  O   UNK N   1      30.592  39.675  54.671  0.00  0.00    -0.390 OA
HETATM   21  H   UNK N   1      31.250  39.699  55.413  0.00  0.00     0.210 HD
ENDBRANCH  16  20
BRANCH  18  22
HETATM   22  O   UNK N   1      29.391  41.786  53.176  0.00  0.00    -0.390 OA
HETATM   23  H   UNK N   1      28.556  42.238  52.885  0.00  0.00     0.210 HD
ENDBRANCH  18  22
BRANCH  19  24
HETATM   24  O   UNK N   1      26.999  41.947  54.745  0.00  0.00    -0.388 OA
HETATM   25  H   UNK N   1      26.656  42.508  54.001  0.00  0.00     0.210 HD
ENDBRANCH  19  24
ENDBRANCH  12  13
ENDBRANCH  10  12
BRANCH   9  26
HETATM   26  C   UNK N   1      31.529  43.311  59.233  0.00  0.00    -0.026 A 
HETATM   27  C   UNK N   1      32.799  43.469  58.646  0.00  0.00     0.012 A 
HETATM   28  C   UNK N   1      33.794  42.508  58.855  0.00  0.00     0.037 A 
HETATM   29  C   UNK N   1      33.535  41.385  59.648  0.00  0.00     0.065 A 
HETATM   30  C   UNK N   1      32.272  41.223  60.232  0.00  0.00     0.037 A 
HETATM   31  C   UNK N   1      31.276  42.179  60.025  0.00  0.00     0.012 A 
BRANCH  29  32
HETATM   32  O   UNK N   1      34.504  40.467  59.844  0.00  0.00    -0.361 OA
HETATM   33  H   UNK N   1      34.649  39.741  59.220  0.00  0.00     0.217 HD
ENDBRANCH  29  32
ENDBRANCH   9  26
BRANCH   4  34
HETATM   34  O   UNK N   1      26.433  47.160  57.843  0.00  0.00    -0.360 OA
HETATM   35  H   UNK N   1      25.852  47.106  57.072  0.00  0.00     0.217 HD
ENDBRANCH   4  34
BRANCH   5  36
HETATM   36  O   UNK N   1      30.191  49.885  56.788  0.00  0.00    -0.361 OA
HETATM   37  H   UNK N   1      29.721  50.452  56.161  0.00  0.00     0.217 HD
ENDBRANCH   5  36
TORSDOF 9
ENDMDL
MODEL 6
REMARK VINA RESULT:      -6.2     14.393     16.161
REMARK  9 active torsions:
REMARK  status: ('A' for Active; 'I' for Inactive)
REMARK    1  A    between atoms: O_2  and  C_12 
REMARK    2  A    between atoms: O_3  and  C_13 
REMARK    3  A    between atoms: O_4  and  C_14 
REMARK    4  A    between atoms: O_5  and  C_23 
REMARK    5  A    between atoms: O_5  and  C_28 
REMARK    6  A    between atoms: O_7  and  C_25 
REMARK    7  A    between atoms: O_8  and  C_26 
REMARK    8  A    between atoms: O_9  and  C_27 
REMARK    9  A    between atoms: C_15  and  C_24 
ROOT
HETATM    1  O   UNK N   1      30.740  46.320  58.069  0.00  0.00    -0.337 OA
HETATM    2  O   UNK N   1      26.854  45.976  58.860  0.00  0.00    -0.289 OA
HETATM    3  C   UNK N   1      29.955  47.373  57.714  0.00  0.00     0.089 A 
HETATM    4  C   UNK N   1      27.761  48.431  57.620  0.00  0.00     0.085 A 
HETATM    5  C   UNK N   1      29.739  49.638  56.873  0.00  0.00     0.071 A 
HETATM    6  C   UNK N   1      28.563  47.310  57.918  0.00  0.00     0.079 A 
HETATM    7  C   UNK N   1      30.537  48.525  57.179  0.00  0.00     0.074 A 
HETATM    8  C   UNK N   1      28.360  49.590  57.100  0.00  0.00     0.074 A 
HETATM    9  C   UNK N   1      30.297  45.366  58.979  0.00  0.00     0.198 C 
HETATM   10  C   UNK N   1      28.914  44.828  58.555  0.00  0.00     0.233 C 
HETATM   11  C   UNK N   1      28.008  46.044  58.462  0.00  0.00     0.196 C 
ENDROOT
BRANCH  10  12
HETATM   12  O   UNK N   1      29.049  44.163  57.304  0.00  0.00    -0.343 OA
BRANCH  12  13
HETATM   13  C   UNK N   1      28.747  42.772  57.395  0.00  0.00     0.292 C 
HETATM   14  O   UNK N   1      29.656  41.961  56.655  0.00  0.00    -0.351 OA
HETATM   15  C   UNK N   1      29.619  42.244  55.262  0.00  0.00     0.152 C 
HETATM   16  C   UNK N   1      28.217  41.955  54.670  0.00  0.00     0.178 C 
HETATM   17  C   UNK N   1      30.682  41.370  54.590  0.00  0.00     0.042 C 
HETATM   18  C   UNK N   1      27.169  42.774  55.445  0.00  0.00     0.183 C 
HETATM   19  C   UNK N   1      27.299  42.494  56.952  0.00  0.00     0.204 C 
BRANCH  16  20
HETATM   20  O   UNK N   1      28.164  42.314  53.312  0.00  0.00    -0.390 OA
HETATM   21  H   UNK N   1      27.276  42.725  53.150  0.00  0.00     0.210 HD
ENDBRANCH  16  20
BRANCH  18  22
HETATM   22  O   UNK N   1      25.863  42.518  54.986  0.00  0.00    -0.390 OA
HETATM   23  H   UNK N   1      25.926  41.977  54.155  0.00  0.00     0.210 HD
ENDBRANCH  18  22
BRANCH  19  24
HETATM   24  O   UNK N   1      26.998  41.148  57.231  0.00  0.00    -0.388 OA
HETATM   25  H   UNK N   1      26.220  41.142  57.847  0.00  0.00     0.210 HD
ENDBRANCH  19  24
ENDBRANCH  12  13
ENDBRANCH  10  12
BRANCH   9  26
HETATM   26  C   UNK N   1      31.321  44.274  59.175  0.00  0.00    -0.026 A 
HETATM   27  C   UNK N   1      32.233  43.933  58.159  0.00  0.00     0.012 A 
HETATM   28  C   UNK N   1      33.183  42.929  58.376  0.00  0.00     0.037 A 
HETATM   29  C   UNK N   1      33.231  42.257  59.602  0.00  0.00     0.065 A 
HETATM   30  C   UNK N   1      32.324  42.592  60.615  0.00  0.00     0.037 A 
HETATM   31  C   UNK N   1      31.374  43.594  60.402  0.00  0.00     0.012 A 
BRANCH  29  32
HETATM   32  O   UNK N   1      34.153  41.292  59.799  0.00  0.00    -0.361 OA
HETATM   33  H   UNK N   1      34.483  40.749  59.069  0.00  0.00     0.217 HD
ENDBRANCH  29  32
ENDBRANCH   9  26
BRANCH   4  34
HETATM   34  O   UNK N   1      26.429  48.395  57.831  0.00  0.00    -0.360 OA
HETATM   35  H   UNK N   1      25.798  48.729  57.177  0.00  0.00     0.217 HD
ENDBRANCH   4  34
BRANCH   5  36
HETATM   36  O   UNK N   1      30.293  50.761  56.372  0.00  0.00    -0.361 OA
HETATM   37  H   UNK N   1      31.242  50.933  56.436  0.00  0.00     0.217 HD
ENDBRANCH   5  36
TORSDOF 9
ENDMDL
MODEL 7
REMARK VINA RESULT:      -6.2     14.180     17.116
REMARK  9 active torsions:
REMARK  status: ('A' for Active; 'I' for Inactive)
REMARK    1  A    between atoms: O_2  and  C_12 
REMARK    2  A    between atoms: O_3  and  C_13 
REMARK    3  A    between atoms: O_4  and  C_14 
REMARK    4  A    between atoms: O_5  and  C_23 
REMARK    5  A    between atoms: O_5  and  C_28 
REMARK    6  A    between atoms: O_7  and  C_25 
REMARK    7  A    between atoms: O_8  and  C_26 
REMARK    8  A    between atoms: O_9  and  C_27 
REMARK    9  A    between atoms: C_15  and  C_24 
ROOT
HETATM    1  O   UNK N   1      29.750  47.474  60.512  0.00  0.00    -0.337 OA
HETATM    2  O   UNK N   1      26.809  45.859  58.369  0.00  0.00    -0.289 OA
HETATM    3  C   UNK N   1      29.174  48.275  59.575  0.00  0.00     0.089 A 
HETATM    4  C   UNK N   1      27.509  48.616  57.828  0.00  0.00     0.085 A 
HETATM    5  C   UNK N   1      28.932  50.457  58.545  0.00  0.00     0.071 A 
HETATM    6  C   UNK N   1      28.157  47.764  58.744  0.00  0.00     0.079 A 
HETATM    7  C   UNK N   1      29.570  49.610  59.463  0.00  0.00     0.074 A 
HETATM    8  C   UNK N   1      27.903  49.961  57.737  0.00  0.00     0.074 A 
HETATM    9  C   UNK N   1      29.119  46.317  60.956  0.00  0.00     0.198 C 
HETATM   10  C   UNK N   1      28.696  45.445  59.756  0.00  0.00     0.233 C 
HETATM   11  C   UNK N   1      27.807  46.327  58.896  0.00  0.00     0.196 C 
ENDROOT
BRANCH  10  12
HETATM   12  O   UNK N   1      29.867  45.027  59.063  0.00  0.00    -0.343 OA
BRANCH  12  13
HETATM   13  C   UNK N   1      29.846  43.634  58.756  0.00  0.00     0.292 C 
HETATM   14  O   UNK N   1      30.546  42.847  59.715  0.00  0.00    -0.351 OA
HETATM   15  C   UNK N   1      31.927  43.177  59.777  0.00  0.00     0.152 C 
HETATM   16  C   UNK N   1      32.628  42.911  58.421  0.00  0.00     0.178 C 
HETATM   17  C   UNK N   1      32.552  42.324  60.885  0.00  0.00     0.042 C 
HETATM   18  C   UNK N   1      31.901  43.706  57.320  0.00  0.00     0.183 C 
HETATM   19  C   UNK N   1      30.399  43.375  57.343  0.00  0.00     0.204 C 
BRANCH  16  20
HETATM   20  O   UNK N   1      33.973  43.317  58.465  0.00  0.00    -0.390 OA
HETATM   21  H   UNK N   1      34.530  42.497  58.414  0.00  0.00     0.210 HD
ENDBRANCH  16  20
BRANCH  18  22
HETATM   22  O   UNK N   1      32.461  43.468  56.050  0.00  0.00    -0.390 OA
HETATM   23  H   UNK N   1      31.957  42.727  55.623  0.00  0.00     0.210 HD
ENDBRANCH  18  22
BRANCH  19  24
HETATM   24  O   UNK N   1      30.189  42.020  57.023  0.00  0.00    -0.388 OA
HETATM   25  H   UNK N   1      30.902  41.755  56.386  0.00  0.00     0.210 HD
ENDBRANCH  19  24
ENDBRANCH  12  13
ENDBRANCH  10  12
BRANCH   9  26
HETATM   26  C   UNK N   1      29.972  45.573  61.955  0.00  0.00    -0.026 A 
HETATM   27  C   UNK N   1      29.498  44.421  62.610  0.00  0.00     0.012 A 
HETATM   28  C   UNK N   1      30.317  43.742  63.518  0.00  0.00     0.037 A 
HETATM   29  C   UNK N   1      31.611  44.202  63.782  0.00  0.00     0.065 A 
HETATM   30  C   UNK N   1      32.086  45.350  63.133  0.00  0.00     0.037 A 
HETATM   31  C   UNK N   1      31.272  46.031  62.227  0.00  0.00     0.012 A 
BRANCH  29  32
HETATM   32  O   UNK N   1      32.392  43.537  64.658  0.00  0.00    -0.361 OA
HETATM   33  H   UNK N   1      32.426  43.780  65.594  0.00  0.00     0.217 HD
ENDBRANCH  29  32
ENDBRANCH   9  26
BRANCH   4  34
HETATM   34  O   UNK N   1      26.518  48.148  57.040  0.00  0.00    -0.360 OA
HETATM   35  H   UNK N   1      25.591  48.172  57.316  0.00  0.00     0.217 HD
ENDBRANCH   4  34
BRANCH   5  36
HETATM   36  O   UNK N   1      29.295  51.752  58.441  0.00  0.00    -0.361 OA
HETATM   37  H   UNK N   1      28.767  52.390  57.940  0.00  0.00     0.217 HD
ENDBRANCH   5  36
TORSDOF 9
ENDMDL
MODEL 8
REMARK VINA RESULT:      -6.0     14.087     16.145
REMARK  9 active torsions:
REMARK  status: ('A' for Active; 'I' for Inactive)
REMARK    1  A    between atoms: O_2  and  C_12 
REMARK    2  A    between atoms: O_3  and  C_13 
REMARK    3  A    between atoms: O_4  and  C_14 
REMARK    4  A    between atoms: O_5  and  C_23 
REMARK    5  A    between atoms: O_5  and  C_28 
REMARK    6  A    between atoms: O_7  and  C_25 
REMARK    7  A    between atoms: O_8  and  C_26 
REMARK    8  A    between atoms: O_9  and  C_27 
REMARK    9  A    between atoms: C_15  and  C_24 
ROOT
HETATM    1  O   UNK N   1      50.109  52.061  58.725  0.00  0.00    -0.337 OA
HETATM    2  O   UNK N   1      48.611  55.170  60.709  0.00  0.00    -0.289 OA
HETATM    3  C   UNK N   1      49.756  53.142  57.978  0.00  0.00     0.089 A 
HETATM    4  C   UNK N   1      48.882  55.413  57.836  0.00  0.00     0.085 A 
HETATM    5  C   UNK N   1      49.699  54.285  55.840  0.00  0.00     0.071 A 
HETATM    6  C   UNK N   1      49.176  54.266  58.600  0.00  0.00     0.079 A 
HETATM    7  C   UNK N   1      50.001  53.147  56.603  0.00  0.00     0.074 A 
HETATM    8  C   UNK N   1      49.149  55.413  56.457  0.00  0.00     0.074 A 
HETATM    9  C   UNK N   1      50.296  52.166  60.099  0.00  0.00     0.198 C 
HETATM   10  C   UNK N   1      49.072  52.838  60.754  0.00  0.00     0.233 C 
HETATM   11  C   UNK N   1      48.916  54.181  60.061  0.00  0.00     0.196 C 
ENDROOT
BRANCH  10  12
HETATM   12  O   UNK N   1      47.937  52.000  60.563  0.00  0.00    -0.343 OA
BRANCH  12  13
HETATM   13  C   UNK N   1      46.986  52.128  61.618  0.00  0.00     0.292 C 
HETATM   14  O   UNK N   1      47.345  51.379  62.776  0.00  0.00    -0.351 OA
HETATM   15  C   UNK N   1      47.405  49.982  62.516  0.00  0.00     0.152 C 
HETATM   16  C   UNK N   1      46.025  49.436  62.071  0.00  0.00     0.178 C 
HETATM   17  C   UNK N   1      47.868  49.297  63.805  0.00  0.00     0.042 C 
HETATM   18  C   UNK N   1      45.551  50.224  60.836  0.00  0.00     0.183 C 
HETATM   19  C   UNK N   1      45.577  51.733  61.139  0.00  0.00     0.204 C 
BRANCH  16  20
HETATM   20  O   UNK N   1      46.111  48.073  61.736  0.00  0.00    -0.390 OA
HETATM   21  H   UNK N   1      46.981  47.740  62.078  0.00  0.00     0.210 HD
ENDBRANCH  16  20
BRANCH  18  22
HETATM   22  O   UNK N   1      44.275  49.808  60.410  0.00  0.00    -0.390 OA
HETATM   23  H   UNK N   1      44.238  49.887  59.421  0.00  0.00     0.210 HD
ENDBRANCH  18  22
BRANCH  19  24
HETATM   24  O   UNK N   1      44.656  52.046  62.156  0.00  0.00    -0.388 OA
HETATM   25  H   UNK N   1      44.398  52.997  62.036  0.00  0.00     0.210 HD
ENDBRANCH  19  24
ENDBRANCH  12  13
ENDBRANCH  10  12
BRANCH   9  26
HETATM   26  C   UNK N   1      50.635  50.829  60.713  0.00  0.00    -0.026 A 
HETATM   27  C   UNK N   1      50.583  49.642  59.958  0.00  0.00     0.012 A 
HETATM   28  C   UNK N   1      50.919  48.419  60.548  0.00  0.00     0.037 A 
HETATM   29  C   UNK N   1      51.308  48.367  61.892  0.00  0.00     0.065 A 
HETATM   30  C   UNK N   1      51.358  49.546  62.646  0.00  0.00     0.037 A 
HETATM   31  C   UNK N   1      51.023  50.768  62.061  0.00  0.00     0.012 A 
BRANCH  29  32
HETATM   32  O   UNK N   1      51.631  47.182  62.448  0.00  0.00    -0.361 OA
HETATM   33  H   UNK N   1      52.121  46.507  61.956  0.00  0.00     0.217 HD
ENDBRANCH  29  32
ENDBRANCH   9  26
BRANCH   4  34
HETATM   34  O   UNK N   1      48.346  56.506  58.421  0.00  0.00    -0.360 OA
HETATM   35  H   UNK N   1      48.363  56.632  59.380  0.00  0.00     0.217 HD
ENDBRANCH   4  34
BRANCH   5  36
HETATM   36  O   UNK N   1      49.947  54.307  54.514  0.00  0.00    -0.361 OA
HETATM   37  H   UNK N   1      49.848  53.517  53.965  0.00  0.00     0.217 HD
ENDBRANCH   5  36
TORSDOF 9
ENDMDL
MODEL 9
REMARK VINA RESULT:      -5.9     14.213     17.543
REMARK  9 active torsions:
REMARK  status: ('A' for Active; 'I' for Inactive)
REMARK    1  A    between atoms: O_2  and  C_12 
REMARK    2  A    between atoms: O_3  and  C_13 
REMARK    3  A    between atoms: O_4  and  C_14 
REMARK    4  A    between atoms: O_5  and  C_23 
REMARK    5  A    between atoms: O_5  and  C_28 
REMARK    6  A    between atoms: O_7  and  C_25 
REMARK    7  A    between atoms: O_8  and  C_26 
REMARK    8  A    between atoms: O_9  and  C_27 
REMARK    9  A    between atoms: C_15  and  C_24 
ROOT
HETATM    1  O   UNK N   1      30.148  42.195  55.628  0.00  0.00    -0.337 OA
HETATM    2  O   UNK N   1      28.309  40.334  58.628  0.00  0.00    -0.289 OA
HETATM    3  C   UNK N   1      30.704  42.340  56.861  0.00  0.00     0.089 A 
HETATM    4  C   UNK N   1      30.706  41.837  59.247  0.00  0.00     0.085 A 
HETATM    5  C   UNK N   1      32.513  43.140  58.264  0.00  0.00     0.071 A 
HETATM    6  C   UNK N   1      30.088  41.750  57.983  0.00  0.00     0.079 A 
HETATM    7  C   UNK N   1      31.902  43.045  57.005  0.00  0.00     0.074 A 
HETATM    8  C   UNK N   1      31.919  42.533  59.376  0.00  0.00     0.074 A 
HETATM    9  C   UNK N   1      29.241  41.175  55.363  0.00  0.00     0.198 C 
HETATM   10  C   UNK N   1      28.112  41.178  56.415  0.00  0.00     0.233 C 
HETATM   11  C   UNK N   1      28.800  41.041  57.762  0.00  0.00     0.196 C 
ENDROOT
BRANCH  10  12
HETATM   12  O   UNK N   1      27.391  42.401  56.303  0.00  0.00    -0.343 OA
BRANCH  12  13
HETATM   13  C   UNK N   1      26.061  42.293  56.808  0.00  0.00     0.292 C 
HETATM   14  O   UNK N   1      25.147  41.773  55.847  0.00  0.00    -0.351 OA
HETATM   15  C   UNK N   1      25.029  42.613  54.706  0.00  0.00     0.152 C 
HETATM   16  C   UNK N   1      24.482  44.010  55.095  0.00  0.00     0.178 C 
HETATM   17  C   UNK N   1      24.085  41.917  53.721  0.00  0.00     0.042 C 
HETATM   18  C   UNK N   1      25.403  44.627  56.164  0.00  0.00     0.183 C 
HETATM   19  C   UNK N   1      25.564  43.649  57.341  0.00  0.00     0.204 C 
BRANCH  16  20
HETATM   20  O   UNK N   1      24.446  44.862  53.977  0.00  0.00    -0.390 OA
HETATM   21  H   UNK N   1      23.703  45.504  54.120  0.00  0.00     0.210 HD
ENDBRANCH  16  20
BRANCH  18  22
HETATM   22  O   UNK N   1      24.933  45.881  56.597  0.00  0.00    -0.390 OA
HETATM   23  H   UNK N   1      25.349  46.581  56.030  0.00  0.00     0.210 HD
ENDBRANCH  18  22
BRANCH  19  24
HETATM   24  O   UNK N   1      24.329  43.449  57.986  0.00  0.00    -0.388 OA
HETATM   25  H   UNK N   1      23.822  42.785  57.450  0.00  0.00     0.210 HD
ENDBRANCH  19  24
ENDBRANCH  12  13
ENDBRANCH  10  12
BRANCH   9  26
HETATM   26  C   UNK N   1      28.727  41.248  53.945  0.00  0.00    -0.026 A 
HETATM   27  C   UNK N   1      29.292  42.132  53.006  0.00  0.00     0.012 A 
HETATM   28  C   UNK N   1      28.807  42.166  51.694  0.00  0.00     0.037 A 
HETATM   29  C   UNK N   1      27.759  41.324  51.307  0.00  0.00     0.065 A 
HETATM   30  C   UNK N   1      27.194  40.444  52.240  0.00  0.00     0.037 A 
HETATM   31  C   UNK N   1      27.674  40.408  53.550  0.00  0.00     0.012 A 
BRANCH  29  32
HETATM   32  O   UNK N   1      27.303  41.365  50.038  0.00  0.00    -0.361 OA
HETATM   33  H   UNK N   1      26.430  41.020  49.801  0.00  0.00     0.217 HD
ENDBRANCH  29  32
ENDBRANCH   9  26
BRANCH   4  34
HETATM   34  O   UNK N   1      30.140  41.259  60.327  0.00  0.00    -0.360 OA
HETATM   35  H   UNK N   1      30.009  41.741  61.155  0.00  0.00     0.217 HD
ENDBRANCH   4  34
BRANCH   5  36
HETATM   36  O   UNK N   1      33.678  43.803  58.412  0.00  0.00    -0.361 OA
HETATM   37  H   UNK N   1      34.481  43.360  58.719  0.00  0.00     0.217 HD
ENDBRANCH   5  36
TORSDOF 9
ENDMDL
