MODEL 1
REMARK VINA RESULT:      -7.5      0.000      0.000
REMARK  3 active torsions:
REMARK  status: ('A' for Active; 'I' for Inactive)
REMARK    1  A    between atoms: O_1  and  C_9 
REMARK    2  A    between atoms: O_2  and  C_12 
REMARK    3  A    between atoms: C_5  and  C_12 
ROOT
HETATM    1  C   UNK N   1      47.354  33.757  50.228  0.00  0.00    -0.043 A 
HETATM    2  C   UNK N   1      48.543  33.003  50.431  0.00  0.00    -0.050 A 
HETATM    3  C   UNK N   1      48.757  33.909  52.701  0.00  0.00    -0.024 A 
HETATM    4  C   UNK N   1      46.901  34.589  51.277  0.00  0.00     0.009 A 
HETATM    5  C   UNK N   1      49.218  33.082  51.661  0.00  0.00     0.018 A 
HETATM    6  C   UNK N   1      47.586  34.657  52.491  0.00  0.00     0.011 A 
HETATM    7  C   UNK N   1      44.449  31.653  48.686  0.00  0.00     0.126 C 
HETATM    8  C   UNK N   1      46.646  33.736  48.860  0.00  0.00    -0.012 C 
HETATM    9  C   UNK N   1      46.857  32.351  48.129  0.00  0.00     0.009 C 
HETATM   10  C   UNK N   1      49.115  32.070  49.382  0.00  0.00     0.039 C 
HETATM   11  C   UNK N   1      45.934  31.159  48.656  0.00  0.00    -0.017 C 
HETATM   12  C   UNK N   1      44.287  32.935  49.519  0.00  0.00     0.033 C 
HETATM   13  C   UNK N   1      45.118  34.049  48.890  0.00  0.00     0.017 C 
HETATM   14  C   UNK N   1      48.375  32.054  48.034  0.00  0.00     0.011 C 
HETATM   15  C   UNK N   1      47.285  34.903  48.055  0.00  0.00     0.021 C 
HETATM   16  C   UNK N   1      46.015  29.977  47.656  0.00  0.00     0.018 C 
HETATM   17  C   UNK N   1      46.315  30.603  50.053  0.00  0.00     0.018 C 
ENDROOT
BRANCH   3  18
HETATM   18  C   UNK N   1      49.511  34.006  54.039  0.00  0.00     0.077 C 
HETATM   19  C   UNK N   1      51.004  33.710  53.818  0.00  0.00     0.051 C 
HETATM   20  C   UNK N   1      48.943  32.997  55.063  0.00  0.00     0.051 C 
BRANCH  18  21
HETATM   21  O   UNK N   1      49.427  35.308  54.577  0.00  0.00    -0.386 OA
HETATM   22  H   UNK N   1      49.855  35.305  55.474  0.00  0.00     0.211 HD
ENDBRANCH  18  21
ENDBRANCH   3  18
BRANCH   7  23
HETATM   23  O   UNK N   1      43.603  30.647  49.189  0.00  0.00    -0.395 OA
HETATM   24  H   UNK N   1      44.154  29.830  49.304  0.00  0.00     0.210 HD
ENDBRANCH   7  23
TORSDOF 3
ENDMDL
MODEL 2
REMARK VINA RESULT:      -7.0      1.914      3.472
REMARK  3 active torsions:
REMARK  status: ('A' for Active; 'I' for Inactive)
REMARK    1  A    between atoms: O_1  and  C_9 
REMARK    2  A    between atoms: O_2  and  C_12 
REMARK    3  A    between atoms: C_5  and  C_12 
ROOT
HETATM    1  C   UNK N   1      46.169  32.115  50.153  0.00  0.00    -0.043 A 
HETATM    2  C   UNK N   1      45.921  33.469  50.512  0.00  0.00    -0.050 A 
HETATM    3  C   UNK N   1      47.561  33.311  52.331  0.00  0.00    -0.024 A 
HETATM    4  C   UNK N   1      47.109  31.382  50.913  0.00  0.00     0.009 A 
HETATM    5  C   UNK N   1      46.624  34.047  51.583  0.00  0.00     0.018 A 
HETATM    6  C   UNK N   1      47.795  31.972  51.975  0.00  0.00     0.011 A 
HETATM    7  C   UNK N   1      46.699  31.619  46.317  0.00  0.00     0.126 C 
HETATM    8  C   UNK N   1      45.353  31.449  49.030  0.00  0.00    -0.012 C 
HETATM    9  C   UNK N   1      44.916  32.505  47.939  0.00  0.00     0.009 C 
HETATM   10  C   UNK N   1      44.945  34.354  49.763  0.00  0.00     0.039 C 
HETATM   11  C   UNK N   1      46.056  32.921  46.902  0.00  0.00    -0.017 C 
HETATM   12  C   UNK N   1      47.220  30.690  47.425  0.00  0.00     0.033 C 
HETATM   13  C   UNK N   1      46.053  30.257  48.307  0.00  0.00     0.017 C 
HETATM   14  C   UNK N   1      44.160  33.668  48.633  0.00  0.00     0.011 C 
HETATM   15  C   UNK N   1      44.118  30.826  49.739  0.00  0.00     0.021 C 
HETATM   16  C   UNK N   1      45.410  33.696  45.723  0.00  0.00     0.018 C 
HETATM   17  C   UNK N   1      47.174  33.825  47.484  0.00  0.00     0.018 C 
ENDROOT
BRANCH   3  18
HETATM   18  C   UNK N   1      48.313  33.943  53.515  0.00  0.00     0.077 C 
HETATM   19  C   UNK N   1      48.061  35.459  53.543  0.00  0.00     0.051 C 
HETATM   20  C   UNK N   1      49.834  33.687  53.398  0.00  0.00     0.051 C 
BRANCH  18  21
HETATM   21  O   UNK N   1      47.852  33.428  54.744  0.00  0.00    -0.386 OA
HETATM   22  H   UNK N   1      47.505  32.510  54.591  0.00  0.00     0.211 HD
ENDBRANCH  18  21
ENDBRANCH   3  18
BRANCH   7  23
HETATM   23  O   UNK N   1      47.743  31.938  45.430  0.00  0.00    -0.395 OA
HETATM   24  H   UNK N   1      47.591  32.868  45.118  0.00  0.00     0.210 HD
ENDBRANCH   7  23
TORSDOF 3
ENDMDL
MODEL 3
REMARK VINA RESULT:      -7.0     12.591     14.723
REMARK  3 active torsions:
REMARK  status: ('A' for Active; 'I' for Inactive)
REMARK    1  A    between atoms: O_1  and  C_9 
REMARK    2  A    between atoms: O_2  and  C_12 
REMARK    3  A    between atoms: C_5  and  C_12 
ROOT
HETATM    1  C   UNK N   1      40.695  44.504  48.166  0.00  0.00    -0.043 A 
HETATM    2  C   UNK N   1      39.697  44.930  49.085  0.00  0.00    -0.050 A 
HETATM    3  C   UNK N   1      40.937  43.909  50.941  0.00  0.00    -0.024 A 
HETATM    4  C   UNK N   1      41.796  43.771  48.665  0.00  0.00     0.009 A 
HETATM    5  C   UNK N   1      39.836  44.637  50.453  0.00  0.00     0.018 A 
HETATM    6  C   UNK N   1      41.916  43.486  50.026  0.00  0.00     0.011 A 
HETATM    7  C   UNK N   1      41.824  47.326  45.715  0.00  0.00     0.126 C 
HETATM    8  C   UNK N   1      40.518  44.756  46.657  0.00  0.00    -0.012 C 
HETATM    9  C   UNK N   1      39.687  46.073  46.391  0.00  0.00     0.009 C 
HETATM   10  C   UNK N   1      38.481  45.732  48.666  0.00  0.00     0.039 C 
HETATM   11  C   UNK N   1      40.504  47.435  46.550  0.00  0.00    -0.017 C 
HETATM   12  C   UNK N   1      42.652  46.092  46.109  0.00  0.00     0.033 C 
HETATM   13  C   UNK N   1      41.838  44.832  45.829  0.00  0.00     0.017 C 
HETATM   14  C   UNK N   1      38.341  45.986  47.156  0.00  0.00     0.011 C 
HETATM   15  C   UNK N   1      39.774  43.500  46.121  0.00  0.00     0.021 C 
HETATM   16  C   UNK N   1      39.668  48.599  45.957  0.00  0.00     0.018 C 
HETATM   17  C   UNK N   1      40.856  47.823  48.010  0.00  0.00     0.018 C 
ENDROOT
BRANCH   3  18
HETATM   18  C   UNK N   1      41.074  43.574  52.436  0.00  0.00     0.077 C 
HETATM   19  C   UNK N   1      39.723  43.091  52.988  0.00  0.00     0.051 C 
HETATM   20  C   UNK N   1      41.531  44.815  53.237  0.00  0.00     0.051 C 
BRANCH  18  21
HETATM   21  O   UNK N   1      41.998  42.528  52.640  0.00  0.00    -0.386 OA
HETATM   22  H   UNK N   1      41.492  41.689  52.805  0.00  0.00     0.211 HD
ENDBRANCH  18  21
ENDBRANCH   3  18
BRANCH   7  23
HETATM   23  O   UNK N   1      42.601  48.490  45.862  0.00  0.00    -0.395 OA
HETATM   24  H   UNK N   1      42.264  49.153  45.204  0.00  0.00     0.210 HD
ENDBRANCH   7  23
TORSDOF 3
ENDMDL
MODEL 4
REMARK VINA RESULT:      -6.8      2.484      4.354
REMARK  3 active torsions:
REMARK  status: ('A' for Active; 'I' for Inactive)
REMARK    1  A    between atoms: O_1  and  C_9 
REMARK    2  A    between atoms: O_2  and  C_12 
REMARK    3  A    between atoms: C_5  and  C_12 
ROOT
HETATM    1  C   UNK N   1      48.164  32.915  50.027  0.00  0.00    -0.043 A 
HETATM    2  C   UNK N   1      48.440  33.935  49.075  0.00  0.00    -0.050 A 
HETATM    3  C   UNK N   1      50.579  32.869  48.518  0.00  0.00    -0.024 A 
HETATM    4  C   UNK N   1      49.123  31.893  50.211  0.00  0.00     0.009 A 
HETATM    5  C   UNK N   1      49.631  33.893  48.331  0.00  0.00     0.018 A 
HETATM    6  C   UNK N   1      50.303  31.869  49.466  0.00  0.00     0.011 A 
HETATM    7  C   UNK N   1      44.548  31.473  49.724  0.00  0.00     0.126 C 
HETATM    8  C   UNK N   1      46.897  32.991  50.899  0.00  0.00    -0.012 C 
HETATM    9  C   UNK N   1      45.721  33.721  50.136  0.00  0.00     0.009 C 
HETATM   10  C   UNK N   1      47.479  35.072  48.785  0.00  0.00     0.039 C 
HETATM   11  C   UNK N   1      44.957  32.829  49.055  0.00  0.00    -0.017 C 
HETATM   12  C   UNK N   1      45.757  30.749  50.338  0.00  0.00     0.033 C 
HETATM   13  C   UNK N   1      46.365  31.624  51.430  0.00  0.00     0.017 C 
HETATM   14  C   UNK N   1      46.214  35.110  49.657  0.00  0.00     0.011 C 
HETATM   15  C   UNK N   1      47.324  33.781  52.168  0.00  0.00     0.021 C 
HETATM   16  C   UNK N   1      43.653  33.554  48.631  0.00  0.00     0.018 C 
HETATM   17  C   UNK N   1      45.760  32.536  47.761  0.00  0.00     0.018 C 
ENDROOT
BRANCH   3  18
HETATM   18  C   UNK N   1      51.890  32.838  47.715  0.00  0.00     0.077 C 
HETATM   19  C   UNK N   1      51.803  31.766  46.616  0.00  0.00     0.051 C 
HETATM   20  C   UNK N   1      53.090  32.519  48.637  0.00  0.00     0.051 C 
BRANCH  18  21
HETATM   21  O   UNK N   1      52.121  34.071  47.069  0.00  0.00    -0.386 OA
HETATM   22  H   UNK N   1      51.290  34.613  47.119  0.00  0.00     0.211 HD
ENDBRANCH  18  21
ENDBRANCH   3  18
BRANCH   7  23
HETATM   23  O   UNK N   1      43.910  30.634  48.793  0.00  0.00    -0.395 OA
HETATM   24  H   UNK N   1      44.486  29.834  48.675  0.00  0.00     0.210 HD
ENDBRANCH   7  23
TORSDOF 3
ENDMDL
MODEL 5
REMARK VINA RESULT:      -6.6      3.146      5.638
REMARK  3 active torsions:
REMARK  status: ('A' for Active; 'I' for Inactive)
REMARK    1  A    between atoms: O_1  and  C_9 
REMARK    2  A    between atoms: O_2  and  C_12 
REMARK    3  A    between atoms: C_5  and  C_12 
ROOT
HETATM    1  C   UNK N   1      48.344  33.100  47.683  0.00  0.00    -0.043 A 
HETATM    2  C   UNK N   1      47.873  32.409  46.533  0.00  0.00    -0.050 A 
HETATM    3  C   UNK N   1      50.175  31.834  45.908  0.00  0.00    -0.024 A 
HETATM    4  C   UNK N   1      49.738  33.152  47.910  0.00  0.00     0.009 A 
HETATM    5  C   UNK N   1      48.789  31.781  45.672  0.00  0.00     0.018 A 
HETATM    6  C   UNK N   1      50.634  32.525  47.042  0.00  0.00     0.011 A 
HETATM    7  C   UNK N   1      46.380  32.187  50.932  0.00  0.00     0.126 C 
HETATM    8  C   UNK N   1      47.357  33.854  48.594  0.00  0.00    -0.012 C 
HETATM    9  C   UNK N   1      45.938  33.159  48.596  0.00  0.00     0.009 C 
HETATM   10  C   UNK N   1      46.401  32.278  46.197  0.00  0.00     0.039 C 
HETATM   11  C   UNK N   1      45.824  31.853  49.507  0.00  0.00    -0.017 C 
HETATM   12  C   UNK N   1      47.813  32.742  50.873  0.00  0.00     0.033 C 
HETATM   13  C   UNK N   1      47.815  34.041  50.073  0.00  0.00     0.017 C 
HETATM   14  C   UNK N   1      45.437  33.023  47.135  0.00  0.00     0.011 C 
HETATM   15  C   UNK N   1      47.280  35.292  48.007  0.00  0.00     0.021 C 
HETATM   16  C   UNK N   1      44.328  31.475  49.665  0.00  0.00     0.018 C 
HETATM   17  C   UNK N   1      46.555  30.602  48.955  0.00  0.00     0.018 C 
ENDROOT
BRANCH   3  18
HETATM   18  C   UNK N   1      51.175  31.161  44.952  0.00  0.00     0.077 C 
HETATM   19  C   UNK N   1      50.432  30.185  44.024  0.00  0.00     0.051 C 
HETATM   20  C   UNK N   1      52.252  30.383  45.742  0.00  0.00     0.051 C 
BRANCH  18  21
HETATM   21  O   UNK N   1      51.807  32.113  44.124  0.00  0.00    -0.386 OA
HETATM   22  H   UNK N   1      51.927  31.715  43.221  0.00  0.00     0.211 HD
ENDBRANCH  18  21
ENDBRANCH   3  18
BRANCH   7  23
HETATM   23  O   UNK N   1      46.342  31.050  51.759  0.00  0.00    -0.395 OA
HETATM   24  H   UNK N   1      46.553  30.265  51.189  0.00  0.00     0.210 HD
ENDBRANCH   7  23
TORSDOF 3
ENDMDL
MODEL 6
REMARK VINA RESULT:      -6.4     27.364     29.654
REMARK  3 active torsions:
REMARK  status: ('A' for Active; 'I' for Inactive)
REMARK    1  A    between atoms: O_1  and  C_9 
REMARK    2  A    between atoms: O_2  and  C_12 
REMARK    3  A    between atoms: C_5  and  C_12 
ROOT
HETATM    1  C   UNK N   1      29.614  55.045  40.868  0.00  0.00    -0.043 A 
HETATM    2  C   UNK N   1      30.172  53.753  41.075  0.00  0.00    -0.050 A 
HETATM    3  C   UNK N   1      31.047  54.455  43.258  0.00  0.00    -0.024 A 
HETATM    4  C   UNK N   1      29.803  56.024  41.870  0.00  0.00     0.009 A 
HETATM    5  C   UNK N   1      30.868  53.475  42.264  0.00  0.00     0.018 A 
HETATM    6  C   UNK N   1      30.500  55.731  43.043  0.00  0.00     0.011 A 
HETATM    7  C   UNK N   1      25.915  54.937  39.624  0.00  0.00     0.126 C 
HETATM    8  C   UNK N   1      28.914  55.384  39.539  0.00  0.00    -0.012 C 
HETATM    9  C   UNK N   1      28.236  54.103  38.908  0.00  0.00     0.009 C 
HETATM   10  C   UNK N   1      30.022  52.623  40.076  0.00  0.00     0.039 C 
HETATM   11  C   UNK N   1      26.845  53.679  39.566  0.00  0.00    -0.017 C 
HETATM   12  C   UNK N   1      26.582  56.109  40.362  0.00  0.00     0.033 C 
HETATM   13  C   UNK N   1      27.846  56.519  39.613  0.00  0.00     0.017 C 
HETATM   14  C   UNK N   1      29.300  52.985  38.768  0.00  0.00     0.011 C 
HETATM   15  C   UNK N   1      30.036  55.941  38.619  0.00  0.00     0.021 C 
HETATM   16  C   UNK N   1      26.155  52.628  38.656  0.00  0.00     0.018 C 
HETATM   17  C   UNK N   1      26.951  53.057  40.982  0.00  0.00     0.018 C 
ENDROOT
BRANCH   3  18
HETATM   18  C   UNK N   1      31.826  54.151  44.549  0.00  0.00     0.077 C 
HETATM   19  C   UNK N   1      32.907  55.222  44.769  0.00  0.00     0.051 C 
HETATM   20  C   UNK N   1      32.502  52.762  44.468  0.00  0.00     0.051 C 
BRANCH  18  21
HETATM   21  O   UNK N   1      30.978  54.186  45.676  0.00  0.00    -0.386 OA
HETATM   22  H   UNK N   1      30.813  55.136  45.915  0.00  0.00     0.211 HD
ENDBRANCH  18  21
ENDBRANCH   3  18
BRANCH   7  23
HETATM   23  O   UNK N   1      24.690  54.620  40.240  0.00  0.00    -0.395 OA
HETATM   24  H   UNK N   1      24.219  53.980  39.644  0.00  0.00     0.210 HD
ENDBRANCH   7  23
TORSDOF 3
ENDMDL
MODEL 7
REMARK VINA RESULT:      -6.4     25.960     28.407
REMARK  3 active torsions:
REMARK  status: ('A' for Active; 'I' for Inactive)
REMARK    1  A    between atoms: O_1  and  C_9 
REMARK    2  A    between atoms: O_2  and  C_12 
REMARK    3  A    between atoms: C_5  and  C_12 
ROOT
HETATM    1  C   UNK N   1      30.605  53.906  41.600  0.00  0.00    -0.043 A 
HETATM    2  C   UNK N   1      30.768  52.751  40.787  0.00  0.00    -0.050 A 
HETATM    3  C   UNK N   1      31.797  51.547  42.661  0.00  0.00    -0.024 A 
HETATM    4  C   UNK N   1      31.061  53.854  42.937  0.00  0.00     0.009 A 
HETATM    5  C   UNK N   1      31.349  51.592  41.328  0.00  0.00     0.018 A 
HETATM    6  C   UNK N   1      31.639  52.695  43.457  0.00  0.00     0.011 A 
HETATM    7  C   UNK N   1      27.035  55.468  41.346  0.00  0.00     0.126 C 
HETATM    8  C   UNK N   1      30.037  55.205  40.999  0.00  0.00    -0.012 C 
HETATM    9  C   UNK N   1      29.024  54.896  39.825  0.00  0.00     0.009 C 
HETATM   10  C   UNK N   1      30.306  52.689  39.344  0.00  0.00     0.039 C 
HETATM   11  C   UNK N   1      27.566  54.441  40.290  0.00  0.00    -0.017 C 
HETATM   12  C   UNK N   1      28.007  55.630  42.527  0.00  0.00     0.033 C 
HETATM   13  C   UNK N   1      29.338  56.165  42.010  0.00  0.00     0.017 C 
HETATM   14  C   UNK N   1      29.724  53.994  38.776  0.00  0.00     0.011 C 
HETATM   15  C   UNK N   1      31.276  55.989  40.483  0.00  0.00     0.021 C 
HETATM   16  C   UNK N   1      26.609  54.486  39.070  0.00  0.00     0.018 C 
HETATM   17  C   UNK N   1      27.483  53.011  40.883  0.00  0.00     0.018 C 
ENDROOT
BRANCH   3  18
HETATM   18  C   UNK N   1      32.450  50.282  43.243  0.00  0.00     0.077 C 
HETATM   19  C   UNK N   1      33.972  50.479  43.339  0.00  0.00     0.051 C 
HETATM   20  C   UNK N   1      32.156  49.053  42.352  0.00  0.00     0.051 C 
BRANCH  18  21
HETATM   21  O   UNK N   1      31.987  50.025  44.551  0.00  0.00    -0.386 OA
HETATM   22  H   UNK N   1      31.165  50.563  44.705  0.00  0.00     0.211 HD
ENDBRANCH  18  21
ENDBRANCH   3  18
BRANCH   7  23
HETATM   23  O   UNK N   1      25.768  55.081  41.819  0.00  0.00    -0.395 OA
HETATM   24  H   UNK N   1      25.638  55.518  42.701  0.00  0.00     0.210 HD
ENDBRANCH   7  23
TORSDOF 3
ENDMDL
MODEL 8
REMARK VINA RESULT:      -6.4     26.774     29.032
REMARK  3 active torsions:
REMARK  status: ('A' for Active; 'I' for Inactive)
REMARK    1  A    between atoms: O_1  and  C_9 
REMARK    2  A    between atoms: O_2  and  C_12 
REMARK    3  A    between atoms: C_5  and  C_12 
ROOT
HETATM    1  C   UNK N   1      29.796  55.148  41.997  0.00  0.00    -0.043 A 
HETATM    2  C   UNK N   1      31.072  55.554  41.516  0.00  0.00    -0.050 A 
HETATM    3  C   UNK N   1      32.102  54.927  43.653  0.00  0.00    -0.024 A 
HETATM    4  C   UNK N   1      29.705  54.649  43.316  0.00  0.00     0.009 A 
HETATM    5  C   UNK N   1      32.201  55.429  42.343  0.00  0.00     0.018 A 
HETATM    6  C   UNK N   1      30.837  54.535  44.124  0.00  0.00     0.011 A 
HETATM    7  C   UNK N   1      27.844  52.911  39.461  0.00  0.00     0.126 C 
HETATM    8  C   UNK N   1      28.540  55.348  41.128  0.00  0.00    -0.012 C 
HETATM    9  C   UNK N   1      28.890  55.254  39.589  0.00  0.00     0.009 C 
HETATM   10  C   UNK N   1      31.290  56.092  40.116  0.00  0.00     0.039 C 
HETATM   11  C   UNK N   1      29.077  53.772  39.026  0.00  0.00    -0.017 C 
HETATM   12  C   UNK N   1      27.632  52.941  40.984  0.00  0.00     0.033 C 
HETATM   13  C   UNK N   1      27.357  54.376  41.424  0.00  0.00     0.017 C 
HETATM   14  C   UNK N   1      30.022  56.261  39.264  0.00  0.00     0.011 C 
HETATM   15  C   UNK N   1      28.009  56.761  41.501  0.00  0.00     0.021 C 
HETATM   16  C   UNK N   1      29.094  53.818  37.476  0.00  0.00     0.018 C 
HETATM   17  C   UNK N   1      30.380  53.059  39.476  0.00  0.00     0.018 C 
ENDROOT
BRANCH   3  18
HETATM   18  C   UNK N   1      33.339  54.811  44.560  0.00  0.00     0.077 C 
HETATM   19  C   UNK N   1      33.518  53.353  45.013  0.00  0.00     0.051 C 
HETATM   20  C   UNK N   1      33.190  55.712  45.808  0.00  0.00     0.051 C 
BRANCH  18  21
HETATM   21  O   UNK N   1      34.514  55.173  43.868  0.00  0.00    -0.386 OA
HETATM   22  H   UNK N   1      34.532  54.685  43.003  0.00  0.00     0.211 HD
ENDBRANCH  18  21
ENDBRANCH   3  18
BRANCH   7  23
HETATM   23  O   UNK N   1      27.988  51.582  39.024  0.00  0.00    -0.395 OA
HETATM   24  H   UNK N   1      27.075  51.204  38.926  0.00  0.00     0.210 HD
ENDBRANCH   7  23
TORSDOF 3
ENDMDL
MODEL 9
REMARK VINA RESULT:      -6.3     25.907     28.401
REMARK  3 active torsions:
REMARK  status: ('A' for Active; 'I' for Inactive)
REMARK    1  A    between atoms: O_1  and  C_9 
REMARK    2  A    between atoms: O_2  and  C_12 
REMARK    3  A    between atoms: C_5  and  C_12 
ROOT
HETATM    1  C   UNK N   1      30.083  52.978  41.179  0.00  0.00    -0.043 A 
HETATM    2  C   UNK N   1      30.453  53.631  42.387  0.00  0.00    -0.050 A 
HETATM    3  C   UNK N   1      32.143  51.907  42.828  0.00  0.00    -0.024 A 
HETATM    4  C   UNK N   1      30.753  51.784  40.831  0.00  0.00     0.009 A 
HETATM    5  C   UNK N   1      31.478  53.095  43.185  0.00  0.00     0.018 A 
HETATM    6  C   UNK N   1      31.766  51.264  41.637  0.00  0.00     0.011 A 
HETATM    7  C   UNK N   1      29.795  55.418  38.145  0.00  0.00     0.126 C 
HETATM    8  C   UNK N   1      28.912  53.515  40.335  0.00  0.00    -0.012 C 
HETATM    9  C   UNK N   1      28.776  55.083  40.478  0.00  0.00     0.009 C 
HETATM   10  C   UNK N   1      29.812  54.923  42.854  0.00  0.00     0.039 C 
HETATM   11  C   UNK N   1      29.820  55.935  39.622  0.00  0.00    -0.017 C 
HETATM   12  C   UNK N   1      30.059  53.906  38.061  0.00  0.00     0.033 C 
HETATM   13  C   UNK N   1      28.961  53.163  38.816  0.00  0.00     0.017 C 
HETATM   14  C   UNK N   1      28.660  55.447  41.981  0.00  0.00     0.011 C 
HETATM   15  C   UNK N   1      27.651  52.787  40.880  0.00  0.00     0.021 C 
HETATM   16  C   UNK N   1      29.370  57.420  39.608  0.00  0.00     0.018 C 
HETATM   17  C   UNK N   1      31.279  55.905  40.148  0.00  0.00     0.018 C 
ENDROOT
BRANCH   3  18
HETATM   18  C   UNK N   1      33.251  51.314  43.714  0.00  0.00     0.077 C 
HETATM   19  C   UNK N   1      32.755  50.015  44.369  0.00  0.00     0.051 C 
HETATM   20  C   UNK N   1      33.661  52.312  44.822  0.00  0.00     0.051 C 
BRANCH  18  21
HETATM   21  O   UNK N   1      34.390  50.980  42.951  0.00  0.00    -0.386 OA
HETATM   22  H   UNK N   1      34.843  51.821  42.678  0.00  0.00     0.211 HD
ENDBRANCH  18  21
ENDBRANCH   3  18
BRANCH   7  23
HETATM   23  O   UNK N   1      30.735  56.112  37.361  0.00  0.00    -0.395 OA
HETATM   24  H   UNK N   1      30.817  55.624  36.500  0.00  0.00     0.210 HD
ENDBRANCH   7  23
TORSDOF 3
ENDMDL
