MODEL 1
REMARK VINA RESULT:      -6.2      0.000      0.000
REMARK  4 active torsions:
REMARK  status: ('A' for Active; 'I' for Inactive)
REMARK    1  A    between atoms: O_1  and  C_6 
REMARK    2  A    between atoms: O_2  and  C_7 
REMARK    3  A    between atoms: O_3  and  C_8 
REMARK    4  A    between atoms: O_4  and  C_9 
ROOT
HETATM    1  N   UNK N   1      47.308  33.316  51.219  0.00  0.00    -0.355 N 
HETATM    2  C   UNK N   1      49.874  33.262  53.878  0.00  0.00     0.114 A 
HETATM    3  C   UNK N   1      51.269  33.061  53.993  0.00  0.00     0.102 A 
HETATM    4  C   UNK N   1      47.260  32.617  46.386  0.00  0.00     0.102 A 
HETATM    5  C   UNK N   1      45.983  33.210  46.318  0.00  0.00     0.099 A 
HETATM    6  C   UNK N   1      48.070  33.133  50.084  0.00  0.00     0.046 A 
HETATM    7  C   UNK N   1      47.887  33.372  52.454  0.00  0.00     0.106 A 
HETATM    8  C   UNK N   1      49.273  33.216  52.606  0.00  0.00     0.026 A 
HETATM    9  C   UNK N   1      50.066  33.010  51.458  0.00  0.00    -0.020 A 
HETATM   10  C   UNK N   1      47.392  33.157  48.755  0.00  0.00    -0.000 A 
HETATM   11  C   UNK N   1      46.105  33.733  48.684  0.00  0.00    -0.041 A 
HETATM   12  C   UNK N   1      47.966  32.607  47.595  0.00  0.00     0.054 A 
HETATM   13  C   UNK N   1      45.411  33.757  47.468  0.00  0.00     0.047 A 
HETATM   14  C   UNK N   1      52.046  32.871  52.845  0.00  0.00     0.040 A 
HETATM   15  C   UNK N   1      49.462  32.971  50.200  0.00  0.00     0.043 A 
HETATM   16  C   UNK N   1      51.453  32.854  51.585  0.00  0.00     0.015 A 
HETATM   17  C   UNK N   1      45.841  33.419  51.097  0.00  0.00     0.133 C 
HETATM   18  C   UNK N   1      45.496  34.334  49.928  0.00  0.00     0.060 C 
ENDROOT
BRANCH   2  19
HETATM   19  O   UNK N   1      49.096  33.487  54.970  0.00  0.00    -0.352 OA
HETATM   20  C   UNK N   1      48.503  32.476  55.700  0.00  0.00     0.210 C 
ENDBRANCH   2  19
BRANCH   3  21
HETATM   21  O   UNK N   1      51.864  33.003  55.202  0.00  0.00    -0.353 OA
HETATM   22  C   UNK N   1      52.501  34.115  55.716  0.00  0.00     0.210 C 
ENDBRANCH   3  21
BRANCH   4  23
HETATM   23  O   UNK N   1      47.803  32.033  45.297  0.00  0.00    -0.353 OA
HETATM   24  C   UNK N   1      47.970  30.664  45.249  0.00  0.00     0.210 C 
ENDBRANCH   4  23
BRANCH   5  25
HETATM   25  O   UNK N   1      45.298  33.261  45.156  0.00  0.00    -0.358 OA
HETATM   26  H   UNK N   1      44.768  34.028  44.899  0.00  0.00     0.218 HD
ENDBRANCH   5  25
TORSDOF 4
ENDMDL
MODEL 2
REMARK VINA RESULT:      -6.0      3.877      6.646
REMARK  4 active torsions:
REMARK  status: ('A' for Active; 'I' for Inactive)
REMARK    1  A    between atoms: O_1  and  C_6 
REMARK    2  A    between atoms: O_2  and  C_7 
REMARK    3  A    between atoms: O_3  and  C_8 
REMARK    4  A    between atoms: O_4  and  C_9 
ROOT
HETATM    1  N   UNK N   1      50.666  32.826  47.034  0.00  0.00    -0.355 N 
HETATM    2  C   UNK N   1      47.649  33.267  49.124  0.00  0.00     0.114 A 
HETATM    3  C   UNK N   1      46.266  32.982  49.052  0.00  0.00     0.102 A 
HETATM    4  C   UNK N   1      51.622  30.994  42.609  0.00  0.00     0.102 A 
HETATM    5  C   UNK N   1      52.993  30.951  42.929  0.00  0.00     0.099 A 
HETATM    6  C   UNK N   1      50.163  32.133  45.953  0.00  0.00     0.046 A 
HETATM    7  C   UNK N   1      49.859  33.187  48.075  0.00  0.00     0.106 A 
HETATM    8  C   UNK N   1      48.489  32.887  48.059  0.00  0.00     0.026 A 
HETATM    9  C   UNK N   1      47.954  32.195  46.953  0.00  0.00    -0.020 A 
HETATM   10  C   UNK N   1      51.108  31.698  44.882  0.00  0.00    -0.000 A 
HETATM   11  C   UNK N   1      52.484  31.669  45.190  0.00  0.00    -0.041 A 
HETATM   12  C   UNK N   1      50.684  31.349  43.586  0.00  0.00     0.054 A 
HETATM   13  C   UNK N   1      53.417  31.296  44.215  0.00  0.00     0.047 A 
HETATM   14  C   UNK N   1      45.751  32.283  47.955  0.00  0.00     0.040 A 
HETATM   15  C   UNK N   1      48.794  31.818  45.903  0.00  0.00     0.043 A 
HETATM   16  C   UNK N   1      46.588  31.884  46.916  0.00  0.00     0.015 A 
HETATM   17  C   UNK N   1      52.090  33.211  47.050  0.00  0.00     0.133 C 
HETATM   18  C   UNK N   1      52.935  32.032  46.585  0.00  0.00     0.060 C 
ENDROOT
BRANCH   2  19
HETATM   19  O   UNK N   1      48.187  33.911  50.193  0.00  0.00    -0.352 OA
HETATM   20  C   UNK N   1      48.464  33.289  51.394  0.00  0.00     0.210 C 
ENDBRANCH   2  19
BRANCH   3  21
HETATM   21  O   UNK N   1      45.419  33.414  50.008  0.00  0.00    -0.353 OA
HETATM   22  C   UNK N   1      44.945  34.711  49.981  0.00  0.00     0.210 C 
ENDBRANCH   3  21
BRANCH   4  23
HETATM   23  O   UNK N   1      51.201  30.721  41.356  0.00  0.00    -0.353 OA
HETATM   24  C   UNK N   1      50.673  31.718  40.563  0.00  0.00     0.210 C 
ENDBRANCH   4  23
BRANCH   5  25
HETATM   25  O   UNK N   1      53.913  30.580  42.013  0.00  0.00    -0.358 OA
HETATM   26  H   UNK N   1      53.708  30.512  41.071  0.00  0.00     0.218 HD
ENDBRANCH   5  25
TORSDOF 4
ENDMDL
MODEL 3
REMARK VINA RESULT:      -5.8      1.404      1.945
REMARK  4 active torsions:
REMARK  status: ('A' for Active; 'I' for Inactive)
REMARK    1  A    between atoms: O_1  and  C_6 
REMARK    2  A    between atoms: O_2  and  C_7 
REMARK    3  A    between atoms: O_3  and  C_8 
REMARK    4  A    between atoms: O_4  and  C_9 
ROOT
HETATM    1  N   UNK N   1      47.794  32.847  50.032  0.00  0.00    -0.355 N 
HETATM    2  C   UNK N   1      49.353  33.657  53.284  0.00  0.00     0.114 A 
HETATM    3  C   UNK N   1      50.639  33.634  53.871  0.00  0.00     0.102 A 
HETATM    4  C   UNK N   1      49.345  31.087  45.748  0.00  0.00     0.102 A 
HETATM    5  C   UNK N   1      48.144  31.512  45.145  0.00  0.00     0.099 A 
HETATM    6  C   UNK N   1      48.890  32.496  49.271  0.00  0.00     0.046 A 
HETATM    7  C   UNK N   1      47.937  33.238  51.332  0.00  0.00     0.106 A 
HETATM    8  C   UNK N   1      49.201  33.266  51.939  0.00  0.00     0.026 A 
HETATM    9  C   UNK N   1      50.331  32.893  51.182  0.00  0.00    -0.020 A 
HETATM   10  C   UNK N   1      48.681  32.153  47.834  0.00  0.00    -0.000 A 
HETATM   11  C   UNK N   1      47.474  32.560  47.228  0.00  0.00    -0.041 A 
HETATM   12  C   UNK N   1      49.618  31.421  47.080  0.00  0.00     0.054 A 
HETATM   13  C   UNK N   1      47.213  32.239  45.890  0.00  0.00     0.047 A 
HETATM   14  C   UNK N   1      51.753  33.275  53.104  0.00  0.00     0.040 A 
HETATM   15  C   UNK N   1      50.172  32.511  49.848  0.00  0.00     0.043 A 
HETATM   16  C   UNK N   1      51.604  32.915  51.767  0.00  0.00     0.015 A 
HETATM   17  C   UNK N   1      46.445  32.766  49.440  0.00  0.00     0.133 C 
HETATM   18  C   UNK N   1      46.476  33.356  48.035  0.00  0.00     0.060 C 
ENDROOT
BRANCH   2  19
HETATM   19  O   UNK N   1      48.256  34.037  53.990  0.00  0.00    -0.352 OA
HETATM   20  C   UNK N   1      47.467  33.154  54.700  0.00  0.00     0.210 C 
ENDBRANCH   2  19
BRANCH   3  21
HETATM   21  O   UNK N   1      50.808  33.910  55.180  0.00  0.00    -0.353 OA
HETATM   22  C   UNK N   1      52.025  34.372  55.640  0.00  0.00     0.210 C 
ENDBRANCH   3  21
BRANCH   4  23
HETATM   23  O   UNK N   1      50.229  30.334  45.060  0.00  0.00    -0.353 OA
HETATM   24  C   UNK N   1      51.333  30.916  44.472  0.00  0.00     0.210 C 
ENDBRANCH   4  23
BRANCH   5  25
HETATM   25  O   UNK N   1      47.874  31.231  43.852  0.00  0.00    -0.358 OA
HETATM   26  H   UNK N   1      48.227  30.448  43.408  0.00  0.00     0.218 HD
ENDBRANCH   5  25
TORSDOF 4
ENDMDL
MODEL 4
REMARK VINA RESULT:      -5.6      1.439      3.328
REMARK  4 active torsions:
REMARK  status: ('A' for Active; 'I' for Inactive)
REMARK    1  A    between atoms: O_1  and  C_6 
REMARK    2  A    between atoms: O_2  and  C_7 
REMARK    3  A    between atoms: O_3  and  C_8 
REMARK    4  A    between atoms: O_4  and  C_9 
ROOT
HETATM    1  N   UNK N   1      49.631  32.746  50.940  0.00  0.00    -0.355 N 
HETATM    2  C   UNK N   1      49.968  32.383  54.603  0.00  0.00     0.114 A 
HETATM    3  C   UNK N   1      49.125  32.262  55.732  0.00  0.00     0.102 A 
HETATM    4  C   UNK N   1      45.921  33.104  47.784  0.00  0.00     0.102 A 
HETATM    5  C   UNK N   1      46.804  32.822  46.722  0.00  0.00     0.099 A 
HETATM    6  C   UNK N   1      48.264  32.669  50.771  0.00  0.00     0.046 A 
HETATM    7  C   UNK N   1      50.193  32.641  52.179  0.00  0.00     0.106 A 
HETATM    8  C   UNK N   1      49.393  32.481  53.320  0.00  0.00     0.026 A 
HETATM    9  C   UNK N   1      47.993  32.418  53.168  0.00  0.00    -0.020 A 
HETATM   10  C   UNK N   1      47.712  32.712  49.385  0.00  0.00    -0.000 A 
HETATM   11  C   UNK N   1      48.594  32.448  48.316  0.00  0.00    -0.041 A 
HETATM   12  C   UNK N   1      46.370  33.033  49.108  0.00  0.00     0.054 A 
HETATM   13  C   UNK N   1      48.136  32.503  46.994  0.00  0.00     0.047 A 
HETATM   14  C   UNK N   1      47.737  32.188  55.566  0.00  0.00     0.040 A 
HETATM   15  C   UNK N   1      47.432  32.510  51.893  0.00  0.00     0.043 A 
HETATM   16  C   UNK N   1      47.174  32.256  54.294  0.00  0.00     0.015 A 
HETATM   17  C   UNK N   1      50.494  32.979  49.766  0.00  0.00     0.133 C 
HETATM   18  C   UNK N   1      50.031  32.091  48.617  0.00  0.00     0.060 C 
ENDROOT
BRANCH   2  19
HETATM   19  O   UNK N   1      51.320  32.421  54.726  0.00  0.00    -0.352 OA
HETATM   20  C   UNK N   1      52.020  33.559  55.077  0.00  0.00     0.210 C 
ENDBRANCH   2  19
BRANCH   3  21
HETATM   21  O   UNK N   1      49.634  32.263  56.980  0.00  0.00    -0.353 OA
HETATM   22  C   UNK N   1      49.049  31.499  57.969  0.00  0.00     0.210 C 
ENDBRANCH   3  21
BRANCH   4  23
HETATM   23  O   UNK N   1      44.646  33.471  47.536  0.00  0.00    -0.353 OA
HETATM   24  C   UNK N   1      43.701  33.438  48.540  0.00  0.00     0.210 C 
ENDBRANCH   4  23
BRANCH   5  25
HETATM   25  O   UNK N   1      46.386  32.852  45.439  0.00  0.00    -0.358 OA
HETATM   26  H   UNK N   1      45.503  32.560  45.174  0.00  0.00     0.218 HD
ENDBRANCH   5  25
TORSDOF 4
ENDMDL
MODEL 5
REMARK VINA RESULT:      -5.4      1.624      3.354
REMARK  4 active torsions:
REMARK  status: ('A' for Active; 'I' for Inactive)
REMARK    1  A    between atoms: O_1  and  C_6 
REMARK    2  A    between atoms: O_2  and  C_7 
REMARK    3  A    between atoms: O_3  and  C_8 
REMARK    4  A    between atoms: O_4  and  C_9 
ROOT
HETATM    1  N   UNK N   1      50.571  33.216  49.623  0.00  0.00    -0.355 N 
HETATM    2  C   UNK N   1      52.167  33.237  52.957  0.00  0.00     0.114 A 
HETATM    3  C   UNK N   1      51.773  33.243  54.315  0.00  0.00     0.102 A 
HETATM    4  C   UNK N   1      45.988  33.275  47.937  0.00  0.00     0.102 A 
HETATM    5  C   UNK N   1      46.455  32.875  46.669  0.00  0.00     0.099 A 
HETATM    6  C   UNK N   1      49.233  33.134  49.949  0.00  0.00     0.046 A 
HETATM    7  C   UNK N   1      51.531  33.237  50.593  0.00  0.00     0.106 A 
HETATM    8  C   UNK N   1      51.181  33.204  51.951  0.00  0.00     0.026 A 
HETATM    9  C   UNK N   1      49.818  33.139  52.304  0.00  0.00    -0.020 A 
HETATM   10  C   UNK N   1      48.233  33.037  48.846  0.00  0.00    -0.000 A 
HETATM   11  C   UNK N   1      48.697  32.654  47.569  0.00  0.00    -0.041 A 
HETATM   12  C   UNK N   1      46.870  33.339  49.022  0.00  0.00     0.054 A 
HETATM   13  C   UNK N   1      47.807  32.574  46.491  0.00  0.00     0.047 A 
HETATM   14  C   UNK N   1      50.416  33.164  54.650  0.00  0.00     0.040 A 
HETATM   15  C   UNK N   1      48.847  33.102  51.301  0.00  0.00     0.043 A 
HETATM   16  C   UNK N   1      49.445  33.103  53.654  0.00  0.00     0.015 A 
HETATM   17  C   UNK N   1      50.966  33.317  48.205  0.00  0.00     0.133 C 
HETATM   18  C   UNK N   1      50.158  32.318  47.386  0.00  0.00     0.060 C 
ENDROOT
BRANCH   2  19
HETATM   19  O   UNK N   1      53.477  33.275  52.597  0.00  0.00    -0.352 OA
HETATM   20  C   UNK N   1      54.210  34.443  52.518  0.00  0.00     0.210 C 
ENDBRANCH   2  19
BRANCH   3  21
HETATM   21  O   UNK N   1      52.684  33.369  55.300  0.00  0.00    -0.353 OA
HETATM   22  C   UNK N   1      52.780  34.550  56.008  0.00  0.00     0.210 C 
ENDBRANCH   3  21
BRANCH   4  23
HETATM   23  O   UNK N   1      44.696  33.626  48.112  0.00  0.00    -0.353 OA
HETATM   24  C   UNK N   1      43.899  32.935  49.001  0.00  0.00     0.210 C 
ENDBRANCH   4  23
BRANCH   5  25
HETATM   25  O   UNK N   1      45.617  32.774  45.615  0.00  0.00    -0.358 OA
HETATM   26  H   UNK N   1      44.730  32.397  45.692  0.00  0.00     0.218 HD
ENDBRANCH   5  25
TORSDOF 4
ENDMDL
MODEL 6
REMARK VINA RESULT:      -5.1     22.918     25.486
REMARK  4 active torsions:
REMARK  status: ('A' for Active; 'I' for Inactive)
REMARK    1  A    between atoms: O_1  and  C_6 
REMARK    2  A    between atoms: O_2  and  C_7 
REMARK    3  A    between atoms: O_3  and  C_8 
REMARK    4  A    between atoms: O_4  and  C_9 
ROOT
HETATM    1  N   UNK N   1      30.342  47.624  57.785  0.00  0.00    -0.355 N 
HETATM    2  C   UNK N   1      31.627  44.212  58.396  0.00  0.00     0.114 A 
HETATM    3  C   UNK N   1      31.664  43.273  59.452  0.00  0.00     0.102 A 
HETATM    4  C   UNK N   1      28.004  51.007  60.418  0.00  0.00     0.102 A 
HETATM    5  C   UNK N   1      27.671  51.692  59.232  0.00  0.00     0.099 A 
HETATM    6  C   UNK N   1      29.703  47.904  58.974  0.00  0.00     0.046 A 
HETATM    7  C   UNK N   1      30.958  46.423  57.583  0.00  0.00     0.106 A 
HETATM    8  C   UNK N   1      30.983  45.449  58.593  0.00  0.00     0.026 A 
HETATM    9  C   UNK N   1      30.349  45.725  59.823  0.00  0.00    -0.020 A 
HETATM   10  C   UNK N   1      28.980  49.203  59.108  0.00  0.00    -0.000 A 
HETATM   11  C   UNK N   1      28.659  49.902  57.926  0.00  0.00    -0.041 A 
HETATM   12  C   UNK N   1      28.640  49.762  60.354  0.00  0.00     0.054 A 
HETATM   13  C   UNK N   1      28.006  51.139  57.994  0.00  0.00     0.047 A 
HETATM   14  C   UNK N   1      31.020  43.555  60.662  0.00  0.00     0.040 A 
HETATM   15  C   UNK N   1      29.709  46.952  60.009  0.00  0.00     0.043 A 
HETATM   16  C   UNK N   1      30.359  44.767  60.845  0.00  0.00     0.015 A 
HETATM   17  C   UNK N   1      30.389  48.652  56.727  0.00  0.00     0.133 C 
HETATM   18  C   UNK N   1      29.014  49.294  56.590  0.00  0.00     0.060 C 
ENDROOT
BRANCH   2  19
HETATM   19  O   UNK N   1      32.210  43.955  57.195  0.00  0.00    -0.352 OA
HETATM   20  C   UNK N   1      31.710  43.040  56.289  0.00  0.00     0.210 C 
ENDBRANCH   2  19
BRANCH   3  21
HETATM   21  O   UNK N   1      32.352  42.120  59.331  0.00  0.00    -0.353 OA
HETATM   22  C   UNK N   1      33.639  42.026  59.820  0.00  0.00     0.210 C 
ENDBRANCH   3  21
BRANCH   4  23
HETATM   23  O   UNK N   1      27.739  51.554  61.623  0.00  0.00    -0.353 OA
HETATM   24  C   UNK N   1      28.704  51.577  62.608  0.00  0.00     0.210 C 
ENDBRANCH   4  23
BRANCH   5  25
HETATM   25  O   UNK N   1      27.028  52.879  59.268  0.00  0.00    -0.358 OA
HETATM   26  H   UNK N   1      26.900  53.375  60.088  0.00  0.00     0.218 HD
ENDBRANCH   5  25
TORSDOF 4
ENDMDL
MODEL 7
REMARK VINA RESULT:      -5.0      1.768      3.656
REMARK  4 active torsions:
REMARK  status: ('A' for Active; 'I' for Inactive)
REMARK    1  A    between atoms: O_1  and  C_6 
REMARK    2  A    between atoms: O_2  and  C_7 
REMARK    3  A    between atoms: O_3  and  C_8 
REMARK    4  A    between atoms: O_4  and  C_9 
ROOT
HETATM    1  N   UNK N   1      50.592  32.763  50.551  0.00  0.00    -0.355 N 
HETATM    2  C   UNK N   1      49.568  32.778  54.103  0.00  0.00     0.114 A 
HETATM    3  C   UNK N   1      48.395  32.561  54.862  0.00  0.00     0.102 A 
HETATM    4  C   UNK N   1      48.363  32.029  46.268  0.00  0.00     0.102 A 
HETATM    5  C   UNK N   1      49.619  31.868  45.649  0.00  0.00     0.099 A 
HETATM    6  C   UNK N   1      49.430  32.369  49.922  0.00  0.00     0.046 A 
HETATM    7  C   UNK N   1      50.649  32.886  51.909  0.00  0.00     0.106 A 
HETATM    8  C   UNK N   1      49.517  32.642  52.702  0.00  0.00     0.026 A 
HETATM    9  C   UNK N   1      48.316  32.255  52.074  0.00  0.00    -0.020 A 
HETATM   10  C   UNK N   1      49.448  32.176  48.442  0.00  0.00    -0.000 A 
HETATM   11  C   UNK N   1      50.703  32.032  47.813  0.00  0.00    -0.041 A 
HETATM   12  C   UNK N   1      48.279  32.165  47.659  0.00  0.00     0.054 A 
HETATM   13  C   UNK N   1      50.781  31.877  46.423  0.00  0.00     0.047 A 
HETATM   14  C   UNK N   1      47.212  32.165  54.228  0.00  0.00     0.040 A 
HETATM   15  C   UNK N   1      48.276  32.117  50.685  0.00  0.00     0.043 A 
HETATM   16  C   UNK N   1      47.173  32.004  52.845  0.00  0.00     0.015 A 
HETATM   17  C   UNK N   1      51.781  33.089  49.740  0.00  0.00     0.133 C 
HETATM   18  C   UNK N   1      51.956  32.032  48.657  0.00  0.00     0.060 C 
ENDROOT
BRANCH   2  19
HETATM   19  O   UNK N   1      50.741  33.127  54.691  0.00  0.00    -0.352 OA
HETATM   20  C   UNK N   1      51.604  32.214  55.267  0.00  0.00     0.210 C 
ENDBRANCH   2  19
BRANCH   3  21
HETATM   21  O   UNK N   1      48.382  32.775  56.193  0.00  0.00    -0.353 OA
HETATM   22  C   UNK N   1      48.291  31.711  57.067  0.00  0.00     0.210 C 
ENDBRANCH   3  21
BRANCH   4  23
HETATM   23  O   UNK N   1      47.235  32.080  45.529  0.00  0.00    -0.353 OA
HETATM   24  C   UNK N   1      46.076  32.608  46.058  0.00  0.00     0.210 C 
ENDBRANCH   4  23
BRANCH   5  25
HETATM   25  O   UNK N   1      49.722  31.701  44.313  0.00  0.00    -0.358 OA
HETATM   26  H   UNK N   1      50.288  32.260  43.763  0.00  0.00     0.218 HD
ENDBRANCH   5  25
TORSDOF 4
ENDMDL
MODEL 8
REMARK VINA RESULT:      -4.9     21.949     24.780
REMARK  4 active torsions:
REMARK  status: ('A' for Active; 'I' for Inactive)
REMARK    1  A    between atoms: O_1  and  C_6 
REMARK    2  A    between atoms: O_2  and  C_7 
REMARK    3  A    between atoms: O_3  and  C_8 
REMARK    4  A    between atoms: O_4  and  C_9 
ROOT
HETATM    1  N   UNK N   1      30.626  45.419  58.156  0.00  0.00    -0.355 N 
HETATM    2  C   UNK N   1      29.777  49.013  57.985  0.00  0.00     0.114 A 
HETATM    3  C   UNK N   1      29.335  50.034  58.858  0.00  0.00     0.102 A 
HETATM    4  C   UNK N   1      30.631  41.984  61.627  0.00  0.00     0.102 A 
HETATM    5  C   UNK N   1      31.429  41.163  60.806  0.00  0.00     0.099 A 
HETATM    6  C   UNK N   1      30.481  45.157  59.502  0.00  0.00     0.046 A 
HETATM    7  C   UNK N   1      30.412  46.671  57.657  0.00  0.00     0.106 A 
HETATM    8  C   UNK N   1      30.010  47.721  58.497  0.00  0.00     0.026 A 
HETATM    9  C   UNK N   1      29.840  47.467  59.873  0.00  0.00    -0.020 A 
HETATM   10  C   UNK N   1      30.803  43.787  60.002  0.00  0.00    -0.000 A 
HETATM   11  C   UNK N   1      31.587  42.953  59.177  0.00  0.00    -0.041 A 
HETATM   12  C   UNK N   1      30.335  43.295  61.233  0.00  0.00     0.054 A 
HETATM   13  C   UNK N   1      31.896  41.650  59.583  0.00  0.00     0.047 A 
HETATM   14  C   UNK N   1      29.183  49.771  60.224  0.00  0.00     0.040 A 
HETATM   15  C   UNK N   1      30.078  46.184  60.372  0.00  0.00     0.043 A 
HETATM   16  C   UNK N   1      29.441  48.500  60.731  0.00  0.00     0.015 A 
HETATM   17  C   UNK N   1      30.985  44.321  57.237  0.00  0.00     0.133 C 
HETATM   18  C   UNK N   1      32.099  43.489  57.860  0.00  0.00     0.060 C 
ENDROOT
BRANCH   2  19
HETATM   19  O   UNK N   1      29.971  49.244  56.661  0.00  0.00    -0.352 OA
HETATM   20  C   UNK N   1      31.077  49.904  56.158  0.00  0.00     0.210 C 
ENDBRANCH   2  19
BRANCH   3  21
HETATM   21  O   UNK N   1      29.011  51.255  58.387  0.00  0.00    -0.353 OA
HETATM   22  C   UNK N   1      28.190  52.086  59.122  0.00  0.00     0.210 C 
ENDBRANCH   3  21
BRANCH   4  23
HETATM   23  O   UNK N   1      30.124  41.510  62.785  0.00  0.00    -0.353 OA
HETATM   24  C   UNK N   1      29.706  42.378  63.773  0.00  0.00     0.210 C 
ENDBRANCH   4  23
BRANCH   5  25
HETATM   25  O   UNK N   1      31.755  39.907  61.180  0.00  0.00    -0.358 OA
HETATM   26  H   UNK N   1      31.147  39.338  61.671  0.00  0.00     0.218 HD
ENDBRANCH   5  25
TORSDOF 4
ENDMDL
MODEL 9
REMARK VINA RESULT:      -4.8      2.452      8.276
REMARK  4 active torsions:
REMARK  status: ('A' for Active; 'I' for Inactive)
REMARK    1  A    between atoms: O_1  and  C_6 
REMARK    2  A    between atoms: O_2  and  C_7 
REMARK    3  A    between atoms: O_3  and  C_8 
REMARK    4  A    between atoms: O_4  and  C_9 
ROOT
HETATM    1  N   UNK N   1      49.746  31.921  52.883  0.00  0.00    -0.355 N 
HETATM    2  C   UNK N   1      48.664  33.517  49.729  0.00  0.00     0.114 A 
HETATM    3  C   UNK N   1      47.642  34.387  49.285  0.00  0.00     0.102 A 
HETATM    4  C   UNK N   1      48.147  31.844  57.496  0.00  0.00     0.102 A 
HETATM    5  C   UNK N   1      49.388  31.321  57.912  0.00  0.00     0.099 A 
HETATM    6  C   UNK N   1      48.856  32.454  53.791  0.00  0.00     0.046 A 
HETATM    7  C   UNK N   1      49.700  32.271  51.564  0.00  0.00     0.106 A 
HETATM    8  C   UNK N   1      48.724  33.161  51.091  0.00  0.00     0.026 A 
HETATM    9  C   UNK N   1      47.794  33.702  52.002  0.00  0.00    -0.020 A 
HETATM   10  C   UNK N   1      49.004  32.094  55.232  0.00  0.00    -0.000 A 
HETATM   11  C   UNK N   1      50.238  31.554  55.652  0.00  0.00    -0.041 A 
HETATM   12  C   UNK N   1      47.963  32.243  56.167  0.00  0.00     0.054 A 
HETATM   13  C   UNK N   1      50.423  31.173  56.987  0.00  0.00     0.047 A 
HETATM   14  C   UNK N   1      46.733  34.927  50.203  0.00  0.00     0.040 A 
HETATM   15  C   UNK N   1      47.864  33.348  53.352  0.00  0.00     0.043 A 
HETATM   16  C   UNK N   1      46.813  34.595  51.553  0.00  0.00     0.015 A 
HETATM   17  C   UNK N   1      50.743  30.933  53.339  0.00  0.00     0.133 C 
HETATM   18  C   UNK N   1      51.358  31.407  54.649  0.00  0.00     0.060 C 
ENDROOT
BRANCH   2  19
HETATM   19  O   UNK N   1      49.585  33.005  48.871  0.00  0.00    -0.352 OA
HETATM   20  C   UNK N   1      50.726  33.682  48.489  0.00  0.00     0.210 C 
ENDBRANCH   2  19
BRANCH   3  21
HETATM   21  O   UNK N   1      47.496  34.673  47.976  0.00  0.00    -0.353 OA
HETATM   22  C   UNK N   1      46.690  33.886  47.179  0.00  0.00     0.210 C 
ENDBRANCH   3  21
BRANCH   4  23
HETATM   23  O   UNK N   1      47.118  31.940  58.364  0.00  0.00    -0.353 OA
HETATM   24  C   UNK N   1      46.413  30.815  58.741  0.00  0.00     0.210 C 
ENDBRANCH   4  23
BRANCH   5  25
HETATM   25  O   UNK N   1      49.598  30.960  59.196  0.00  0.00    -0.358 OA
HETATM   26  H   UNK N   1      49.571  31.595  59.925  0.00  0.00     0.218 HD
ENDBRANCH   5  25
TORSDOF 4
ENDMDL
