MODEL 1
REMARK VINA RESULT:      -5.4      0.000      0.000
REMARK  9 active torsions:
REMARK  status: ('A' for Active; 'I' for Inactive)
REMARK    1  A    between atoms: O_3  and  C_15 
REMARK    2  A    between atoms: O_3  and  C_27 
REMARK    3  A    between atoms: O_4  and  C_16 
REMARK    4  A    between atoms: O_5  and  C_17 
REMARK    5  A    between atoms: O_7  and  C_28 
REMARK    6  A    between atoms: O_8  and  C_29 
REMARK    7  A    between atoms: O_9  and  C_30 
REMARK    8  A    between atoms: O_10  and  C_18 
REMARK    9  A    between atoms: C_12  and  C_20 
ROOT
HETATM    1  O   UNK N   1      28.002  42.644  53.661  0.00  0.00    -0.306 OA
HETATM    2  O   UNK N   1      27.200  38.891  52.692  0.00  0.00    -0.284 OA
HETATM    3  C   UNK N   1      28.694  41.696  54.291  0.00  0.00     0.124 A 
HETATM    4  C   UNK N   1      27.068  42.405  52.753  0.00  0.00     0.096 A 
HETATM    5  C   UNK N   1      27.455  40.040  53.000  0.00  0.00     0.223 A 
HETATM    6  C   UNK N   1      28.462  40.330  53.967  0.00  0.00     0.157 A 
HETATM    7  C   UNK N   1      25.416  43.257  51.191  0.00  0.00     0.071 A 
HETATM    8  C   UNK N   1      25.746  40.865  51.407  0.00  0.00     0.085 A 
HETATM    9  C   UNK N   1      26.749  41.088  52.387  0.00  0.00     0.084 A 
HETATM   10  C   UNK N   1      26.404  43.482  52.158  0.00  0.00     0.075 A 
HETATM   11  C   UNK N   1      25.092  41.952  50.821  0.00  0.00     0.074 A 
ENDROOT
BRANCH   6  12
HETATM   12  O   UNK N   1      29.241  39.350  54.529  0.00  0.00    -0.311 OA
BRANCH  12  13
HETATM   13  C   UNK N   1      28.752  38.311  55.312  0.00  0.00     0.298 C 
HETATM   14  O   UNK N   1      29.732  37.283  55.328  0.00  0.00    -0.351 OA
HETATM   15  C   UNK N   1      29.227  36.100  55.910  0.00  0.00     0.152 C 
HETATM   16  C   UNK N   1      28.852  36.349  57.393  0.00  0.00     0.178 C 
HETATM   17  C   UNK N   1      30.313  35.027  55.806  0.00  0.00     0.042 C 
HETATM   18  C   UNK N   1      27.869  37.538  57.499  0.00  0.00     0.183 C 
HETATM   19  C   UNK N   1      28.452  38.761  56.754  0.00  0.00     0.205 C 
BRANCH  16  20
HETATM   20  O   UNK N   1      28.311  35.192  57.981  0.00  0.00    -0.390 OA
HETATM   21  H   UNK N   1      27.410  35.049  57.586  0.00  0.00     0.210 HD
ENDBRANCH  16  20
BRANCH  18  22
HETATM   22  O   UNK N   1      27.623  37.865  58.841  0.00  0.00    -0.390 OA
HETATM   23  H   UNK N   1      27.018  38.653  58.838  0.00  0.00     0.210 HD
ENDBRANCH  18  22
BRANCH  19  24
HETATM   24  O   UNK N   1      29.626  39.197  57.392  0.00  0.00    -0.388 OA
HETATM   25  H   UNK N   1      30.195  39.611  56.693  0.00  0.00     0.210 HD
ENDBRANCH  19  24
ENDBRANCH  12  13
ENDBRANCH   6  12
BRANCH   3  26
HETATM   26  C   UNK N   1      29.715  42.169  55.279  0.00  0.00     0.001 A 
HETATM   27  C   UNK N   1      31.072  42.136  54.896  0.00  0.00     0.017 A 
HETATM   28  C   UNK N   1      32.075  42.575  55.761  0.00  0.00     0.037 A 
HETATM   29  C   UNK N   1      31.745  43.076  57.020  0.00  0.00     0.065 A 
HETATM   30  C   UNK N   1      30.401  43.129  57.415  0.00  0.00     0.037 A 
HETATM   31  C   UNK N   1      29.390  42.675  56.557  0.00  0.00     0.017 A 
BRANCH  29  32
HETATM   32  O   UNK N   1      32.726  43.511  57.838  0.00  0.00    -0.361 OA
HETATM   33  H   UNK N   1      33.476  42.951  58.078  0.00  0.00     0.217 HD
ENDBRANCH  29  32
ENDBRANCH   3  26
BRANCH   8  34
HETATM   34  O   UNK N   1      25.407  39.621  51.022  0.00  0.00    -0.360 OA
ATOM     35  HO  UNK N   1      25.555  39.321  50.133  1.00  0.00     0.217 HD
ENDBRANCH   8  34
BRANCH   7  36
HETATM   36  O   UNK N   1      24.775  44.291  50.610  0.00  0.00    -0.361 OA
HETATM   37  H   UNK N   1      24.858  44.473  49.663  0.00  0.00     0.217 HD
ENDBRANCH   7  36
TORSDOF 9
ENDMDL
MODEL 2
REMARK VINA RESULT:      -5.3      3.994      6.560
REMARK  9 active torsions:
REMARK  status: ('A' for Active; 'I' for Inactive)
REMARK    1  A    between atoms: O_3  and  C_15 
REMARK    2  A    between atoms: O_3  and  C_27 
REMARK    3  A    between atoms: O_4  and  C_16 
REMARK    4  A    between atoms: O_5  and  C_17 
REMARK    5  A    between atoms: O_7  and  C_28 
REMARK    6  A    between atoms: O_8  and  C_29 
REMARK    7  A    between atoms: O_9  and  C_30 
REMARK    8  A    between atoms: O_10  and  C_18 
REMARK    9  A    between atoms: C_12  and  C_20 
ROOT
HETATM    1  O   UNK N   1      30.555  46.591  58.311  0.00  0.00    -0.306 OA
HETATM    2  O   UNK N   1      26.756  45.725  57.611  0.00  0.00    -0.284 OA
HETATM    3  C   UNK N   1      30.181  45.323  58.485  0.00  0.00     0.124 A 
HETATM    4  C   UNK N   1      29.737  47.563  57.935  0.00  0.00     0.096 A 
HETATM    5  C   UNK N   1      27.925  45.978  57.831  0.00  0.00     0.223 A 
HETATM    6  C   UNK N   1      28.832  44.952  58.227  0.00  0.00     0.157 A 
HETATM    7  C   UNK N   1      29.400  49.903  57.385  0.00  0.00     0.071 A 
HETATM    8  C   UNK N   1      27.532  48.361  57.279  0.00  0.00     0.085 A 
HETATM    9  C   UNK N   1      28.381  47.298  57.684  0.00  0.00     0.084 A 
HETATM   10  C   UNK N   1      30.242  48.858  57.787  0.00  0.00     0.075 A 
HETATM   11  C   UNK N   1      28.051  49.650  57.134  0.00  0.00     0.074 A 
ENDROOT
BRANCH   6  12
HETATM   12  O   UNK N   1      28.459  43.633  58.299  0.00  0.00    -0.311 OA
BRANCH  12  13
HETATM   13  C   UNK N   1      28.248  42.815  57.196  0.00  0.00     0.298 C 
HETATM   14  O   UNK N   1      29.502  42.615  56.560  0.00  0.00    -0.351 OA
HETATM   15  C   UNK N   1      29.347  41.985  55.305  0.00  0.00     0.152 C 
HETATM   16  C   UNK N   1      28.735  40.572  55.486  0.00  0.00     0.178 C 
HETATM   17  C   UNK N   1      30.730  41.889  54.656  0.00  0.00     0.042 C 
HETATM   18  C   UNK N   1      27.411  40.666  56.279  0.00  0.00     0.183 C 
HETATM   19  C   UNK N   1      27.645  41.453  57.589  0.00  0.00     0.205 C 
BRANCH  16  20
HETATM   20  O   UNK N   1      28.538  39.942  54.245  0.00  0.00    -0.390 OA
HETATM   21  H   UNK N   1      27.712  39.393  54.316  0.00  0.00     0.210 HD
ENDBRANCH  16  20
BRANCH  18  22
HETATM   22  O   UNK N   1      26.911  39.387  56.569  0.00  0.00    -0.390 OA
HETATM   23  H   UNK N   1      26.173  39.510  57.222  0.00  0.00     0.210 HD
ENDBRANCH  18  22
BRANCH  19  24
HETATM   24  O   UNK N   1      28.524  40.744  58.425  0.00  0.00    -0.388 OA
HETATM   25  H   UNK N   1      29.444  41.004  58.160  0.00  0.00     0.210 HD
ENDBRANCH  19  24
ENDBRANCH  12  13
ENDBRANCH   6  12
BRANCH   3  26
HETATM   26  C   UNK N   1      31.256  44.369  58.904  0.00  0.00     0.001 A 
HETATM   27  C   UNK N   1      32.175  43.936  57.926  0.00  0.00     0.017 A 
HETATM   28  C   UNK N   1      33.210  43.058  58.250  0.00  0.00     0.037 A 
HETATM   29  C   UNK N   1      33.365  42.610  59.562  0.00  0.00     0.065 A 
HETATM   30  C   UNK N   1      32.470  43.040  60.552  0.00  0.00     0.037 A 
HETATM   31  C   UNK N   1      31.419  43.909  60.229  0.00  0.00     0.017 A 
BRANCH  29  32
HETATM   32  O   UNK N   1      34.381  41.774  59.861  0.00  0.00    -0.361 OA
HETATM   33  H   UNK N   1      35.105  41.608  59.242  0.00  0.00     0.217 HD
ENDBRANCH  29  32
ENDBRANCH   3  26
BRANCH   8  34
HETATM   34  O   UNK N   1      26.226  48.157  57.025  0.00  0.00    -0.360 OA
ATOM     35  HO  UNK N   1      25.601  48.023  57.726  1.00  0.00     0.217 HD
ENDBRANCH   8  34
BRANCH   7  36
HETATM   36  O   UNK N   1      29.881  51.154  57.236  0.00  0.00    -0.361 OA
HETATM   37  H   UNK N   1      30.750  51.321  56.845  0.00  0.00     0.217 HD
ENDBRANCH   7  36
TORSDOF 9
ENDMDL
MODEL 3
REMARK VINA RESULT:      -5.3      1.677      5.167
REMARK  9 active torsions:
REMARK  status: ('A' for Active; 'I' for Inactive)
REMARK    1  A    between atoms: O_3  and  C_15 
REMARK    2  A    between atoms: O_3  and  C_27 
REMARK    3  A    between atoms: O_4  and  C_16 
REMARK    4  A    between atoms: O_5  and  C_17 
REMARK    5  A    between atoms: O_7  and  C_28 
REMARK    6  A    between atoms: O_8  and  C_29 
REMARK    7  A    between atoms: O_9  and  C_30 
REMARK    8  A    between atoms: O_10  and  C_18 
REMARK    9  A    between atoms: C_12  and  C_20 
ROOT
HETATM    1  O   UNK N   1      27.376  39.448  54.001  0.00  0.00    -0.306 OA
HETATM    2  O   UNK N   1      29.504  42.538  52.737  0.00  0.00    -0.284 OA
HETATM    3  C   UNK N   1      28.481  39.741  54.685  0.00  0.00     0.124 A 
HETATM    4  C   UNK N   1      26.963  40.115  52.933  0.00  0.00     0.096 A 
HETATM    5  C   UNK N   1      28.860  41.586  53.135  0.00  0.00     0.223 A 
HETATM    6  C   UNK N   1      29.273  40.855  54.288  0.00  0.00     0.157 A 
HETATM    7  C   UNK N   1      25.323  40.405  51.166  0.00  0.00     0.071 A 
HETATM    8  C   UNK N   1      27.222  41.907  51.304  0.00  0.00     0.085 A 
HETATM    9  C   UNK N   1      27.693  41.211  52.449  0.00  0.00     0.084 A 
HETATM   10  C   UNK N   1      25.785  39.715  52.294  0.00  0.00     0.075 A 
HETATM   11  C   UNK N   1      26.043  41.495  50.677  0.00  0.00     0.074 A 
ENDROOT
BRANCH   6  12
HETATM   12  O   UNK N   1      30.354  41.232  55.044  0.00  0.00    -0.311 OA
BRANCH  12  13
HETATM   13  C   UNK N   1      30.307  42.162  56.075  0.00  0.00     0.298 C 
HETATM   14  O   UNK N   1      30.417  41.455  57.302  0.00  0.00    -0.351 OA
HETATM   15  C   UNK N   1      30.149  42.295  58.405  0.00  0.00     0.152 C 
HETATM   16  C   UNK N   1      31.197  43.435  58.478  0.00  0.00     0.178 C 
HETATM   17  C   UNK N   1      30.204  41.436  59.670  0.00  0.00     0.042 C 
HETATM   18  C   UNK N   1      31.241  44.201  57.136  0.00  0.00     0.183 C 
HETATM   19  C   UNK N   1      31.438  43.201  55.974  0.00  0.00     0.205 C 
BRANCH  16  20
HETATM   20  O   UNK N   1      30.927  44.305  59.549  0.00  0.00    -0.390 OA
HETATM   21  H   UNK N   1      30.973  45.234  59.198  0.00  0.00     0.210 HD
ENDBRANCH  16  20
BRANCH  18  22
HETATM   22  O   UNK N   1      32.277  45.149  57.136  0.00  0.00    -0.390 OA
HETATM   23  H   UNK N   1      33.103  44.671  56.862  0.00  0.00     0.210 HD
ENDBRANCH  18  22
BRANCH  19  24
HETATM   24  O   UNK N   1      32.694  42.580  56.082  0.00  0.00    -0.388 OA
HETATM   25  H   UNK N   1      32.596  41.668  55.704  0.00  0.00     0.210 HD
ENDBRANCH  19  24
ENDBRANCH  12  13
ENDBRANCH   6  12
BRANCH   3  26
HETATM   26  C   UNK N   1      28.774  38.875  55.870  0.00  0.00     0.001 A 
HETATM   27  C   UNK N   1      28.046  39.108  57.056  0.00  0.00     0.017 A 
HETATM   28  C   UNK N   1      28.258  38.329  58.194  0.00  0.00     0.037 A 
HETATM   29  C   UNK N   1      29.184  37.287  58.169  0.00  0.00     0.065 A 
HETATM   30  C   UNK N   1      29.908  37.031  56.996  0.00  0.00     0.037 A 
HETATM   31  C   UNK N   1      29.712  37.820  55.855  0.00  0.00     0.017 A 
BRANCH  29  32
HETATM   32  O   UNK N   1      29.365  36.534  59.274  0.00  0.00    -0.361 OA
HETATM   33  H   UNK N   1      28.688  35.920  59.590  0.00  0.00     0.217 HD
ENDBRANCH  29  32
ENDBRANCH   3  26
BRANCH   8  34
HETATM   34  O   UNK N   1      27.886  42.965  50.805  0.00  0.00    -0.360 OA
ATOM     35  HO  UNK N   1      28.469  42.877  50.061  1.00  0.00     0.217 HD
ENDBRANCH   8  34
BRANCH   7  36
HETATM   36  O   UNK N   1      24.187  40.027  50.547  0.00  0.00    -0.361 OA
HETATM   37  H   UNK N   1      23.875  39.111  50.573  0.00  0.00     0.217 HD
ENDBRANCH   7  36
TORSDOF 9
ENDMDL
MODEL 4
REMARK VINA RESULT:      -5.2      2.101      6.003
REMARK  9 active torsions:
REMARK  status: ('A' for Active; 'I' for Inactive)
REMARK    1  A    between atoms: O_3  and  C_15 
REMARK    2  A    between atoms: O_3  and  C_27 
REMARK    3  A    between atoms: O_4  and  C_16 
REMARK    4  A    between atoms: O_5  and  C_17 
REMARK    5  A    between atoms: O_7  and  C_28 
REMARK    6  A    between atoms: O_8  and  C_29 
REMARK    7  A    between atoms: O_9  and  C_30 
REMARK    8  A    between atoms: O_10  and  C_18 
REMARK    9  A    between atoms: C_12  and  C_20 
ROOT
HETATM    1  O   UNK N   1      30.394  42.594  56.110  0.00  0.00    -0.306 OA
HETATM    2  O   UNK N   1      28.886  40.031  58.724  0.00  0.00    -0.284 OA
HETATM    3  C   UNK N   1      29.306  41.921  55.739  0.00  0.00     0.124 A 
HETATM    4  C   UNK N   1      30.996  42.447  57.281  0.00  0.00     0.096 A 
HETATM    5  C   UNK N   1      29.340  40.814  57.911  0.00  0.00     0.223 A 
HETATM    6  C   UNK N   1      28.709  41.003  56.647  0.00  0.00     0.157 A 
HETATM    7  C   UNK N   1      32.789  43.074  58.794  0.00  0.00     0.071 A 
HETATM    8  C   UNK N   1      31.164  41.411  59.479  0.00  0.00     0.085 A 
HETATM    9  C   UNK N   1      30.497  41.543  58.233  0.00  0.00     0.084 A 
HETATM   10  C   UNK N   1      32.136  43.206  57.561  0.00  0.00     0.075 A 
HETATM   11  C   UNK N   1      32.301  42.178  59.745  0.00  0.00     0.074 A 
ENDROOT
BRANCH   6  12
HETATM   12  O   UNK N   1      27.529  40.383  56.319  0.00  0.00    -0.311 OA
BRANCH  12  13
HETATM   13  C   UNK N   1      27.439  39.157  55.671  0.00  0.00     0.298 C 
HETATM   14  O   UNK N   1      28.751  38.624  55.569  0.00  0.00    -0.351 OA
HETATM   15  C   UNK N   1      28.782  37.492  54.724  0.00  0.00     0.152 C 
HETATM   16  C   UNK N   1      27.909  36.357  55.318  0.00  0.00     0.178 C 
HETATM   17  C   UNK N   1      30.239  37.039  54.603  0.00  0.00     0.042 C 
HETATM   18  C   UNK N   1      26.476  36.872  55.580  0.00  0.00     0.183 C 
HETATM   19  C   UNK N   1      26.535  38.165  56.426  0.00  0.00     0.205 C 
BRANCH  16  20
HETATM   20  O   UNK N   1      27.896  35.232  54.473  0.00  0.00    -0.390 OA
HETATM   21  H   UNK N   1      27.263  35.424  53.731  0.00  0.00     0.210 HD
ENDBRANCH  16  20
BRANCH  18  22
HETATM   22  O   UNK N   1      25.709  35.900  56.241  0.00  0.00    -0.390 OA
HETATM   23  H   UNK N   1      26.349  35.285  56.687  0.00  0.00     0.210 HD
ENDBRANCH  18  22
BRANCH  19  24
HETATM   24  O   UNK N   1      27.062  37.883  57.698  0.00  0.00    -0.388 OA
HETATM   25  H   UNK N   1      27.385  36.945  57.672  0.00  0.00     0.210 HD
ENDBRANCH  19  24
ENDBRANCH  12  13
ENDBRANCH   6  12
BRANCH   3  26
HETATM   26  C   UNK N   1      28.767  42.235  54.378  0.00  0.00     0.001 A 
HETATM   27  C   UNK N   1      29.576  41.938  53.261  0.00  0.00     0.017 A 
HETATM   28  C   UNK N   1      29.132  42.193  51.963  0.00  0.00     0.037 A 
HETATM   29  C   UNK N   1      27.862  42.728  51.748  0.00  0.00     0.065 A 
HETATM   30  C   UNK N   1      27.037  43.017  52.845  0.00  0.00     0.037 A 
HETATM   31  C   UNK N   1      27.485  42.780  54.151  0.00  0.00     0.017 A 
BRANCH  29  32
HETATM   32  O   UNK N   1      27.442  42.953  50.486  0.00  0.00    -0.361 OA
HETATM   33  H   UNK N   1      26.514  43.132  50.281  0.00  0.00     0.217 HD
ENDBRANCH  29  32
ENDBRANCH   3  26
BRANCH   8  34
HETATM   34  O   UNK N   1      30.722  40.560  60.423  0.00  0.00    -0.360 OA
ATOM     35  HO  UNK N   1      30.919  40.694  61.342  1.00  0.00     0.217 HD
ENDBRANCH   8  34
BRANCH   7  36
HETATM   36  O   UNK N   1      33.886  43.807  59.072  0.00  0.00    -0.361 OA
HETATM   37  H   UNK N   1      34.372  43.700  59.902  0.00  0.00     0.217 HD
ENDBRANCH   7  36
TORSDOF 9
ENDMDL
MODEL 5
REMARK VINA RESULT:      -5.1      3.216      6.485
REMARK  9 active torsions:
REMARK  status: ('A' for Active; 'I' for Inactive)
REMARK    1  A    between atoms: O_3  and  C_15 
REMARK    2  A    between atoms: O_3  and  C_27 
REMARK    3  A    between atoms: O_4  and  C_16 
REMARK    4  A    between atoms: O_5  and  C_17 
REMARK    5  A    between atoms: O_7  and  C_28 
REMARK    6  A    between atoms: O_8  and  C_29 
REMARK    7  A    between atoms: O_9  and  C_30 
REMARK    8  A    between atoms: O_10  and  C_18 
REMARK    9  A    between atoms: C_12  and  C_20 
ROOT
HETATM    1  O   UNK N   1      28.879  43.058  56.240  0.00  0.00    -0.306 OA
HETATM    2  O   UNK N   1      29.612  40.008  58.656  0.00  0.00    -0.284 OA
HETATM    3  C   UNK N   1      29.197  43.348  57.502  0.00  0.00     0.124 A 
HETATM    4  C   UNK N   1      28.786  41.826  55.761  0.00  0.00     0.096 A 
HETATM    5  C   UNK N   1      29.389  40.954  57.925  0.00  0.00     0.223 A 
HETATM    6  C   UNK N   1      29.492  42.292  58.408  0.00  0.00     0.157 A 
HETATM    7  C   UNK N   1      28.341  40.351  53.885  0.00  0.00     0.071 A 
HETATM    8  C   UNK N   1      28.925  39.411  56.043  0.00  0.00     0.085 A 
HETATM    9  C   UNK N   1      29.030  40.718  56.587  0.00  0.00     0.084 A 
HETATM   10  C   UNK N   1      28.442  41.642  54.418  0.00  0.00     0.075 A 
HETATM   11  C   UNK N   1      28.581  39.243  54.699  0.00  0.00     0.074 A 
ENDROOT
BRANCH   6  12
HETATM   12  O   UNK N   1      29.923  42.579  59.679  0.00  0.00    -0.311 OA
BRANCH  12  13
HETATM   13  C   UNK N   1      31.174  43.097  59.986  0.00  0.00     0.298 C 
HETATM   14  O   UNK N   1      31.312  43.088  61.400  0.00  0.00    -0.351 OA
HETATM   15  C   UNK N   1      32.457  43.806  61.810  0.00  0.00     0.152 C 
HETATM   16  C   UNK N   1      33.739  43.132  61.256  0.00  0.00     0.178 C 
HETATM   17  C   UNK N   1      32.478  43.818  63.340  0.00  0.00     0.042 C 
HETATM   18  C   UNK N   1      33.639  42.986  59.721  0.00  0.00     0.183 C 
HETATM   19  C   UNK N   1      32.314  42.280  59.351  0.00  0.00     0.205 C 
BRANCH  16  20
HETATM   20  O   UNK N   1      34.890  43.853  61.622  0.00  0.00    -0.390 OA
HETATM   21  H   UNK N   1      34.911  44.681  61.073  0.00  0.00     0.210 HD
ENDBRANCH  16  20
BRANCH  18  22
HETATM   22  O   UNK N   1      34.729  42.258  59.216  0.00  0.00    -0.390 OA
HETATM   23  H   UNK N   1      35.504  42.459  59.805  0.00  0.00     0.210 HD
ENDBRANCH  18  22
BRANCH  19  24
HETATM   24  O   UNK N   1      32.317  40.964  59.845  0.00  0.00    -0.388 OA
HETATM   25  H   UNK N   1      31.370  40.719  60.012  0.00  0.00     0.210 HD
ENDBRANCH  19  24
ENDBRANCH  12  13
ENDBRANCH   6  12
BRANCH   3  26
HETATM   26  C   UNK N   1      29.262  44.803  57.848  0.00  0.00     0.001 A 
HETATM   27  C   UNK N   1      30.473  45.487  57.613  0.00  0.00     0.017 A 
HETATM   28  C   UNK N   1      30.599  46.846  57.900  0.00  0.00     0.037 A 
HETATM   29  C   UNK N   1      29.513  47.560  58.407  0.00  0.00     0.065 A 
HETATM   30  C   UNK N   1      28.296  46.902  58.635  0.00  0.00     0.037 A 
HETATM   31  C   UNK N   1      28.168  45.532  58.365  0.00  0.00     0.017 A 
BRANCH  29  32
HETATM   32  O   UNK N   1      29.647  48.878  58.664  0.00  0.00    -0.361 OA
HETATM   33  H   UNK N   1      30.106  49.472  58.055  0.00  0.00     0.217 HD
ENDBRANCH  29  32
ENDBRANCH   3  26
BRANCH   8  34
HETATM   34  O   UNK N   1      29.153  38.318  56.794  0.00  0.00    -0.360 OA
ATOM     35  HO  UNK N   1      29.739  37.631  56.502  1.00  0.00     0.217 HD
ENDBRANCH   8  34
BRANCH   7  36
HETATM   36  O   UNK N   1      28.014  40.166  52.590  0.00  0.00    -0.361 OA
HETATM   37  H   UNK N   1      28.445  40.665  51.881  0.00  0.00     0.217 HD
ENDBRANCH   7  36
TORSDOF 9
ENDMDL
MODEL 6
REMARK VINA RESULT:      -5.1     23.419     25.586
REMARK  9 active torsions:
REMARK  status: ('A' for Active; 'I' for Inactive)
REMARK    1  A    between atoms: O_3  and  C_15 
REMARK    2  A    between atoms: O_3  and  C_27 
REMARK    3  A    between atoms: O_4  and  C_16 
REMARK    4  A    between atoms: O_5  and  C_17 
REMARK    5  A    between atoms: O_7  and  C_28 
REMARK    6  A    between atoms: O_8  and  C_29 
REMARK    7  A    between atoms: O_9  and  C_30 
REMARK    8  A    between atoms: O_10  and  C_18 
REMARK    9  A    between atoms: C_12  and  C_20 
ROOT
HETATM    1  O   UNK N   1      49.059  55.028  57.169  0.00  0.00    -0.306 OA
HETATM    2  O   UNK N   1      47.954  58.513  55.648  0.00  0.00    -0.284 OA
HETATM    3  C   UNK N   1      48.367  55.844  57.964  0.00  0.00     0.124 A 
HETATM    4  C   UNK N   1      49.401  55.319  55.923  0.00  0.00     0.096 A 
HETATM    5  C   UNK N   1      48.288  57.446  56.128  0.00  0.00     0.223 A 
HETATM    6  C   UNK N   1      47.925  57.100  57.463  0.00  0.00     0.157 A 
HETATM    7  C   UNK N   1      50.502  54.665  53.860  0.00  0.00     0.071 A 
HETATM    8  C   UNK N   1      49.415  56.828  54.010  0.00  0.00     0.085 A 
HETATM    9  C   UNK N   1      49.035  56.548  55.349  0.00  0.00     0.084 A 
HETATM   10  C   UNK N   1      50.131  54.386  55.181  0.00  0.00     0.075 A 
HETATM   11  C   UNK N   1      50.144  55.884  53.282  0.00  0.00     0.074 A 
ENDROOT
BRANCH   6  12
HETATM   12  O   UNK N   1      47.123  57.902  58.234  0.00  0.00    -0.311 OA
BRANCH  12  13
HETATM   13  C   UNK N   1      45.770  57.678  58.459  0.00  0.00     0.298 C 
HETATM   14  O   UNK N   1      45.598  57.425  59.847  0.00  0.00    -0.351 OA
HETATM   15  C   UNK N   1      44.294  56.963  60.127  0.00  0.00     0.152 C 
HETATM   16  C   UNK N   1      43.250  58.049  59.763  0.00  0.00     0.178 C 
HETATM   17  C   UNK N   1      44.225  56.635  61.620  0.00  0.00     0.042 C 
HETATM   18  C   UNK N   1      43.429  58.484  58.291  0.00  0.00     0.183 C 
HETATM   19  C   UNK N   1      44.903  58.880  58.042  0.00  0.00     0.205 C 
BRANCH  16  20
HETATM   20  O   UNK N   1      41.940  57.595  60.000  0.00  0.00    -0.390 OA
HETATM   21  H   UNK N   1      41.748  57.730  60.966  0.00  0.00     0.210 HD
ENDBRANCH  16  20
BRANCH  18  22
HETATM   22  O   UNK N   1      42.584  59.561  57.981  0.00  0.00    -0.390 OA
HETATM   23  H   UNK N   1      42.897  60.335  58.520  0.00  0.00     0.210 HD
ENDBRANCH  18  22
BRANCH  19  24
HETATM   24  O   UNK N   1      45.230  60.016  58.802  0.00  0.00    -0.388 OA
HETATM   25  H   UNK N   1      46.189  60.207  58.634  0.00  0.00     0.210 HD
ENDBRANCH  19  24
ENDBRANCH  12  13
ENDBRANCH   6  12
BRANCH   3  26
HETATM   26  C   UNK N   1      48.069  55.329  59.338  0.00  0.00     0.001 A 
HETATM   27  C   UNK N   1      47.092  54.320  59.470  0.00  0.00     0.017 A 
HETATM   28  C   UNK N   1      46.774  53.786  60.719  0.00  0.00     0.037 A 
HETATM   29  C   UNK N   1      47.439  54.229  61.862  0.00  0.00     0.065 A 
HETATM   30  C   UNK N   1      48.423  55.222  61.750  0.00  0.00     0.037 A 
HETATM   31  C   UNK N   1      48.735  55.775  60.501  0.00  0.00     0.017 A 
BRANCH  29  32
HETATM   32  O   UNK N   1      47.131  53.690  63.060  0.00  0.00    -0.361 OA
HETATM   33  H   UNK N   1      46.231  53.411  63.278  0.00  0.00     0.217 HD
ENDBRANCH  29  32
ENDBRANCH   3  26
BRANCH   8  34
HETATM   34  O   UNK N   1      49.085  57.989  53.417  0.00  0.00    -0.360 OA
ATOM     35  HO  UNK N   1      48.858  58.027  52.496  1.00  0.00     0.217 HD
ENDBRANCH   8  34
BRANCH   7  36
HETATM   36  O   UNK N   1      51.202  53.768  53.138  0.00  0.00    -0.361 OA
HETATM   37  H   UNK N   1      51.445  52.903  53.500  0.00  0.00     0.217 HD
ENDBRANCH   7  36
TORSDOF 9
ENDMDL
MODEL 7
REMARK VINA RESULT:      -5.0      2.176      4.903
REMARK  9 active torsions:
REMARK  status: ('A' for Active; 'I' for Inactive)
REMARK    1  A    between atoms: O_3  and  C_15 
REMARK    2  A    between atoms: O_3  and  C_27 
REMARK    3  A    between atoms: O_4  and  C_16 
REMARK    4  A    between atoms: O_5  and  C_17 
REMARK    5  A    between atoms: O_7  and  C_28 
REMARK    6  A    between atoms: O_8  and  C_29 
REMARK    7  A    between atoms: O_9  and  C_30 
REMARK    8  A    between atoms: O_10  and  C_18 
REMARK    9  A    between atoms: C_12  and  C_20 
ROOT
HETATM    1  O   UNK N   1      28.091  39.765  53.484  0.00  0.00    -0.306 OA
HETATM    2  O   UNK N   1      27.191  42.488  56.214  0.00  0.00    -0.284 OA
HETATM    3  C   UNK N   1      28.315  39.442  54.757  0.00  0.00     0.124 A 
HETATM    4  C   UNK N   1      27.603  40.931  53.087  0.00  0.00     0.096 A 
HETATM    5  C   UNK N   1      27.473  41.643  55.385  0.00  0.00     0.223 A 
HETATM    6  C   UNK N   1      27.990  40.375  55.782  0.00  0.00     0.157 A 
HETATM    7  C   UNK N   1      26.891  42.381  51.274  0.00  0.00     0.071 A 
HETATM    8  C   UNK N   1      26.754  43.163  53.566  0.00  0.00     0.085 A 
HETATM    9  C   UNK N   1      27.278  41.926  54.023  0.00  0.00     0.084 A 
HETATM   10  C   UNK N   1      27.411  41.160  51.721  0.00  0.00     0.075 A 
HETATM   11  C   UNK N   1      26.567  43.376  52.197  0.00  0.00     0.074 A 
ENDROOT
BRANCH   6  12
HETATM   12  O   UNK N   1      28.116  40.016  57.100  0.00  0.00    -0.311 OA
BRANCH  12  13
HETATM   13  C   UNK N   1      29.292  40.117  57.833  0.00  0.00     0.298 C 
HETATM   14  O   UNK N   1      29.376  41.442  58.338  0.00  0.00    -0.351 OA
HETATM   15  C   UNK N   1      30.646  41.699  58.901  0.00  0.00     0.152 C 
HETATM   16  C   UNK N   1      30.891  40.767  60.115  0.00  0.00     0.178 C 
HETATM   17  C   UNK N   1      30.676  43.165  59.336  0.00  0.00     0.042 C 
HETATM   18  C   UNK N   1      30.707  39.291  59.697  0.00  0.00     0.183 C 
HETATM   19  C   UNK N   1      29.337  39.115  59.002  0.00  0.00     0.205 C 
BRANCH  16  20
HETATM   20  O   UNK N   1      32.166  40.981  60.669  0.00  0.00    -0.390 OA
HETATM   21  H   UNK N   1      32.038  41.274  61.610  0.00  0.00     0.210 HD
ENDBRANCH  16  20
BRANCH  18  22
HETATM   22  O   UNK N   1      30.793  38.442  60.812  0.00  0.00    -0.390 OA
HETATM   23  H   UNK N   1      31.621  38.692  61.299  0.00  0.00     0.210 HD
ENDBRANCH  18  22
BRANCH  19  24
HETATM   24  O   UNK N   1      28.299  39.371  59.914  0.00  0.00    -0.388 OA
HETATM   25  H   UNK N   1      28.325  40.342  60.113  0.00  0.00     0.210 HD
ENDBRANCH  19  24
ENDBRANCH  12  13
ENDBRANCH   6  12
BRANCH   3  26
HETATM   26  C   UNK N   1      28.862  38.071  55.004  0.00  0.00     0.001 A 
HETATM   27  C   UNK N   1      30.233  37.850  54.755  0.00  0.00     0.017 A 
HETATM   28  C   UNK N   1      30.812  36.600  54.977  0.00  0.00     0.037 A 
HETATM   29  C   UNK N   1      30.042  35.548  55.473  0.00  0.00     0.065 A 
HETATM   30  C   UNK N   1      28.680  35.751  55.739  0.00  0.00     0.037 A 
HETATM   31  C   UNK N   1      28.089  36.999  55.503  0.00  0.00     0.017 A 
BRANCH  29  32
HETATM   32  O   UNK N   1      30.621  34.350  55.696  0.00  0.00    -0.361 OA
HETATM   33  H   UNK N   1      31.262  34.218  56.408  0.00  0.00     0.217 HD
ENDBRANCH  29  32
ENDBRANCH   3  26
BRANCH   8  34
HETATM   34  O   UNK N   1      26.425  44.145  54.425  0.00  0.00    -0.360 OA
ATOM     35  HO  UNK N   1      26.269  43.967  55.344  1.00  0.00     0.217 HD
ENDBRANCH   8  34
BRANCH   7  36
HETATM   36  O   UNK N   1      26.700  42.607  49.959  0.00  0.00    -0.361 OA
HETATM   37  H   UNK N   1      27.382  42.402  49.304  0.00  0.00     0.217 HD
ENDBRANCH   7  36
TORSDOF 9
ENDMDL
MODEL 8
REMARK VINA RESULT:      -5.0      1.761      6.673
REMARK  9 active torsions:
REMARK  status: ('A' for Active; 'I' for Inactive)
REMARK    1  A    between atoms: O_3  and  C_15 
REMARK    2  A    between atoms: O_3  and  C_27 
REMARK    3  A    between atoms: O_4  and  C_16 
REMARK    4  A    between atoms: O_5  and  C_17 
REMARK    5  A    between atoms: O_7  and  C_28 
REMARK    6  A    between atoms: O_8  and  C_29 
REMARK    7  A    between atoms: O_9  and  C_30 
REMARK    8  A    between atoms: O_10  and  C_18 
REMARK    9  A    between atoms: C_12  and  C_20 
ROOT
HETATM    1  O   UNK N   1      29.746  40.310  58.124  0.00  0.00    -0.306 OA
HETATM    2  O   UNK N   1      29.149  38.568  54.619  0.00  0.00    -0.284 OA
HETATM    3  C   UNK N   1      29.752  41.097  57.048  0.00  0.00     0.124 A 
HETATM    4  C   UNK N   1      29.566  38.998  58.084  0.00  0.00     0.096 A 
HETATM    5  C   UNK N   1      29.335  39.116  55.689  0.00  0.00     0.223 A 
HETATM    6  C   UNK N   1      29.520  40.528  55.765  0.00  0.00     0.157 A 
HETATM    7  C   UNK N   1      29.390  36.885  59.267  0.00  0.00     0.071 A 
HETATM    8  C   UNK N   1      29.167  36.935  56.853  0.00  0.00     0.085 A 
HETATM    9  C   UNK N   1      29.359  38.342  56.861  0.00  0.00     0.084 A 
HETATM   10  C   UNK N   1      29.583  38.272  59.279  0.00  0.00     0.075 A 
HETATM   11  C   UNK N   1      29.184  36.224  58.056  0.00  0.00     0.074 A 
ENDROOT
BRANCH   6  12
HETATM   12  O   UNK N   1      29.418  41.339  54.663  0.00  0.00    -0.311 OA
BRANCH  12  13
HETATM   13  C   UNK N   1      28.319  41.377  53.814  0.00  0.00     0.298 C 
HETATM   14  O   UNK N   1      27.611  42.580  54.075  0.00  0.00    -0.351 OA
HETATM   15  C   UNK N   1      26.360  42.593  53.421  0.00  0.00     0.152 C 
HETATM   16  C   UNK N   1      26.557  42.543  51.884  0.00  0.00     0.178 C 
HETATM   17  C   UNK N   1      25.634  43.878  53.825  0.00  0.00     0.042 C 
HETATM   18  C   UNK N   1      27.423  41.322  51.500  0.00  0.00     0.183 C 
HETATM   19  C   UNK N   1      28.728  41.329  52.330  0.00  0.00     0.205 C 
BRANCH  16  20
HETATM   20  O   UNK N   1      25.321  42.518  51.214  0.00  0.00    -0.390 OA
HETATM   21  H   UNK N   1      25.129  41.572  50.977  0.00  0.00     0.210 HD
ENDBRANCH  16  20
BRANCH  18  22
HETATM   22  O   UNK N   1      27.725  41.334  50.130  0.00  0.00    -0.390 OA
HETATM   23  H   UNK N   1      28.708  41.457  50.054  0.00  0.00     0.210 HD
ENDBRANCH  18  22
BRANCH  19  24
HETATM   24  O   UNK N   1      29.505  42.450  51.993  0.00  0.00    -0.388 OA
HETATM   25  H   UNK N   1      30.244  42.495  52.654  0.00  0.00     0.210 HD
ENDBRANCH  19  24
ENDBRANCH  12  13
ENDBRANCH   6  12
BRANCH   3  26
HETATM   26  C   UNK N   1      29.961  42.558  57.300  0.00  0.00     0.001 A 
HETATM   27  C   UNK N   1      31.271  43.069  57.183  0.00  0.00     0.017 A 
HETATM   28  C   UNK N   1      31.535  44.423  57.391  0.00  0.00     0.037 A 
HETATM   29  C   UNK N   1      30.497  45.302  57.698  0.00  0.00     0.065 A 
HETATM   30  C   UNK N   1      29.186  44.816  57.805  0.00  0.00     0.037 A 
HETATM   31  C   UNK N   1      28.916  43.454  57.615  0.00  0.00     0.017 A 
BRANCH  29  32
HETATM   32  O   UNK N   1      30.768  46.611  57.880  0.00  0.00    -0.361 OA
HETATM   33  H   UNK N   1      30.909  46.986  58.760  0.00  0.00     0.217 HD
ENDBRANCH  29  32
ENDBRANCH   3  26
BRANCH   8  34
HETATM   34  O   UNK N   1      28.961  36.262  55.706  0.00  0.00    -0.360 OA
ATOM     35  HO  UNK N   1      29.329  36.562  54.884  1.00  0.00     0.217 HD
ENDBRANCH   8  34
BRANCH   7  36
HETATM   36  O   UNK N   1      29.400  36.179  60.416  0.00  0.00    -0.361 OA
HETATM   37  H   UNK N   1      28.581  35.897  60.846  0.00  0.00     0.217 HD
ENDBRANCH   7  36
TORSDOF 9
ENDMDL
MODEL 9
REMARK VINA RESULT:      -4.9      2.239      6.926
REMARK  9 active torsions:
REMARK  status: ('A' for Active; 'I' for Inactive)
REMARK    1  A    between atoms: O_3  and  C_15 
REMARK    2  A    between atoms: O_3  and  C_27 
REMARK    3  A    between atoms: O_4  and  C_16 
REMARK    4  A    between atoms: O_5  and  C_17 
REMARK    5  A    between atoms: O_7  and  C_28 
REMARK    6  A    between atoms: O_8  and  C_29 
REMARK    7  A    between atoms: O_9  and  C_30 
REMARK    8  A    between atoms: O_10  and  C_18 
REMARK    9  A    between atoms: C_12  and  C_20 
ROOT
HETATM    1  O   UNK N   1      29.119  37.563  55.148  0.00  0.00    -0.306 OA
HETATM    2  O   UNK N   1      28.682  37.849  59.073  0.00  0.00    -0.284 OA
HETATM    3  C   UNK N   1      29.030  38.791  55.659  0.00  0.00     0.124 A 
HETATM    4  C   UNK N   1      29.059  36.452  55.867  0.00  0.00     0.096 A 
HETATM    5  C   UNK N   1      28.815  37.776  57.866  0.00  0.00     0.223 A 
HETATM    6  C   UNK N   1      28.893  38.954  57.066  0.00  0.00     0.157 A 
HETATM    7  C   UNK N   1      29.108  34.026  55.958  0.00  0.00     0.071 A 
HETATM    8  C   UNK N   1      28.840  35.302  58.003  0.00  0.00     0.085 A 
HETATM    9  C   UNK N   1      28.897  36.511  57.260  0.00  0.00     0.084 A 
HETATM   10  C   UNK N   1      29.163  35.217  55.221  0.00  0.00     0.075 A 
HETATM   11  C   UNK N   1      28.946  34.075  57.343  0.00  0.00     0.074 A 
ENDROOT
BRANCH   6  12
HETATM   12  O   UNK N   1      28.907  40.211  57.616  0.00  0.00    -0.311 OA
BRANCH  12  13
HETATM   13  C   UNK N   1      30.016  40.795  58.214  0.00  0.00     0.298 C 
HETATM   14  O   UNK N   1      30.094  42.140  57.761  0.00  0.00    -0.351 OA
HETATM   15  C   UNK N   1      31.316  42.739  58.139  0.00  0.00     0.152 C 
HETATM   16  C   UNK N   1      31.426  42.806  59.683  0.00  0.00     0.178 C 
HETATM   17  C   UNK N   1      31.351  44.146  57.539  0.00  0.00     0.042 C 
HETATM   18  C   UNK N   1      31.236  41.397  60.290  0.00  0.00     0.183 C 
HETATM   19  C   UNK N   1      29.928  40.772  59.751  0.00  0.00     0.205 C 
BRANCH  16  20
HETATM   20  O   UNK N   1      32.653  43.366  60.081  0.00  0.00    -0.390 OA
HETATM   21  H   UNK N   1      32.451  44.194  60.593  0.00  0.00     0.210 HD
ENDBRANCH  16  20
BRANCH  18  22
HETATM   22  O   UNK N   1      31.198  41.457  61.692  0.00  0.00    -0.390 OA
HETATM   23  H   UNK N   1      31.365  40.535  62.022  0.00  0.00     0.210 HD
ENDBRANCH  18  22
BRANCH  19  24
HETATM   24  O   UNK N   1      28.822  41.516  60.196  0.00  0.00    -0.388 OA
HETATM   25  H   UNK N   1      28.100  40.864  60.396  0.00  0.00     0.210 HD
ENDBRANCH  19  24
ENDBRANCH  12  13
ENDBRANCH   6  12
BRANCH   3  26
HETATM   26  C   UNK N   1      29.130  39.922  54.683  0.00  0.00     0.001 A 
HETATM   27  C   UNK N   1      28.052  40.128  53.795  0.00  0.00     0.017 A 
HETATM   28  C   UNK N   1      28.073  41.171  52.869  0.00  0.00     0.037 A 
HETATM   29  C   UNK N   1      29.158  42.046  52.822  0.00  0.00     0.065 A 
HETATM   30  C   UNK N   1      30.233  41.866  53.704  0.00  0.00     0.037 A 
HETATM   31  C   UNK N   1      30.226  40.810  54.625  0.00  0.00     0.017 A 
BRANCH  29  32
HETATM   32  O   UNK N   1      29.155  43.058  51.930  0.00  0.00    -0.361 OA
HETATM   33  H   UNK N   1      28.493  43.118  51.228  0.00  0.00     0.217 HD
ENDBRANCH  29  32
ENDBRANCH   3  26
BRANCH   8  34
HETATM   34  O   UNK N   1      28.689  35.307  59.340  0.00  0.00    -0.360 OA
ATOM     35  HO  UNK N   1      28.961  34.569  59.871  1.00  0.00     0.217 HD
ENDBRANCH   8  34
BRANCH   7  36
HETATM   36  O   UNK N   1      29.211  32.832  55.342  0.00  0.00    -0.361 OA
HETATM   37  H   UNK N   1      29.647  32.078  55.764  0.00  0.00     0.217 HD
ENDBRANCH   7  36
TORSDOF 9
ENDMDL
