MODEL 1
REMARK VINA RESULT:      -5.9      0.000      0.000
REMARK  5 active torsions:
REMARK  status: ('A' for Active; 'I' for Inactive)
REMARK    1  A    between atoms: O_2  and  C_12 
REMARK    2  A    between atoms: O_2  and  C_20 
REMARK    3  A    between atoms: O_3  and  C_13 
REMARK    4  A    between atoms: O_3  and  C_21 
REMARK    5  A    between atoms: C_10  and  C_14 
ROOT
HETATM    1  O   UNK N   1      32.549  43.285  61.461  0.00  0.00    -0.265 OA
HETATM    2  O   UNK N   1      31.208  43.931  59.816  0.00  0.00    -0.310 OA
HETATM    3  C   UNK N   1      30.951  40.901  59.664  0.00  0.00     0.150 C 
HETATM    4  C   UNK N   1      28.687  41.696  55.968  0.00  0.00     0.145 C 
HETATM    5  C   UNK N   1      27.454  37.024  55.805  0.00  0.00     0.036 C 
HETATM    6  C   UNK N   1      29.707  41.549  58.877  0.00  0.00    -0.005 C 
HETATM    7  C   UNK N   1      28.002  40.689  56.942  0.00  0.00     0.011 C 
HETATM    8  C   UNK N   1      29.043  40.334  58.069  0.00  0.00     0.012 C 
HETATM    9  C   UNK N   1      27.340  38.083  56.956  0.00  0.00    -0.012 C 
HETATM   10  C   UNK N   1      30.226  42.648  57.852  0.00  0.00     0.034 C 
HETATM   11  C   UNK N   1      32.032  43.028  60.387  0.00  0.00     0.262 C 
HETATM   12  C   UNK N   1      30.782  44.025  58.495  0.00  0.00     0.068 C 
HETATM   13  C   UNK N   1      27.654  39.361  56.219  0.00  0.00    -0.063 C 
HETATM   14  C   UNK N   1      29.205  42.951  56.708  0.00  0.00     0.042 C 
HETATM   15  C   UNK N   1      32.264  41.713  59.755  0.00  0.00     0.144 C 
HETATM   16  C   UNK N   1      27.083  37.818  54.537  0.00  0.00     0.038 C 
HETATM   17  C   UNK N   1      28.508  39.160  58.970  0.00  0.00     0.007 C 
HETATM   18  C   UNK N   1      28.326  37.876  58.134  0.00  0.00     0.015 C 
HETATM   19  C   UNK N   1      28.701  42.178  59.886  0.00  0.00     0.019 C 
HETATM   20  C   UNK N   1      26.661  41.301  57.442  0.00  0.00     0.023 C 
HETATM   21  C   UNK N   1      25.882  38.072  57.473  0.00  0.00     0.021 C 
HETATM   22  C   UNK N   1      27.514  39.200  54.899  0.00  0.00    -0.022 C 
HETATM   23  C   UNK N   1      31.959  44.550  57.641  0.00  0.00     0.047 C 
HETATM   24  C   UNK N   1      29.723  45.155  58.536  0.00  0.00     0.047 C 
ENDROOT
BRANCH   5  25
HETATM   25  C   UNK N   1      28.848  36.431  55.620  0.00  0.00    -0.029 A 
HETATM   26  C   UNK N   1      29.237  35.175  56.052  0.00  0.00     0.148 A 
HETATM   27  O   UNK N   1      30.496  34.978  55.734  0.00  0.00    -0.334 OA
HETATM   28  C   UNK N   1      30.959  36.041  55.113  0.00  0.00     0.142 A 
HETATM   29  C   UNK N   1      29.958  36.987  55.012  0.00  0.00     0.034 A 
ENDBRANCH   5  25
BRANCH   4  30
HETATM   30  O   UNK N   1      29.740  41.068  55.319  0.00  0.00    -0.315 OA
BRANCH  30  31
HETATM   31  C   UNK N   1      30.402  41.587  54.253  0.00  0.00     0.255 C 
HETATM   32  O   UNK N   1      31.613  41.728  54.270  0.00  0.00    -0.266 OA
HETATM   33  C   UNK N   1      29.616  42.015  53.057  0.00  0.00     0.126 C 
ENDBRANCH  30  31
ENDBRANCH   4  30
BRANCH   3  34
HETATM   34  O   UNK N   1      30.543  40.494  60.928  0.00  0.00    -0.315 OA
BRANCH  34  35
HETATM   35  C   UNK N   1      30.681  39.239  61.433  0.00  0.00     0.255 C 
HETATM   36  O   UNK N   1      30.149  38.920  62.481  0.00  0.00    -0.266 OA
HETATM   37  C   UNK N   1      31.522  38.256  60.688  0.00  0.00     0.126 C 
ENDBRANCH  34  35
ENDBRANCH   3  34
TORSDOF 5
ENDMDL
MODEL 2
REMARK VINA RESULT:      -5.7      4.691      9.494
REMARK  5 active torsions:
REMARK  status: ('A' for Active; 'I' for Inactive)
REMARK    1  A    between atoms: O_2  and  C_12 
REMARK    2  A    between atoms: O_2  and  C_20 
REMARK    3  A    between atoms: O_3  and  C_13 
REMARK    4  A    between atoms: O_3  and  C_21 
REMARK    5  A    between atoms: C_10  and  C_14 
ROOT
HETATM    1  O   UNK N   1      27.665  47.043  57.676  0.00  0.00    -0.265 OA
HETATM    2  O   UNK N   1      28.325  45.058  58.417  0.00  0.00    -0.310 OA
HETATM    3  C   UNK N   1      30.161  46.933  59.961  0.00  0.00     0.150 C 
HETATM    4  C   UNK N   1      32.171  43.227  61.248  0.00  0.00     0.145 C 
HETATM    5  C   UNK N   1      34.784  45.820  64.383  0.00  0.00     0.036 C 
HETATM    6  C   UNK N   1      30.162  45.507  60.705  0.00  0.00    -0.005 C 
HETATM    7  C   UNK N   1      31.857  44.227  62.403  0.00  0.00     0.011 C 
HETATM    8  C   UNK N   1      31.378  45.577  61.747  0.00  0.00     0.012 C 
HETATM    9  C   UNK N   1      33.236  45.747  64.139  0.00  0.00    -0.012 C 
HETATM   10  C   UNK N   1      30.430  44.345  59.652  0.00  0.00     0.034 C 
HETATM   11  C   UNK N   1      28.561  46.356  58.138  0.00  0.00     0.262 C 
HETATM   12  C   UNK N   1      29.228  44.020  58.619  0.00  0.00     0.068 C 
HETATM   13  C   UNK N   1      33.134  44.556  63.221  0.00  0.00    -0.063 C 
HETATM   14  C   UNK N   1      30.956  43.029  60.311  0.00  0.00     0.042 C 
HETATM   15  C   UNK N   1      29.872  46.967  58.443  0.00  0.00     0.144 C 
HETATM   16  C   UNK N   1      35.249  44.358  64.233  0.00  0.00     0.038 C 
HETATM   17  C   UNK N   1      31.249  46.707  62.834  0.00  0.00     0.007 C 
HETATM   18  C   UNK N   1      32.620  47.004  63.473  0.00  0.00     0.015 C 
HETATM   19  C   UNK N   1      28.803  45.279  61.431  0.00  0.00     0.019 C 
HETATM   20  C   UNK N   1      30.844  43.566  63.382  0.00  0.00     0.023 C 
HETATM   21  C   UNK N   1      32.551  45.474  65.499  0.00  0.00     0.021 C 
HETATM   22  C   UNK N   1      34.241  43.808  63.279  0.00  0.00    -0.022 C 
HETATM   23  C   UNK N   1      29.825  43.623  57.249  0.00  0.00     0.047 C 
HETATM   24  C   UNK N   1      28.331  42.841  59.072  0.00  0.00     0.047 C 
ENDROOT
BRANCH   5  25
HETATM   25  C   UNK N   1      35.547  46.681  63.380  0.00  0.00    -0.029 A 
HETATM   26  C   UNK N   1      35.519  48.063  63.342  0.00  0.00     0.148 A 
HETATM   27  O   UNK N   1      36.284  48.486  62.361  0.00  0.00    -0.334 OA
HETATM   28  C   UNK N   1      36.818  47.451  61.750  0.00  0.00     0.142 A 
HETATM   29  C   UNK N   1      36.388  46.287  62.355  0.00  0.00     0.034 A 
ENDBRANCH   5  25
BRANCH   4  30
HETATM   30  O   UNK N   1      33.254  43.692  60.517  0.00  0.00    -0.315 OA
BRANCH  30  31
HETATM   31  C   UNK N   1      33.987  42.929  59.664  0.00  0.00     0.255 C 
HETATM   32  O   UNK N   1      34.604  43.431  58.740  0.00  0.00    -0.266 OA
HETATM   33  C   UNK N   1      34.006  41.449  59.859  0.00  0.00     0.126 C 
ENDBRANCH  30  31
ENDBRANCH   4  30
BRANCH   3  34
HETATM   34  O   UNK N   1      29.322  47.810  60.635  0.00  0.00    -0.315 OA
BRANCH  34  35
HETATM   35  C   UNK N   1      29.485  49.159  60.703  0.00  0.00     0.255 C 
HETATM   36  O   UNK N   1      29.507  49.842  59.694  0.00  0.00    -0.266 OA
HETATM   37  C   UNK N   1      29.665  49.792  62.042  0.00  0.00     0.126 C 
ENDBRANCH  34  35
ENDBRANCH   3  34
TORSDOF 5
ENDMDL
MODEL 3
REMARK VINA RESULT:      -5.4     21.432     24.972
REMARK  5 active torsions:
REMARK  status: ('A' for Active; 'I' for Inactive)
REMARK    1  A    between atoms: O_2  and  C_12 
REMARK    2  A    between atoms: O_2  and  C_20 
REMARK    3  A    between atoms: O_3  and  C_13 
REMARK    4  A    between atoms: O_3  and  C_21 
REMARK    5  A    between atoms: C_10  and  C_14 
ROOT
HETATM    1  O   UNK N   1      48.762  56.256  56.460  0.00  0.00    -0.265 OA
HETATM    2  O   UNK N   1      49.353  55.411  58.424  0.00  0.00    -0.310 OA
HETATM    3  C   UNK N   1      50.468  53.332  56.499  0.00  0.00     0.150 C 
HETATM    4  C   UNK N   1      51.313  51.014  60.152  0.00  0.00     0.145 C 
HETATM    5  C   UNK N   1      53.817  47.856  57.481  0.00  0.00     0.036 C 
HETATM    6  C   UNK N   1      51.200  53.143  57.920  0.00  0.00    -0.005 C 
HETATM    7  C   UNK N   1      52.505  51.099  59.150  0.00  0.00     0.011 C 
HETATM    8  C   UNK N   1      51.961  51.736  57.815  0.00  0.00     0.012 C 
HETATM    9  C   UNK N   1      53.906  49.419  57.588  0.00  0.00    -0.012 C 
HETATM   10  C   UNK N   1      50.117  53.077  59.083  0.00  0.00     0.034 C 
HETATM   11  C   UNK N   1      49.026  55.268  57.123  0.00  0.00     0.262 C 
HETATM   12  C   UNK N   1      49.362  54.462  59.441  0.00  0.00     0.068 C 
HETATM   13  C   UNK N   1      53.034  49.687  58.789  0.00  0.00    -0.063 C 
HETATM   14  C   UNK N   1      50.654  52.395  60.383  0.00  0.00     0.042 C 
HETATM   15  C   UNK N   1      49.045  53.936  56.483  0.00  0.00     0.144 C 
HETATM   16  C   UNK N   1      53.577  47.402  58.934  0.00  0.00     0.038 C 
HETATM   17  C   UNK N   1      53.047  51.658  56.680  0.00  0.00     0.007 C 
HETATM   18  C   UNK N   1      53.381  50.190  56.350  0.00  0.00     0.015 C 
HETATM   19  C   UNK N   1      52.197  54.313  58.171  0.00  0.00     0.019 C 
HETATM   20  C   UNK N   1      53.678  51.868  59.825  0.00  0.00     0.023 C 
HETATM   21  C   UNK N   1      55.381  49.795  57.865  0.00  0.00     0.021 C 
HETATM   22  C   UNK N   1      52.859  48.575  59.512  0.00  0.00    -0.022 C 
HETATM   23  C   UNK N   1      47.898  54.160  59.836  0.00  0.00     0.047 C 
HETATM   24  C   UNK N   1      49.998  55.218  60.635  0.00  0.00     0.047 C 
ENDROOT
BRANCH   5  25
HETATM   25  C   UNK N   1      52.673  47.342  56.611  0.00  0.00    -0.029 A 
HETATM   26  C   UNK N   1      52.814  46.442  55.570  0.00  0.00     0.148 A 
HETATM   27  O   UNK N   1      51.637  46.212  55.034  0.00  0.00    -0.334 OA
HETATM   28  C   UNK N   1      50.725  46.913  55.671  0.00  0.00     0.142 A 
HETATM   29  C   UNK N   1      51.325  47.642  56.678  0.00  0.00     0.034 A 
ENDBRANCH   5  25
BRANCH   4  30
HETATM   30  O   UNK N   1      50.368  50.121  59.670  0.00  0.00    -0.315 OA
BRANCH  30  31
HETATM   31  C   UNK N   1      49.480  49.450  60.450  0.00  0.00     0.255 C 
HETATM   32  O   UNK N   1      49.858  48.672  61.310  0.00  0.00    -0.266 OA
HETATM   33  C   UNK N   1      48.020  49.657  60.220  0.00  0.00     0.126 C 
ENDBRANCH  30  31
ENDBRANCH   4  30
BRANCH   3  34
HETATM   34  O   UNK N   1      51.302  54.029  55.635  0.00  0.00    -0.315 OA
BRANCH  34  35
HETATM   35  C   UNK N   1      51.291  53.926  54.279  0.00  0.00     0.255 C 
HETATM   36  O   UNK N   1      52.073  53.197  53.696  0.00  0.00    -0.266 OA
HETATM   37  C   UNK N   1      50.313  54.748  53.506  0.00  0.00     0.126 C 
ENDBRANCH  34  35
ENDBRANCH   3  34
TORSDOF 5
ENDMDL
MODEL 4
REMARK VINA RESULT:      -5.4      1.793      7.333
REMARK  5 active torsions:
REMARK  status: ('A' for Active; 'I' for Inactive)
REMARK    1  A    between atoms: O_2  and  C_12 
REMARK    2  A    between atoms: O_2  and  C_20 
REMARK    3  A    between atoms: O_3  and  C_13 
REMARK    4  A    between atoms: O_3  and  C_21 
REMARK    5  A    between atoms: C_10  and  C_14 
ROOT
HETATM    1  O   UNK N   1      28.470  36.835  53.119  0.00  0.00    -0.265 OA
HETATM    2  O   UNK N   1      28.114  36.372  55.260  0.00  0.00    -0.310 OA
HETATM    3  C   UNK N   1      29.475  39.090  55.436  0.00  0.00     0.150 C 
HETATM    4  C   UNK N   1      29.510  38.324  59.776  0.00  0.00     0.145 C 
HETATM    5  C   UNK N   1      30.990  42.871  60.493  0.00  0.00     0.036 C 
HETATM    6  C   UNK N   1      28.724  38.814  56.832  0.00  0.00    -0.005 C 
HETATM    7  C   UNK N   1      28.996  39.741  59.374  0.00  0.00     0.011 C 
HETATM    8  C   UNK N   1      29.283  39.932  57.836  0.00  0.00     0.012 C 
HETATM    9  C   UNK N   1      29.783  42.294  59.673  0.00  0.00    -0.012 C 
HETATM   10  C   UNK N   1      29.106  37.370  57.377  0.00  0.00     0.034 C 
HETATM   11  C   UNK N   1      28.812  36.983  54.280  0.00  0.00     0.262 C 
HETATM   12  C   UNK N   1      28.484  36.111  56.575  0.00  0.00     0.068 C 
HETATM   13  C   UNK N   1      29.782  40.853  60.117  0.00  0.00    -0.063 C 
HETATM   14  C   UNK N   1      28.867  37.212  58.914  0.00  0.00     0.042 C 
HETATM   15  C   UNK N   1      29.945  37.874  54.605  0.00  0.00     0.144 C 
HETATM   16  C   UNK N   1      31.033  41.988  61.755  0.00  0.00     0.038 C 
HETATM   17  C   UNK N   1      28.993  41.415  57.398  0.00  0.00     0.007 C 
HETATM   18  C   UNK N   1      29.933  42.391  58.134  0.00  0.00     0.015 C 
HETATM   19  C   UNK N   1      27.183  38.935  56.646  0.00  0.00     0.019 C 
HETATM   20  C   UNK N   1      27.504  39.876  59.795  0.00  0.00     0.023 C 
HETATM   21  C   UNK N   1      28.501  43.027  60.132  0.00  0.00     0.021 C 
HETATM   22  C   UNK N   1      30.472  40.699  61.253  0.00  0.00    -0.022 C 
HETATM   23  C   UNK N   1      29.505  34.951  56.571  0.00  0.00     0.047 C 
HETATM   24  C   UNK N   1      27.185  35.557  57.213  0.00  0.00     0.047 C 
ENDROOT
BRANCH   5  25
HETATM   25  C   UNK N   1      32.341  42.780  59.787  0.00  0.00    -0.029 A 
HETATM   26  C   UNK N   1      32.736  43.581  58.730  0.00  0.00     0.148 A 
HETATM   27  O   UNK N   1      33.950  43.243  58.361  0.00  0.00    -0.334 OA
HETATM   28  C   UNK N   1      34.378  42.260  59.122  0.00  0.00     0.142 A 
HETATM   29  C   UNK N   1      33.401  41.931  60.041  0.00  0.00     0.034 A 
ENDBRANCH   5  25
BRANCH   4  30
HETATM   30  O   UNK N   1      30.890  38.279  59.645  0.00  0.00    -0.315 OA
BRANCH  30  31
HETATM   31  C   UNK N   1      31.738  37.847  60.615  0.00  0.00     0.255 C 
HETATM   32  O   UNK N   1      32.927  38.116  60.579  0.00  0.00    -0.266 OA
HETATM   33  C   UNK N   1      31.195  37.005  61.722  0.00  0.00     0.126 C 
ENDBRANCH  30  31
ENDBRANCH   4  30
BRANCH   3  34
HETATM   34  O   UNK N   1      28.709  39.945  54.655  0.00  0.00    -0.315 OA
BRANCH  34  35
HETATM   35  C   UNK N   1      29.197  40.949  53.877  0.00  0.00     0.255 C 
HETATM   36  O   UNK N   1      28.590  41.335  52.894  0.00  0.00    -0.266 OA
HETATM   37  C   UNK N   1      30.512  41.558  54.236  0.00  0.00     0.126 C 
ENDBRANCH  34  35
ENDBRANCH   3  34
TORSDOF 5
ENDMDL
MODEL 5
REMARK VINA RESULT:      -5.2      2.831      8.054
REMARK  5 active torsions:
REMARK  status: ('A' for Active; 'I' for Inactive)
REMARK    1  A    between atoms: O_2  and  C_12 
REMARK    2  A    between atoms: O_2  and  C_20 
REMARK    3  A    between atoms: O_3  and  C_13 
REMARK    4  A    between atoms: O_3  and  C_21 
REMARK    5  A    between atoms: C_10  and  C_14 
ROOT
HETATM    1  O   UNK N   1      26.605  40.276  53.135  0.00  0.00    -0.265 OA
HETATM    2  O   UNK N   1      27.865  39.859  54.914  0.00  0.00    -0.310 OA
HETATM    3  C   UNK N   1      27.178  42.797  55.321  0.00  0.00     0.150 C 
HETATM    4  C   UNK N   1      30.077  42.583  58.634  0.00  0.00     0.145 C 
HETATM    5  C   UNK N   1      28.696  47.002  60.030  0.00  0.00     0.036 C 
HETATM    6  C   UNK N   1      27.679  42.200  56.728  0.00  0.00    -0.005 C 
HETATM    7  C   UNK N   1      28.723  43.264  59.003  0.00  0.00     0.011 C 
HETATM    8  C   UNK N   1      27.918  43.479  57.665  0.00  0.00     0.012 C 
HETATM    9  C   UNK N   1      27.864  45.708  59.722  0.00  0.00    -0.012 C 
HETATM   10  C   UNK N   1      29.052  41.422  56.530  0.00  0.00     0.034 C 
HETATM   11  C   UNK N   1      27.370  40.702  53.984  0.00  0.00     0.262 C 
HETATM   12  C   UNK N   1      28.971  40.011  55.743  0.00  0.00     0.068 C 
HETATM   13  C   UNK N   1      28.953  44.670  59.617  0.00  0.00    -0.063 C 
HETATM   14  C   UNK N   1      29.864  41.264  57.855  0.00  0.00     0.042 C 
HETATM   15  C   UNK N   1      27.698  42.142  54.020  0.00  0.00     0.144 C 
HETATM   16  C   UNK N   1      29.943  46.470  60.764  0.00  0.00     0.038 C 
HETATM   17  C   UNK N   1      26.637  44.355  57.922  0.00  0.00     0.007 C 
HETATM   18  C   UNK N   1      27.033  45.762  58.415  0.00  0.00     0.015 C 
HETATM   19  C   UNK N   1      26.598  41.252  57.325  0.00  0.00     0.019 C 
HETATM   20  C   UNK N   1      28.002  42.406  60.082  0.00  0.00     0.023 C 
HETATM   21  C   UNK N   1      26.938  45.436  60.932  0.00  0.00     0.021 C 
HETATM   22  C   UNK N   1      30.084  45.101  60.186  0.00  0.00    -0.022 C 
HETATM   23  C   UNK N   1      30.246  39.827  54.889  0.00  0.00     0.047 C 
HETATM   24  C   UNK N   1      28.887  38.785  56.687  0.00  0.00     0.047 C 
ENDROOT
BRANCH   5  25
HETATM   25  C   UNK N   1      29.148  47.778  58.796  0.00  0.00    -0.029 A 
HETATM   26  C   UNK N   1      28.561  48.942  58.335  0.00  0.00     0.148 A 
HETATM   27  O   UNK N   1      29.191  49.349  57.257  0.00  0.00    -0.334 OA
HETATM   28  C   UNK N   1      30.167  48.511  56.982  0.00  0.00     0.142 A 
HETATM   29  C   UNK N   1      30.185  47.502  57.925  0.00  0.00     0.034 A 
ENDBRANCH   5  25
BRANCH   4  30
HETATM   30  O   UNK N   1      30.841  43.456  57.875  0.00  0.00    -0.315 OA
BRANCH  30  31
HETATM   31  C   UNK N   1      32.138  43.239  57.532  0.00  0.00     0.255 C 
HETATM   32  O   UNK N   1      32.483  43.201  56.363  0.00  0.00    -0.266 OA
HETATM   33  C   UNK N   1      33.141  43.018  58.616  0.00  0.00     0.126 C 
ENDBRANCH  30  31
ENDBRANCH   4  30
BRANCH   3  34
HETATM   34  O   UNK N   1      25.791  42.864  55.310  0.00  0.00    -0.315 OA
BRANCH  34  35
HETATM   35  C   UNK N   1      25.038  43.397  54.311  0.00  0.00     0.255 C 
HETATM   36  O   UNK N   1      25.222  44.536  53.921  0.00  0.00    -0.266 OA
HETATM   37  C   UNK N   1      23.954  42.565  53.710  0.00  0.00     0.126 C 
ENDBRANCH  34  35
ENDBRANCH   3  34
TORSDOF 5
ENDMDL
MODEL 6
REMARK VINA RESULT:      -5.0     17.370     21.899
REMARK  5 active torsions:
REMARK  status: ('A' for Active; 'I' for Inactive)
REMARK    1  A    between atoms: O_2  and  C_12 
REMARK    2  A    between atoms: O_2  and  C_20 
REMARK    3  A    between atoms: O_3  and  C_13 
REMARK    4  A    between atoms: O_3  and  C_21 
REMARK    5  A    between atoms: C_10  and  C_14 
ROOT
HETATM    1  O   UNK N   1      44.798  59.683  58.332  0.00  0.00    -0.265 OA
HETATM    2  O   UNK N   1      43.821  59.723  60.324  0.00  0.00    -0.310 OA
HETATM    3  C   UNK N   1      44.731  56.823  60.143  0.00  0.00     0.150 C 
HETATM    4  C   UNK N   1      42.400  56.299  63.847  0.00  0.00     0.145 C 
HETATM    5  C   UNK N   1      44.238  51.848  64.287  0.00  0.00     0.036 C 
HETATM    6  C   UNK N   1      44.431  57.158  61.687  0.00  0.00    -0.005 C 
HETATM    7  C   UNK N   1      43.832  55.683  63.892  0.00  0.00     0.011 C 
HETATM    8  C   UNK N   1      44.420  55.738  62.431  0.00  0.00     0.012 C 
HETATM    9  C   UNK N   1      44.934  53.237  64.069  0.00  0.00    -0.012 C 
HETATM   10  C   UNK N   1      43.002  57.843  61.827  0.00  0.00     0.034 C 
HETATM   11  C   UNK N   1      44.206  59.073  59.206  0.00  0.00     0.262 C 
HETATM   12  C   UNK N   1      42.874  59.358  61.275  0.00  0.00     0.068 C 
HETATM   13  C   UNK N   1      43.785  54.187  64.299  0.00  0.00    -0.063 C 
HETATM   14  C   UNK N   1      42.407  57.733  63.268  0.00  0.00     0.042 C 
HETATM   15  C   UNK N   1      43.971  57.621  59.059  0.00  0.00     0.144 C 
HETATM   16  C   UNK N   1      43.097  52.160  65.276  0.00  0.00     0.038 C 
HETATM   17  C   UNK N   1      45.774  54.941  62.347  0.00  0.00     0.007 C 
HETATM   18  C   UNK N   1      45.544  53.449  62.660  0.00  0.00     0.015 C 
HETATM   19  C   UNK N   1      45.539  58.092  62.260  0.00  0.00     0.019 C 
HETATM   20  C   UNK N   1      44.668  56.425  64.974  0.00  0.00     0.023 C 
HETATM   21  C   UNK N   1      46.026  53.399  65.153  0.00  0.00     0.021 C 
HETATM   22  C   UNK N   1      42.787  53.584  64.955  0.00  0.00    -0.022 C 
HETATM   23  C   UNK N   1      41.469  59.563  60.664  0.00  0.00     0.047 C 
HETATM   24  C   UNK N   1      43.040  60.431  62.381  0.00  0.00     0.047 C 
ENDROOT
BRANCH   5  25
HETATM   25  C   UNK N   1      43.637  51.232  63.026  0.00  0.00    -0.029 A 
HETATM   26  C   UNK N   1      44.321  50.420  62.140  0.00  0.00     0.148 A 
HETATM   27  O   UNK N   1      43.514  50.062  61.168  0.00  0.00    -0.334 OA
HETATM   28  C   UNK N   1      42.329  50.596  61.368  0.00  0.00     0.142 A 
HETATM   29  C   UNK N   1      42.352  51.343  62.530  0.00  0.00     0.034 A 
ENDBRANCH   5  25
BRANCH   4  30
HETATM   30  O   UNK N   1      41.573  55.490  63.081  0.00  0.00    -0.315 OA
BRANCH  30  31
HETATM   31  C   UNK N   1      40.255  55.283  63.335  0.00  0.00     0.255 C 
HETATM   32  O   UNK N   1      39.513  54.823  62.483  0.00  0.00    -0.266 OA
HETATM   33  C   UNK N   1      39.713  55.655  64.676  0.00  0.00     0.126 C 
ENDBRANCH  30  31
ENDBRANCH   4  30
BRANCH   3  34
HETATM   34  O   UNK N   1      46.099  56.872  59.912  0.00  0.00    -0.315 OA
BRANCH  34  35
HETATM   35  C   UNK N   1      46.756  56.196  58.932  0.00  0.00     0.255 C 
HETATM   36  O   UNK N   1      46.990  55.005  59.035  0.00  0.00    -0.266 OA
HETATM   37  C   UNK N   1      47.213  56.948  57.726  0.00  0.00     0.126 C 
ENDBRANCH  34  35
ENDBRANCH   3  34
TORSDOF 5
ENDMDL
MODEL 7
REMARK VINA RESULT:      -5.0      2.474      4.846
REMARK  5 active torsions:
REMARK  status: ('A' for Active; 'I' for Inactive)
REMARK    1  A    between atoms: O_2  and  C_12 
REMARK    2  A    between atoms: O_2  and  C_20 
REMARK    3  A    between atoms: O_3  and  C_13 
REMARK    4  A    between atoms: O_3  and  C_21 
REMARK    5  A    between atoms: C_10  and  C_14 
ROOT
HETATM    1  O   UNK N   1      30.855  44.136  61.383  0.00  0.00    -0.265 OA
HETATM    2  O   UNK N   1      28.949  43.018  61.186  0.00  0.00    -0.310 OA
HETATM    3  C   UNK N   1      30.018  42.919  58.337  0.00  0.00     0.150 C 
HETATM    4  C   UNK N   1      26.087  41.174  57.369  0.00  0.00     0.145 C 
HETATM    5  C   UNK N   1      27.705  40.183  52.921  0.00  0.00     0.036 C 
HETATM    6  C   UNK N   1      28.899  41.773  58.492  0.00  0.00    -0.005 C 
HETATM    7  C   UNK N   1      27.303  40.401  56.770  0.00  0.00     0.011 C 
HETATM    8  C   UNK N   1      28.588  41.286  56.997  0.00  0.00     0.012 C 
HETATM    9  C   UNK N   1      28.304  39.860  54.334  0.00  0.00    -0.012 C 
HETATM   10  C   UNK N   1      27.581  42.385  59.138  0.00  0.00     0.034 C 
HETATM   11  C   UNK N   1      29.927  43.790  60.671  0.00  0.00     0.262 C 
HETATM   12  C   UNK N   1      27.665  42.782  60.704  0.00  0.00     0.068 C 
HETATM   13  C   UNK N   1      27.151  40.220  55.237  0.00  0.00    -0.063 C 
HETATM   14  C   UNK N   1      26.306  41.526  58.859  0.00  0.00     0.042 C 
HETATM   15  C   UNK N   1      29.917  44.168  59.242  0.00  0.00     0.144 C 
HETATM   16  C   UNK N   1      26.190  39.963  53.104  0.00  0.00     0.038 C 
HETATM   17  C   UNK N   1      29.821  40.679  56.232  0.00  0.00     0.007 C 
HETATM   18  C   UNK N   1      29.567  40.675  54.711  0.00  0.00     0.015 C 
HETATM   19  C   UNK N   1      29.444  40.606  59.369  0.00  0.00     0.019 C 
HETATM   20  C   UNK N   1      27.355  38.978  57.396  0.00  0.00     0.023 C 
HETATM   21  C   UNK N   1      28.611  38.344  54.387  0.00  0.00     0.021 C 
HETATM   22  C   UNK N   1      26.003  40.277  54.551  0.00  0.00    -0.022 C 
HETATM   23  C   UNK N   1      26.811  44.045  60.959  0.00  0.00     0.047 C 
HETATM   24  C   UNK N   1      27.122  41.679  61.647  0.00  0.00     0.047 C 
ENDROOT
BRANCH   5  25
HETATM   25  C   UNK N   1      27.938  41.615  52.443  0.00  0.00    -0.029 A 
HETATM   26  C   UNK N   1      28.959  42.010  51.599  0.00  0.00     0.148 A 
HETATM   27  O   UNK N   1      28.871  43.303  51.388  0.00  0.00    -0.334 OA
HETATM   28  C   UNK N   1      27.841  43.783  52.050  0.00  0.00     0.142 A 
HETATM   29  C   UNK N   1      27.215  42.757  52.731  0.00  0.00     0.034 A 
ENDBRANCH   5  25
BRANCH   4  30
HETATM   30  O   UNK N   1      25.875  42.336  56.640  0.00  0.00    -0.315 OA
BRANCH  30  31
HETATM   31  C   UNK N   1      24.742  43.082  56.703  0.00  0.00     0.255 C 
HETATM   32  O   UNK N   1      24.765  44.231  57.111  0.00  0.00    -0.266 OA
HETATM   33  C   UNK N   1      23.448  42.462  56.287  0.00  0.00     0.126 C 
ENDBRANCH  30  31
ENDBRANCH   4  30
BRANCH   3  34
HETATM   34  O   UNK N   1      31.282  42.352  58.429  0.00  0.00    -0.315 OA
BRANCH  34  35
HETATM   35  C   UNK N   1      32.442  42.950  58.044  0.00  0.00     0.255 C 
HETATM   36  O   UNK N   1      32.565  43.428  56.931  0.00  0.00    -0.266 OA
HETATM   37  C   UNK N   1      33.580  42.990  59.008  0.00  0.00     0.126 C 
ENDBRANCH  34  35
ENDBRANCH   3  34
TORSDOF 5
ENDMDL
MODEL 8
REMARK VINA RESULT:      -4.8      4.863     10.552
REMARK  5 active torsions:
REMARK  status: ('A' for Active; 'I' for Inactive)
REMARK    1  A    between atoms: O_2  and  C_12 
REMARK    2  A    between atoms: O_2  and  C_20 
REMARK    3  A    between atoms: O_3  and  C_13 
REMARK    4  A    between atoms: O_3  and  C_21 
REMARK    5  A    between atoms: C_10  and  C_14 
ROOT
HETATM    1  O   UNK N   1      30.005  43.741  57.240  0.00  0.00    -0.265 OA
HETATM    2  O   UNK N   1      30.885  42.802  59.047  0.00  0.00    -0.310 OA
HETATM    3  C   UNK N   1      30.804  45.737  59.855  0.00  0.00     0.150 C 
HETATM    4  C   UNK N   1      33.098  44.399  63.373  0.00  0.00     0.145 C 
HETATM    5  C   UNK N   1      32.533  48.789  65.320  0.00  0.00     0.036 C 
HETATM    6  C   UNK N   1      30.964  44.855  61.190  0.00  0.00    -0.005 C 
HETATM    7  C   UNK N   1      31.887  45.325  63.704  0.00  0.00     0.011 C 
HETATM    8  C   UNK N   1      31.343  45.902  62.343  0.00  0.00     0.012 C 
HETATM    9  C   UNK N   1      31.490  47.782  64.719  0.00  0.00    -0.012 C 
HETATM   10  C   UNK N   1      32.148  43.808  61.012  0.00  0.00     0.034 C 
HETATM   11  C   UNK N   1      30.720  43.856  58.221  0.00  0.00     0.262 C 
HETATM   12  C   UNK N   1      31.872  42.576  60.001  0.00  0.00     0.068 C 
HETATM   13  C   UNK N   1      32.330  46.540  64.560  0.00  0.00    -0.063 C 
HETATM   14  C   UNK N   1      32.714  43.285  62.371  0.00  0.00     0.042 C 
HETATM   15  C   UNK N   1      31.345  45.160  58.527  0.00  0.00     0.144 C 
HETATM   16  C   UNK N   1      33.520  47.884  66.082  0.00  0.00     0.038 C 
HETATM   17  C   UNK N   1      30.260  47.013  62.605  0.00  0.00     0.007 C 
HETATM   18  C   UNK N   1      30.880  48.206  63.359  0.00  0.00     0.015 C 
HETATM   19  C   UNK N   1      29.629  44.116  61.509  0.00  0.00     0.019 C 
HETATM   20  C   UNK N   1      30.855  44.523  64.548  0.00  0.00     0.023 C 
HETATM   21  C   UNK N   1      30.369  47.576  65.766  0.00  0.00     0.021 C 
HETATM   22  C   UNK N   1      33.438  46.611  65.307  0.00  0.00    -0.022 C 
HETATM   23  C   UNK N   1      33.182  42.213  59.266  0.00  0.00     0.047 C 
HETATM   24  C   UNK N   1      31.393  41.289  60.718  0.00  0.00     0.047 C 
ENDROOT
BRANCH   5  25
HETATM   25  C   UNK N   1      33.309  49.596  64.282  0.00  0.00    -0.029 A 
HETATM   26  C   UNK N   1      32.949  50.851  63.826  0.00  0.00     0.148 A 
HETATM   27  O   UNK N   1      33.830  51.259  62.942  0.00  0.00    -0.334 OA
HETATM   28  C   UNK N   1      34.756  50.337  62.792  0.00  0.00     0.142 A 
HETATM   29  C   UNK N   1      34.475  49.266  63.618  0.00  0.00     0.034 A 
ENDBRANCH   5  25
BRANCH   4  30
HETATM   30  O   UNK N   1      34.132  45.162  62.850  0.00  0.00    -0.315 OA
BRANCH  30  31
HETATM   31  C   UNK N   1      35.436  44.780  62.841  0.00  0.00     0.255 C 
HETATM   32  O   UNK N   1      36.060  44.641  63.880  0.00  0.00    -0.266 OA
HETATM   33  C   UNK N   1      36.112  44.558  61.528  0.00  0.00     0.126 C 
ENDBRANCH  30  31
ENDBRANCH   4  30
BRANCH   3  34
HETATM   34  O   UNK N   1      29.481  46.131  59.711  0.00  0.00    -0.315 OA
BRANCH  34  35
HETATM   35  C   UNK N   1      29.044  47.144  58.916  0.00  0.00     0.255 C 
HETATM   36  O   UNK N   1      28.306  46.930  57.971  0.00  0.00    -0.266 OA
HETATM   37  C   UNK N   1      29.507  48.533  59.207  0.00  0.00     0.126 C 
ENDBRANCH  34  35
ENDBRANCH   3  34
TORSDOF 5
ENDMDL
MODEL 9
REMARK VINA RESULT:      -4.4      1.661      2.216
REMARK  5 active torsions:
REMARK  status: ('A' for Active; 'I' for Inactive)
REMARK    1  A    between atoms: O_2  and  C_12 
REMARK    2  A    between atoms: O_2  and  C_20 
REMARK    3  A    between atoms: O_3  and  C_13 
REMARK    4  A    between atoms: O_3  and  C_21 
REMARK    5  A    between atoms: C_10  and  C_14 
ROOT
HETATM    1  O   UNK N   1      31.122  41.116  61.740  0.00  0.00    -0.265 OA
HETATM    2  O   UNK N   1      30.588  42.542  60.126  0.00  0.00    -0.310 OA
HETATM    3  C   UNK N   1      29.197  40.001  59.187  0.00  0.00     0.150 C 
HETATM    4  C   UNK N   1      28.399  42.296  55.510  0.00  0.00     0.145 C 
HETATM    5  C   UNK N   1      25.495  38.735  54.005  0.00  0.00     0.036 C 
HETATM    6  C   UNK N   1      28.541  41.248  58.409  0.00  0.00    -0.005 C 
HETATM    7  C   UNK N   1      27.158  41.550  56.088  0.00  0.00     0.011 C 
HETATM    8  C   UNK N   1      27.667  40.596  57.234  0.00  0.00     0.012 C 
HETATM    9  C   UNK N   1      25.536  39.536  55.354  0.00  0.00    -0.012 C 
HETATM   10  C   UNK N   1      29.685  42.157  57.781  0.00  0.00     0.034 C 
HETATM   11  C   UNK N   1      30.822  41.290  60.571  0.00  0.00     0.262 C 
HETATM   12  C   UNK N   1      30.567  43.026  58.822  0.00  0.00     0.068 C 
HETATM   13  C   UNK N   1      26.498  40.645  55.014  0.00  0.00    -0.063 C 
HETATM   14  C   UNK N   1      29.177  43.058  56.609  0.00  0.00     0.042 C 
HETATM   15  C   UNK N   1      30.659  40.128  59.673  0.00  0.00     0.144 C 
HETATM   16  C   UNK N   1      25.788  39.805  52.934  0.00  0.00     0.038 C 
HETATM   17  C   UNK N   1      26.510  39.648  57.723  0.00  0.00     0.007 C 
HETATM   18  C   UNK N   1      26.042  38.729  56.577  0.00  0.00     0.015 C 
HETATM   19  C   UNK N   1      27.656  42.083  59.382  0.00  0.00     0.019 C 
HETATM   20  C   UNK N   1      26.092  42.599  56.519  0.00  0.00     0.023 C 
HETATM   21  C   UNK N   1      24.115  40.083  55.627  0.00  0.00     0.021 C 
HETATM   22  C   UNK N   1      26.630  40.779  53.689  0.00  0.00    -0.022 C 
HETATM   23  C   UNK N   1      32.024  43.110  58.312  0.00  0.00     0.047 C 
HETATM   24  C   UNK N   1      30.067  44.483  58.984  0.00  0.00     0.047 C 
ENDROOT
BRANCH   5  25
HETATM   25  C   UNK N   1      26.540  37.628  53.889  0.00  0.00    -0.029 A 
HETATM   26  C   UNK N   1      26.277  36.276  54.016  0.00  0.00     0.148 A 
HETATM   27  O   UNK N   1      27.393  35.601  53.861  0.00  0.00    -0.334 OA
HETATM   28  C   UNK N   1      28.380  36.439  53.636  0.00  0.00     0.142 A 
HETATM   29  C   UNK N   1      27.896  37.733  53.641  0.00  0.00     0.034 A 
ENDBRANCH   5  25
BRANCH   4  30
HETATM   30  O   UNK N   1      29.240  41.383  54.890  0.00  0.00    -0.315 OA
BRANCH  30  31
HETATM   31  C   UNK N   1      30.198  41.715  53.986  0.00  0.00     0.255 C 
HETATM   32  O   UNK N   1      31.382  41.559  54.236  0.00  0.00    -0.266 OA
HETATM   33  C   UNK N   1      29.781  42.308  52.681  0.00  0.00     0.126 C 
ENDBRANCH  30  31
ENDBRANCH   4  30
BRANCH   3  34
HETATM   34  O   UNK N   1      28.369  39.617  60.234  0.00  0.00    -0.315 OA
BRANCH  34  35
HETATM   35  C   UNK N   1      28.375  38.397  60.835  0.00  0.00     0.255 C 
HETATM   36  O   UNK N   1      28.537  38.287  62.037  0.00  0.00    -0.266 OA
HETATM   37  C   UNK N   1      28.204  37.181  59.986  0.00  0.00     0.126 C 
ENDBRANCH  34  35
ENDBRANCH   3  34
TORSDOF 5
ENDMDL
