MODEL 1
REMARK VINA RESULT:      -5.2      0.000      0.000
REMARK  11 active torsions:
REMARK  status: ('A' for Active; 'I' for Inactive)
REMARK    1  A    between atoms: O_1  and  C_9 
REMARK    2  A    between atoms: O_2  and  C_10 
REMARK    3  A    between atoms: O_3  and  C_11 
REMARK    4  A    between atoms: O_7  and  C_19 
REMARK    5  A    between atoms: O_8  and  C_20 
REMARK    6  A    between atoms: C_12  and  C_16 
REMARK    7  A    between atoms: C_13  and  C_22 
REMARK    8  A    between atoms: C_15  and  C_22 
REMARK    9  A    between atoms: C_16  and  C_27 
REMARK   10  A    between atoms: C_18  and  C_25 
REMARK   11  A    between atoms: C_18  and  C_28 
ROOT
HETATM    1  C   UNK N   1      30.246  47.522  59.533  0.00  0.00     0.068 C 
ENDROOT
BRANCH   1   2
HETATM    2  C   UNK N   1      30.543  46.042  59.623  0.00  0.00     0.011 A 
HETATM    3  C   UNK N   1      30.817  45.317  58.455  0.00  0.00     0.091 A 
HETATM    4  C   UNK N   1      31.096  43.935  58.521  0.00  0.00     0.078 A 
HETATM    5  C   UNK N   1      31.139  43.280  59.793  0.00  0.00     0.093 A 
HETATM    6  C   UNK N   1      30.863  44.027  60.962  0.00  0.00     0.006 A 
HETATM    7  C   UNK N   1      30.566  45.403  60.875  0.00  0.00     0.083 A 
HETATM    8  C   UNK N   1      30.901  43.357  62.320  0.00  0.00     0.054 C 
BRANCH   3   9
HETATM    9  O   UNK N   1      30.803  45.973  57.267  0.00  0.00    -0.359 OA
HETATM   10  H   UNK N   1      30.686  46.927  57.177  0.00  0.00     0.218 HD
ENDBRANCH   3   9
BRANCH   4  11
HETATM   11  C   UNK N   1      31.293  43.202  57.254  0.00  0.00     0.168 C 
HETATM   12  O   UNK N   1      32.327  43.366  56.622  0.00  0.00    -0.292 OA
BRANCH  11  13
HETATM   13  C   UNK N   1      30.187  42.295  56.724  0.00  0.00     0.053 C 
HETATM   14  C   UNK N   1      28.817  42.980  56.824  0.00  0.00     0.018 C 
HETATM   15  C   UNK N   1      30.446  41.866  55.274  0.00  0.00     0.018 C 
ENDBRANCH  11  13
ENDBRANCH   4  11
BRANCH   5  16
HETATM   16  O   UNK N   1      31.467  41.964  59.959  0.00  0.00    -0.354 OA
HETATM   17  C   UNK N   1      32.714  41.381  60.035  0.00  0.00     0.210 C 
ENDBRANCH   5  16
BRANCH   7  18
HETATM   18  O   UNK N   1      30.309  46.136  61.987  0.00  0.00    -0.359 OA
HETATM   19  H   UNK N   1      30.933  46.254  62.715  0.00  0.00     0.217 HD
ENDBRANCH   7  18
ENDBRANCH   1   2
BRANCH   1  20
HETATM   20  C   UNK N   1      28.739  47.918  59.540  0.00  0.00     0.075 C 
HETATM   21  C   UNK N   1      28.505  48.537  58.184  0.00  0.00     0.181 C 
HETATM   22  O   UNK N   1      28.331  47.799  57.223  0.00  0.00    -0.291 OA
HETATM   23  C   UNK N   1      28.572  50.011  57.990  0.00  0.00     0.091 C 
HETATM   24  C   UNK N   1      28.460  50.812  59.091  0.00  0.00     0.091 C 
HETATM   25  C   UNK N   1      28.293  50.229  60.462  0.00  0.00     0.003 C 
HETATM   26  C   UNK N   1      28.443  48.887  60.682  0.00  0.00     0.068 C 
HETATM   27  C   UNK N   1      28.005  51.220  61.577  0.00  0.00     0.054 C 
HETATM   28  C   UNK N   1      27.811  46.688  59.696  0.00  0.00     0.031 C 
BRANCH  23  29
HETATM   29  C   UNK N   1      28.760  50.552  56.589  0.00  0.00     0.169 C 
HETATM   30  O   UNK N   1      27.793  50.861  55.910  0.00  0.00    -0.292 OA
BRANCH  29  31
HETATM   31  C   UNK N   1      30.149  50.764  55.998  0.00  0.00     0.053 C 
HETATM   32  C   UNK N   1      31.084  49.620  56.399  0.00  0.00     0.018 C 
HETATM   33  C   UNK N   1      30.062  50.901  54.475  0.00  0.00     0.018 C 
ENDBRANCH  29  31
ENDBRANCH  23  29
BRANCH  24  34
HETATM   34  O   UNK N   1      28.533  52.168  59.016  0.00  0.00    -0.359 OA
HETATM   35  H   UNK N   1      28.964  52.677  58.323  0.00  0.00     0.218 HD
ENDBRANCH  24  34
BRANCH  26  36
HETATM   36  O   UNK N   1      28.370  48.347  61.929  0.00  0.00    -0.363 OA
HETATM   37  H   UNK N   1      27.735  48.569  62.616  0.00  0.00     0.217 HD
ENDBRANCH  26  36
ENDBRANCH   1  20
TORSDOF 11
ENDMDL
MODEL 2
REMARK VINA RESULT:      -5.0      6.220     10.910
REMARK  11 active torsions:
REMARK  status: ('A' for Active; 'I' for Inactive)
REMARK    1  A    between atoms: O_1  and  C_9 
REMARK    2  A    between atoms: O_2  and  C_10 
REMARK    3  A    between atoms: O_3  and  C_11 
REMARK    4  A    between atoms: O_7  and  C_19 
REMARK    5  A    between atoms: O_8  and  C_20 
REMARK    6  A    between atoms: C_12  and  C_16 
REMARK    7  A    between atoms: C_13  and  C_22 
REMARK    8  A    between atoms: C_15  and  C_22 
REMARK    9  A    between atoms: C_16  and  C_27 
REMARK   10  A    between atoms: C_18  and  C_25 
REMARK   11  A    between atoms: C_18  and  C_28 
ROOT
HETATM    1  C   UNK N   1      27.184  41.714  52.274  0.00  0.00     0.068 C 
ENDROOT
BRANCH   1   2
HETATM    2  C   UNK N   1      25.967  42.318  51.608  0.00  0.00     0.011 A 
HETATM    3  C   UNK N   1      25.609  43.644  51.889  0.00  0.00     0.091 A 
HETATM    4  C   UNK N   1      24.477  44.223  51.276  0.00  0.00     0.078 A 
HETATM    5  C   UNK N   1      23.715  43.464  50.332  0.00  0.00     0.093 A 
HETATM    6  C   UNK N   1      24.092  42.128  50.058  0.00  0.00     0.006 A 
HETATM    7  C   UNK N   1      25.215  41.559  50.694  0.00  0.00     0.083 A 
HETATM    8  C   UNK N   1      23.302  41.303  49.063  0.00  0.00     0.054 C 
BRANCH   3   9
HETATM    9  O   UNK N   1      26.371  44.350  52.761  0.00  0.00    -0.359 OA
HETATM   10  H   UNK N   1      27.336  44.351  52.760  0.00  0.00     0.218 HD
ENDBRANCH   3   9
BRANCH   4  11
HETATM   11  C   UNK N   1      24.094  45.594  51.671  0.00  0.00     0.168 C 
HETATM   12  O   UNK N   1      24.789  46.536  51.317  0.00  0.00    -0.292 OA
BRANCH  11  13
HETATM   13  C   UNK N   1      22.872  45.812  52.559  0.00  0.00     0.053 C 
HETATM   14  C   UNK N   1      23.107  45.249  53.967  0.00  0.00     0.018 C 
HETATM   15  C   UNK N   1      22.493  47.296  52.652  0.00  0.00     0.018 C 
ENDBRANCH  11  13
ENDBRANCH   4  11
BRANCH   5  16
HETATM   16  O   UNK N   1      22.647  43.962  49.641  0.00  0.00    -0.354 OA
HETATM   17  C   UNK N   1      22.625  44.909  48.638  0.00  0.00     0.210 C 
ENDBRANCH   5  16
BRANCH   7  18
HETATM   18  O   UNK N   1      25.596  40.283  50.435  0.00  0.00    -0.359 OA
HETATM   19  H   UNK N   1      24.981  39.552  50.295  0.00  0.00     0.217 HD
ENDBRANCH   7  18
ENDBRANCH   1   2
BRANCH   1  20
HETATM   20  C   UNK N   1      26.943  41.051  53.662  0.00  0.00     0.075 C 
HETATM   21  C   UNK N   1      27.978  41.677  54.565  0.00  0.00     0.181 C 
HETATM   22  O   UNK N   1      27.755  42.786  55.031  0.00  0.00    -0.291 OA
HETATM   23  C   UNK N   1      29.282  41.008  54.818  0.00  0.00     0.091 C 
HETATM   24  C   UNK N   1      29.385  39.672  54.552  0.00  0.00     0.091 C 
HETATM   25  C   UNK N   1      28.225  38.898  54.002  0.00  0.00     0.003 C 
HETATM   26  C   UNK N   1      27.094  39.535  53.566  0.00  0.00     0.068 C 
HETATM   27  C   UNK N   1      28.409  37.393  53.914  0.00  0.00     0.054 C 
HETATM   28  C   UNK N   1      25.534  41.362  54.224  0.00  0.00     0.031 C 
BRANCH  23  29
HETATM   29  C   UNK N   1      30.430  41.835  55.356  0.00  0.00     0.169 C 
HETATM   30  O   UNK N   1      31.442  41.995  54.690  0.00  0.00    -0.292 OA
BRANCH  29  31
HETATM   31  C   UNK N   1      30.350  42.519  56.716  0.00  0.00     0.053 C 
HETATM   32  C   UNK N   1      29.915  41.524  57.794  0.00  0.00     0.018 C 
HETATM   33  C   UNK N   1      31.694  43.163  57.066  0.00  0.00     0.018 C 
ENDBRANCH  29  31
ENDBRANCH  23  29
BRANCH  24  34
HETATM   34  O   UNK N   1      30.542  38.981  54.729  0.00  0.00    -0.359 OA
HETATM   35  H   UNK N   1      31.410  39.230  54.398  0.00  0.00     0.218 HD
ENDBRANCH  24  34
BRANCH  26  36
HETATM   36  O   UNK N   1      26.060  38.858  52.995  0.00  0.00    -0.363 OA
HETATM   37  H   UNK N   1      26.035  38.486  52.109  0.00  0.00     0.217 HD
ENDBRANCH  26  36
ENDBRANCH   1  20
TORSDOF 11
ENDMDL
MODEL 3
REMARK VINA RESULT:      -5.0      4.098      8.638
REMARK  11 active torsions:
REMARK  status: ('A' for Active; 'I' for Inactive)
REMARK    1  A    between atoms: O_1  and  C_9 
REMARK    2  A    between atoms: O_2  and  C_10 
REMARK    3  A    between atoms: O_3  and  C_11 
REMARK    4  A    between atoms: O_7  and  C_19 
REMARK    5  A    between atoms: O_8  and  C_20 
REMARK    6  A    between atoms: C_12  and  C_16 
REMARK    7  A    between atoms: C_13  and  C_22 
REMARK    8  A    between atoms: C_15  and  C_22 
REMARK    9  A    between atoms: C_16  and  C_27 
REMARK   10  A    between atoms: C_18  and  C_25 
REMARK   11  A    between atoms: C_18  and  C_28 
ROOT
HETATM    1  C   UNK N   1      28.421  40.792  56.173  0.00  0.00     0.068 C 
ENDROOT
BRANCH   1   2
HETATM    2  C   UNK N   1      29.352  41.364  57.219  0.00  0.00     0.011 A 
HETATM    3  C   UNK N   1      29.720  42.715  57.155  0.00  0.00     0.091 A 
HETATM    4  C   UNK N   1      30.588  43.265  58.124  0.00  0.00     0.078 A 
HETATM    5  C   UNK N   1      31.061  42.447  59.198  0.00  0.00     0.093 A 
HETATM    6  C   UNK N   1      30.677  41.086  59.249  0.00  0.00     0.006 A 
HETATM    7  C   UNK N   1      29.825  40.549  58.262  0.00  0.00     0.083 A 
HETATM    8  C   UNK N   1      31.165  40.199  60.375  0.00  0.00     0.054 C 
BRANCH   3   9
HETATM    9  O   UNK N   1      29.227  43.475  56.145  0.00  0.00    -0.359 OA
HETATM   10  H   UNK N   1      28.294  43.697  56.040  0.00  0.00     0.218 HD
ENDBRANCH   3   9
BRANCH   4  11
HETATM   11  C   UNK N   1      31.012  44.670  57.962  0.00  0.00     0.168 C 
HETATM   12  O   UNK N   1      32.099  44.913  57.455  0.00  0.00    -0.292 OA
BRANCH  11  13
HETATM   13  C   UNK N   1      30.119  45.795  58.476  0.00  0.00     0.053 C 
HETATM   14  C   UNK N   1      30.346  46.038  59.975  0.00  0.00     0.018 C 
HETATM   15  C   UNK N   1      30.343  47.101  57.702  0.00  0.00     0.018 C 
ENDBRANCH  11  13
ENDBRANCH   4  11
BRANCH   5  16
HETATM   16  O   UNK N   1      31.847  42.908  60.216  0.00  0.00    -0.354 OA
HETATM   17  C   UNK N   1      33.221  43.017  60.273  0.00  0.00     0.210 C 
ENDBRANCH   5  16
BRANCH   7  18
HETATM   18  O   UNK N   1      29.439  39.249  58.300  0.00  0.00    -0.359 OA
HETATM   19  H   UNK N   1      30.030  38.503  58.131  0.00  0.00     0.217 HD
ENDBRANCH   7  18
ENDBRANCH   1   2
BRANCH   1  20
HETATM   20  C   UNK N   1      29.092  40.308  54.853  0.00  0.00     0.075 C 
HETATM   21  C   UNK N   1      28.302  40.980  53.758  0.00  0.00     0.181 C 
HETATM   22  O   UNK N   1      28.553  42.147  53.484  0.00  0.00    -0.291 OA
HETATM   23  C   UNK N   1      27.179  40.280  53.079  0.00  0.00     0.091 C 
HETATM   24  C   UNK N   1      27.116  38.918  53.174  0.00  0.00     0.091 C 
HETATM   25  C   UNK N   1      28.137  38.147  53.955  0.00  0.00     0.003 C 
HETATM   26  C   UNK N   1      29.045  38.785  54.755  0.00  0.00     0.068 C 
HETATM   27  C   UNK N   1      28.060  36.633  53.840  0.00  0.00     0.054 C 
HETATM   28  C   UNK N   1      30.571  40.754  54.750  0.00  0.00     0.031 C 
BRANCH  23  29
HETATM   29  C   UNK N   1      26.162  41.103  52.319  0.00  0.00     0.169 C 
HETATM   30  O   UNK N   1      25.211  41.603  52.901  0.00  0.00    -0.292 OA
BRANCH  29  31
HETATM   31  C   UNK N   1      26.307  41.366  50.824  0.00  0.00     0.053 C 
HETATM   32  C   UNK N   1      25.213  40.637  50.041  0.00  0.00     0.018 C 
HETATM   33  C   UNK N   1      26.280  42.871  50.545  0.00  0.00     0.018 C 
ENDBRANCH  29  31
ENDBRANCH  23  29
BRANCH  24  34
HETATM   34  O   UNK N   1      26.114  38.194  52.608  0.00  0.00    -0.359 OA
HETATM   35  H   UNK N   1      25.695  38.368  51.760  0.00  0.00     0.218 HD
ENDBRANCH  24  34
BRANCH  26  36
HETATM   36  O   UNK N   1      29.931  38.101  55.529  0.00  0.00    -0.363 OA
HETATM   37  H   UNK N   1      30.397  37.293  55.295  0.00  0.00     0.217 HD
ENDBRANCH  26  36
ENDBRANCH   1  20
TORSDOF 11
ENDMDL
MODEL 4
REMARK VINA RESULT:      -4.7      5.126      7.562
REMARK  11 active torsions:
REMARK  status: ('A' for Active; 'I' for Inactive)
REMARK    1  A    between atoms: O_1  and  C_9 
REMARK    2  A    between atoms: O_2  and  C_10 
REMARK    3  A    between atoms: O_3  and  C_11 
REMARK    4  A    between atoms: O_7  and  C_19 
REMARK    5  A    between atoms: O_8  and  C_20 
REMARK    6  A    between atoms: C_12  and  C_16 
REMARK    7  A    between atoms: C_13  and  C_22 
REMARK    8  A    between atoms: C_15  and  C_22 
REMARK    9  A    between atoms: C_16  and  C_27 
REMARK   10  A    between atoms: C_18  and  C_25 
REMARK   11  A    between atoms: C_18  and  C_28 
ROOT
HETATM    1  C   UNK N   1      31.690  43.434  59.568  0.00  0.00     0.068 C 
ENDROOT
BRANCH   1   2
HETATM    2  C   UNK N   1      30.859  42.756  58.502  0.00  0.00     0.011 A 
HETATM    3  C   UNK N   1      29.602  42.232  58.831  0.00  0.00     0.091 A 
HETATM    4  C   UNK N   1      28.813  41.596  57.848  0.00  0.00     0.078 A 
HETATM    5  C   UNK N   1      29.285  41.522  56.499  0.00  0.00     0.093 A 
HETATM    6  C   UNK N   1      30.555  42.058  56.183  0.00  0.00     0.006 A 
HETATM    7  C   UNK N   1      31.338  42.673  57.183  0.00  0.00     0.083 A 
HETATM    8  C   UNK N   1      31.078  41.992  54.763  0.00  0.00     0.054 C 
BRANCH   3   9
HETATM    9  O   UNK N   1      29.166  42.348  60.111  0.00  0.00    -0.359 OA
HETATM   10  H   UNK N   1      29.506  42.995  60.742  0.00  0.00     0.218 HD
ENDBRANCH   3   9
BRANCH   4  11
HETATM   11  C   UNK N   1      27.535  40.986  58.266  0.00  0.00     0.168 C 
HETATM   12  O   UNK N   1      26.618  41.708  58.633  0.00  0.00    -0.292 OA
BRANCH  11  13
HETATM   13  C   UNK N   1      27.391  39.467  58.288  0.00  0.00     0.053 C 
HETATM   14  C   UNK N   1      28.577  38.812  59.010  0.00  0.00     0.018 C 
HETATM   15  C   UNK N   1      26.078  39.027  58.948  0.00  0.00     0.018 C 
ENDBRANCH  11  13
ENDBRANCH   4  11
BRANCH   5  16
HETATM   16  O   UNK N   1      28.563  40.986  55.470  0.00  0.00    -0.354 OA
HETATM   17  C   UNK N   1      27.514  41.537  54.764  0.00  0.00     0.210 C 
ENDBRANCH   5  16
BRANCH   7  18
HETATM   18  O   UNK N   1      32.554  43.201  56.895  0.00  0.00    -0.359 OA
HETATM   19  H   UNK N   1      33.120  42.896  56.175  0.00  0.00     0.217 HD
ENDBRANCH   7  18
ENDBRANCH   1   2
BRANCH   1  20
HETATM   20  C   UNK N   1      32.709  42.527  60.320  0.00  0.00     0.075 C 
HETATM   21  C   UNK N   1      32.220  42.513  61.748  0.00  0.00     0.181 C 
HETATM   22  O   UNK N   1      31.299  41.764  62.045  0.00  0.00    -0.291 OA
HETATM   23  C   UNK N   1      32.778  43.448  62.761  0.00  0.00     0.091 C 
HETATM   24  C   UNK N   1      33.982  44.040  62.498  0.00  0.00     0.091 C 
HETATM   25  C   UNK N   1      34.716  43.772  61.220  0.00  0.00     0.003 C 
HETATM   26  C   UNK N   1      34.123  43.088  60.194  0.00  0.00     0.068 C 
HETATM   27  C   UNK N   1      36.119  44.348  61.123  0.00  0.00     0.054 C 
HETATM   28  C   UNK N   1      32.713  41.077  59.778  0.00  0.00     0.031 C 
BRANCH  23  29
HETATM   29  C   UNK N   1      31.991  43.701  64.028  0.00  0.00     0.169 C 
HETATM   30  O   UNK N   1      32.100  42.949  64.985  0.00  0.00    -0.292 OA
BRANCH  29  31
HETATM   31  C   UNK N   1      31.075  44.912  64.168  0.00  0.00     0.053 C 
HETATM   32  C   UNK N   1      31.655  45.912  65.170  0.00  0.00     0.018 C 
HETATM   33  C   UNK N   1      30.847  45.565  62.801  0.00  0.00     0.018 C 
ENDBRANCH  29  31
ENDBRANCH  23  29
BRANCH  24  34
HETATM   34  O   UNK N   1      34.559  44.926  63.352  0.00  0.00    -0.359 OA
HETATM   35  H   UNK N   1      35.442  44.863  63.728  0.00  0.00     0.218 HD
ENDBRANCH  24  34
BRANCH  26  36
HETATM   36  O   UNK N   1      34.744  42.899  58.997  0.00  0.00    -0.363 OA
HETATM   37  H   UNK N   1      35.173  42.095  58.692  0.00  0.00     0.217 HD
ENDBRANCH  26  36
ENDBRANCH   1  20
TORSDOF 11
ENDMDL
MODEL 5
REMARK VINA RESULT:      -4.5     19.506     21.511
REMARK  11 active torsions:
REMARK  status: ('A' for Active; 'I' for Inactive)
REMARK    1  A    between atoms: O_1  and  C_9 
REMARK    2  A    between atoms: O_2  and  C_10 
REMARK    3  A    between atoms: O_3  and  C_11 
REMARK    4  A    between atoms: O_7  and  C_19 
REMARK    5  A    between atoms: O_8  and  C_20 
REMARK    6  A    between atoms: C_12  and  C_16 
REMARK    7  A    between atoms: C_13  and  C_22 
REMARK    8  A    between atoms: C_15  and  C_22 
REMARK    9  A    between atoms: C_16  and  C_27 
REMARK   10  A    between atoms: C_18  and  C_25 
REMARK   11  A    between atoms: C_18  and  C_28 
ROOT
HETATM    1  C   UNK N   1      48.286  54.549  57.429  0.00  0.00     0.068 C 
ENDROOT
BRANCH   1   2
HETATM    2  C   UNK N   1      49.420  54.226  56.483  0.00  0.00     0.011 A 
HETATM    3  C   UNK N   1      50.201  53.083  56.700  0.00  0.00     0.091 A 
HETATM    4  C   UNK N   1      51.264  52.767  55.826  0.00  0.00     0.078 A 
HETATM    5  C   UNK N   1      51.519  53.598  54.690  0.00  0.00     0.093 A 
HETATM    6  C   UNK N   1      50.720  54.747  54.483  0.00  0.00     0.006 A 
HETATM    7  C   UNK N   1      49.674  55.058  55.378  0.00  0.00     0.083 A 
HETATM    8  C   UNK N   1      50.969  55.644  53.289  0.00  0.00     0.054 C 
BRANCH   3   9
HETATM    9  O   UNK N   1      49.913  52.294  57.766  0.00  0.00    -0.359 OA
HETATM   10  H   UNK N   1      49.096  52.352  58.277  0.00  0.00     0.218 HD
ENDBRANCH   3   9
BRANCH   4  11
HETATM   11  C   UNK N   1      52.108  51.599  56.148  0.00  0.00     0.168 C 
HETATM   12  O   UNK N   1      51.642  50.473  56.038  0.00  0.00    -0.292 OA
BRANCH  11  13
HETATM   13  C   UNK N   1      53.528  51.811  56.664  0.00  0.00     0.053 C 
HETATM   14  C   UNK N   1      53.595  51.622  58.186  0.00  0.00     0.018 C 
HETATM   15  C   UNK N   1      54.530  50.869  55.983  0.00  0.00     0.018 C 
ENDBRANCH  11  13
ENDBRANCH   4  11
BRANCH   5  16
HETATM   16  O   UNK N   1      52.479  53.335  53.754  0.00  0.00    -0.354 OA
HETATM   17  C   UNK N   1      53.775  53.801  53.683  0.00  0.00     0.210 C 
ENDBRANCH   5  16
BRANCH   7  18
HETATM   18  O   UNK N   1      48.892  56.151  55.190  0.00  0.00    -0.359 OA
HETATM   19  H   UNK N   1      48.316  56.528  55.867  0.00  0.00     0.217 HD
ENDBRANCH   7  18
ENDBRANCH   1   2
BRANCH   1  20
HETATM   20  C   UNK N   1      48.643  55.466  58.636  0.00  0.00     0.075 C 
HETATM   21  C   UNK N   1      48.332  54.628  59.852  0.00  0.00     0.181 C 
HETATM   22  O   UNK N   1      49.150  53.793  60.215  0.00  0.00    -0.291 OA
HETATM   23  C   UNK N   1      47.024  54.744  60.551  0.00  0.00     0.091 C 
HETATM   24  C   UNK N   1      46.272  55.864  60.331  0.00  0.00     0.091 C 
HETATM   25  C   UNK N   1      46.738  56.941  59.400  0.00  0.00     0.003 C 
HETATM   26  C   UNK N   1      47.827  56.755  58.593  0.00  0.00     0.068 C 
HETATM   27  C   UNK N   1      45.901  58.209  59.375  0.00  0.00     0.054 C 
HETATM   28  C   UNK N   1      50.145  55.844  58.660  0.00  0.00     0.031 C 
BRANCH  23  29
HETATM   29  C   UNK N   1      46.587  53.622  61.468  0.00  0.00     0.169 C 
HETATM   30  O   UNK N   1      46.622  53.764  62.681  0.00  0.00    -0.292 OA
BRANCH  29  31
HETATM   31  C   UNK N   1      46.059  52.303  60.915  0.00  0.00     0.053 C 
HETATM   32  C   UNK N   1      47.072  51.179  61.145  0.00  0.00     0.018 C 
HETATM   33  C   UNK N   1      44.705  51.968  61.547  0.00  0.00     0.018 C 
ENDBRANCH  29  31
ENDBRANCH  23  29
BRANCH  24  34
HETATM   34  O   UNK N   1      45.053  56.047  60.906  0.00  0.00    -0.359 OA
HETATM   35  H   UNK N   1      44.373  55.378  61.024  0.00  0.00     0.218 HD
ENDBRANCH  24  34
BRANCH  26  36
HETATM   36  O   UNK N   1      48.222  57.691  57.686  0.00  0.00    -0.363 OA
HETATM   37  H   UNK N   1      49.096  57.783  57.297  0.00  0.00     0.217 HD
ENDBRANCH  26  36
ENDBRANCH   1  20
TORSDOF 11
ENDMDL
MODEL 6
REMARK VINA RESULT:      -4.5     21.113     23.730
REMARK  11 active torsions:
REMARK  status: ('A' for Active; 'I' for Inactive)
REMARK    1  A    between atoms: O_1  and  C_9 
REMARK    2  A    between atoms: O_2  and  C_10 
REMARK    3  A    between atoms: O_3  and  C_11 
REMARK    4  A    between atoms: O_7  and  C_19 
REMARK    5  A    between atoms: O_8  and  C_20 
REMARK    6  A    between atoms: C_12  and  C_16 
REMARK    7  A    between atoms: C_13  and  C_22 
REMARK    8  A    between atoms: C_15  and  C_22 
REMARK    9  A    between atoms: C_16  and  C_27 
REMARK   10  A    between atoms: C_18  and  C_25 
REMARK   11  A    between atoms: C_18  and  C_28 
ROOT
HETATM    1  C   UNK N   1      51.207  51.698  56.479  0.00  0.00     0.068 C 
ENDROOT
BRANCH   1   2
HETATM    2  C   UNK N   1      51.602  52.988  55.795  0.00  0.00     0.011 A 
HETATM    3  C   UNK N   1      50.885  54.162  56.060  0.00  0.00     0.091 A 
HETATM    4  C   UNK N   1      51.242  55.374  55.429  0.00  0.00     0.078 A 
HETATM    5  C   UNK N   1      52.366  55.410  54.545  0.00  0.00     0.093 A 
HETATM    6  C   UNK N   1      53.080  54.216  54.290  0.00  0.00     0.006 A 
HETATM    7  C   UNK N   1      52.698  53.010  54.914  0.00  0.00     0.083 A 
HETATM    8  C   UNK N   1      54.274  54.227  53.358  0.00  0.00     0.054 C 
BRANCH   3   9
HETATM    9  O   UNK N   1      49.846  54.105  56.930  0.00  0.00    -0.359 OA
HETATM   10  H   UNK N   1      49.839  54.535  57.794  0.00  0.00     0.218 HD
ENDBRANCH   3   9
BRANCH   4  11
HETATM   11  C   UNK N   1      50.401  56.563  55.678  0.00  0.00     0.168 C 
HETATM   12  O   UNK N   1      50.638  57.273  56.646  0.00  0.00    -0.292 OA
BRANCH  11  13
HETATM   13  C   UNK N   1      49.220  56.860  54.759  0.00  0.00     0.053 C 
HETATM   14  C   UNK N   1      48.022  57.396  55.558  0.00  0.00     0.018 C 
HETATM   15  C   UNK N   1      49.592  57.858  53.655  0.00  0.00     0.018 C 
ENDBRANCH  11  13
ENDBRANCH   4  11
BRANCH   5  16
HETATM   16  O   UNK N   1      52.825  56.548  53.944  0.00  0.00    -0.354 OA
HETATM   17  C   UNK N   1      53.592  57.564  54.475  0.00  0.00     0.210 C 
ENDBRANCH   5  16
BRANCH   7  18
HETATM   18  O   UNK N   1      53.378  51.858  54.689  0.00  0.00    -0.359 OA
HETATM   19  H   UNK N   1      54.248  51.661  55.059  0.00  0.00     0.217 HD
ENDBRANCH   7  18
ENDBRANCH   1   2
BRANCH   1  20
HETATM   20  C   UNK N   1      51.927  51.392  57.826  0.00  0.00     0.075 C 
HETATM   21  C   UNK N   1      52.579  50.049  57.609  0.00  0.00     0.181 C 
HETATM   22  O   UNK N   1      53.642  50.003  57.004  0.00  0.00    -0.291 OA
HETATM   23  C   UNK N   1      51.911  48.791  58.039  0.00  0.00     0.091 C 
HETATM   24  C   UNK N   1      50.906  48.877  58.961  0.00  0.00     0.091 C 
HETATM   25  C   UNK N   1      50.473  50.200  59.515  0.00  0.00     0.003 C 
HETATM   26  C   UNK N   1      50.926  51.374  58.979  0.00  0.00     0.068 C 
HETATM   27  C   UNK N   1      49.472  50.149  60.658  0.00  0.00     0.054 C 
HETATM   28  C   UNK N   1      53.024  52.434  58.154  0.00  0.00     0.031 C 
BRANCH  23  29
HETATM   29  C   UNK N   1      52.371  47.481  57.436  0.00  0.00     0.169 C 
HETATM   30  O   UNK N   1      52.840  46.604  58.147  0.00  0.00    -0.292 OA
BRANCH  29  31
HETATM   31  C   UNK N   1      52.232  47.199  55.945  0.00  0.00     0.053 C 
HETATM   32  C   UNK N   1      53.183  46.078  55.519  0.00  0.00     0.018 C 
HETATM   33  C   UNK N   1      50.779  46.853  55.604  0.00  0.00     0.018 C 
ENDBRANCH  29  31
ENDBRANCH  23  29
BRANCH  24  34
HETATM   34  O   UNK N   1      50.221  47.786  59.395  0.00  0.00    -0.359 OA
HETATM   35  H   UNK N   1      50.544  47.118  60.007  0.00  0.00     0.218 HD
ENDBRANCH  24  34
BRANCH  26  36
HETATM   36  O   UNK N   1      50.488  52.586  59.418  0.00  0.00    -0.363 OA
HETATM   37  H   UNK N   1      50.642  52.975  60.283  0.00  0.00     0.217 HD
ENDBRANCH  26  36
ENDBRANCH   1  20
TORSDOF 11
ENDMDL
MODEL 7
REMARK VINA RESULT:      -4.4     20.158     22.107
REMARK  11 active torsions:
REMARK  status: ('A' for Active; 'I' for Inactive)
REMARK    1  A    between atoms: O_1  and  C_9 
REMARK    2  A    between atoms: O_2  and  C_10 
REMARK    3  A    between atoms: O_3  and  C_11 
REMARK    4  A    between atoms: O_7  and  C_19 
REMARK    5  A    between atoms: O_8  and  C_20 
REMARK    6  A    between atoms: C_12  and  C_16 
REMARK    7  A    between atoms: C_13  and  C_22 
REMARK    8  A    between atoms: C_15  and  C_22 
REMARK    9  A    between atoms: C_16  and  C_27 
REMARK   10  A    between atoms: C_18  and  C_25 
REMARK   11  A    between atoms: C_18  and  C_28 
ROOT
HETATM    1  C   UNK N   1      50.199  53.349  57.006  0.00  0.00     0.068 C 
ENDROOT
BRANCH   1   2
HETATM    2  C   UNK N   1      49.413  53.367  58.298  0.00  0.00     0.011 A 
HETATM    3  C   UNK N   1      49.446  52.252  59.145  0.00  0.00     0.091 A 
HETATM    4  C   UNK N   1      48.719  52.253  60.356  0.00  0.00     0.078 A 
HETATM    5  C   UNK N   1      47.977  53.415  60.737  0.00  0.00     0.093 A 
HETATM    6  C   UNK N   1      47.957  54.534  59.871  0.00  0.00     0.006 A 
HETATM    7  C   UNK N   1      48.674  54.509  58.656  0.00  0.00     0.083 A 
HETATM    8  C   UNK N   1      47.180  55.777  60.251  0.00  0.00     0.054 C 
BRANCH   3   9
HETATM    9  O   UNK N   1      50.186  51.177  58.774  0.00  0.00    -0.359 OA
HETATM   10  H   UNK N   1      50.842  50.751  59.339  0.00  0.00     0.218 HD
ENDBRANCH   3   9
BRANCH   4  11
HETATM   11  C   UNK N   1      48.718  51.020  61.170  0.00  0.00     0.168 C 
HETATM   12  O   UNK N   1      49.729  50.708  61.785  0.00  0.00    -0.292 OA
BRANCH  11  13
HETATM   13  C   UNK N   1      47.482  50.127  61.191  0.00  0.00     0.053 C 
HETATM   14  C   UNK N   1      47.538  49.081  60.069  0.00  0.00     0.018 C 
HETATM   15  C   UNK N   1      47.308  49.425  62.544  0.00  0.00     0.018 C 
ENDBRANCH  11  13
ENDBRANCH   4  11
BRANCH   5  16
HETATM   16  O   UNK N   1      47.301  53.532  61.918  0.00  0.00    -0.354 OA
HETATM   17  C   UNK N   1      45.989  53.214  62.205  0.00  0.00     0.210 C 
ENDBRANCH   5  16
BRANCH   7  18
HETATM   18  O   UNK N   1      48.673  55.576  57.819  0.00  0.00    -0.359 OA
HETATM   19  H   UNK N   1      48.960  56.463  58.072  0.00  0.00     0.217 HD
ENDBRANCH   7  18
ENDBRANCH   1   2
BRANCH   1  20
HETATM   20  C   UNK N   1      51.665  53.869  57.090  0.00  0.00     0.075 C 
HETATM   21  C   UNK N   1      51.707  55.038  56.136  0.00  0.00     0.181 C 
HETATM   22  O   UNK N   1      51.277  56.119  56.514  0.00  0.00    -0.291 OA
HETATM   23  C   UNK N   1      52.177  54.869  54.735  0.00  0.00     0.091 C 
HETATM   24  C   UNK N   1      52.921  53.764  54.432  0.00  0.00     0.091 C 
HETATM   25  C   UNK N   1      53.245  52.737  55.474  0.00  0.00     0.003 C 
HETATM   26  C   UNK N   1      52.648  52.767  56.705  0.00  0.00     0.068 C 
HETATM   27  C   UNK N   1      54.223  51.650  55.059  0.00  0.00     0.054 C 
HETATM   28  C   UNK N   1      52.028  54.368  58.510  0.00  0.00     0.031 C 
BRANCH  23  29
HETATM   29  C   UNK N   1      51.808  55.923  53.713  0.00  0.00     0.169 C 
HETATM   30  O   UNK N   1      52.618  56.778  53.386  0.00  0.00    -0.292 OA
BRANCH  29  31
HETATM   31  C   UNK N   1      50.442  55.933  53.037  0.00  0.00     0.053 C 
HETATM   32  C   UNK N   1      49.851  54.522  52.998  0.00  0.00     0.018 C 
HETATM   33  C   UNK N   1      49.503  56.908  53.752  0.00  0.00     0.018 C 
ENDBRANCH  29  31
ENDBRANCH  23  29
BRANCH  24  34
HETATM   34  O   UNK N   1      53.373  53.513  53.175  0.00  0.00    -0.359 OA
HETATM   35  H   UNK N   1      53.468  52.648  52.766  0.00  0.00     0.218 HD
ENDBRANCH  24  34
BRANCH  26  36
HETATM   36  O   UNK N   1      52.871  51.802  57.639  0.00  0.00    -0.363 OA
HETATM   37  H   UNK N   1      52.218  51.210  58.023  0.00  0.00     0.217 HD
ENDBRANCH  26  36
ENDBRANCH   1  20
TORSDOF 11
ENDMDL
MODEL 8
REMARK VINA RESULT:      -4.3      2.027      7.569
REMARK  11 active torsions:
REMARK  status: ('A' for Active; 'I' for Inactive)
REMARK    1  A    between atoms: O_1  and  C_9 
REMARK    2  A    between atoms: O_2  and  C_10 
REMARK    3  A    between atoms: O_3  and  C_11 
REMARK    4  A    between atoms: O_7  and  C_19 
REMARK    5  A    between atoms: O_8  and  C_20 
REMARK    6  A    between atoms: C_12  and  C_16 
REMARK    7  A    between atoms: C_13  and  C_22 
REMARK    8  A    between atoms: C_15  and  C_22 
REMARK    9  A    between atoms: C_16  and  C_27 
REMARK   10  A    between atoms: C_18  and  C_25 
REMARK   11  A    between atoms: C_18  and  C_28 
ROOT
HETATM    1  C   UNK N   1      29.324  45.957  58.269  0.00  0.00     0.068 C 
ENDROOT
BRANCH   1   2
HETATM    2  C   UNK N   1      28.942  47.358  58.691  0.00  0.00     0.011 A 
HETATM    3  C   UNK N   1      28.146  48.144  57.846  0.00  0.00     0.091 A 
HETATM    4  C   UNK N   1      27.779  49.454  58.225  0.00  0.00     0.078 A 
HETATM    5  C   UNK N   1      28.191  49.966  59.496  0.00  0.00     0.093 A 
HETATM    6  C   UNK N   1      28.992  49.159  60.337  0.00  0.00     0.006 A 
HETATM    7  C   UNK N   1      29.365  47.859  59.934  0.00  0.00     0.083 A 
HETATM    8  C   UNK N   1      29.441  49.678  61.687  0.00  0.00     0.054 C 
BRANCH   3   9
HETATM    9  O   UNK N   1      27.741  47.618  56.662  0.00  0.00    -0.359 OA
HETATM   10  H   UNK N   1      27.284  48.118  55.976  0.00  0.00     0.218 HD
ENDBRANCH   3   9
BRANCH   4  11
HETATM   11  C   UNK N   1      27.012  50.269  57.261  0.00  0.00     0.168 C 
HETATM   12  O   UNK N   1      27.579  50.727  56.279  0.00  0.00    -0.292 OA
BRANCH  11  13
HETATM   13  C   UNK N   1      25.541  50.574  57.529  0.00  0.00     0.053 C 
HETATM   14  C   UNK N   1      24.841  51.072  56.257  0.00  0.00     0.018 C 
HETATM   15  C   UNK N   1      24.797  49.352  58.083  0.00  0.00     0.018 C 
ENDBRANCH  11  13
ENDBRANCH   4  11
BRANCH   5  16
HETATM   16  O   UNK N   1      27.828  51.193  59.974  0.00  0.00    -0.354 OA
HETATM   17  C   UNK N   1      28.289  52.441  59.608  0.00  0.00     0.210 C 
ENDBRANCH   5  16
BRANCH   7  18
HETATM   18  O   UNK N   1      30.124  47.069  60.733  0.00  0.00    -0.359 OA
HETATM   19  H   UNK N   1      29.977  46.955  61.681  0.00  0.00     0.217 HD
ENDBRANCH   7  18
ENDBRANCH   1   2
BRANCH   1  20
HETATM   20  C   UNK N   1      28.340  44.825  58.690  0.00  0.00     0.075 C 
HETATM   21  C   UNK N   1      29.193  43.854  59.470  0.00  0.00     0.181 C 
HETATM   22  O   UNK N   1      29.444  44.103  60.641  0.00  0.00    -0.291 OA
HETATM   23  C   UNK N   1      29.794  42.661  58.814  0.00  0.00     0.091 C 
HETATM   24  C   UNK N   1      29.266  42.244  57.625  0.00  0.00     0.091 C 
HETATM   25  C   UNK N   1      28.124  42.972  56.985  0.00  0.00     0.003 C 
HETATM   26  C   UNK N   1      27.702  44.183  57.461  0.00  0.00     0.068 C 
HETATM   27  C   UNK N   1      27.514  42.310  55.760  0.00  0.00     0.054 C 
HETATM   28  C   UNK N   1      27.207  45.345  59.608  0.00  0.00     0.031 C 
BRANCH  23  29
HETATM   29  C   UNK N   1      30.959  41.970  59.490  0.00  0.00     0.169 C 
HETATM   30  O   UNK N   1      30.789  40.925  60.100  0.00  0.00    -0.292 OA
BRANCH  29  31
HETATM   31  C   UNK N   1      32.375  42.528  59.404  0.00  0.00     0.053 C 
HETATM   32  C   UNK N   1      32.473  43.574  58.290  0.00  0.00     0.018 C 
HETATM   33  C   UNK N   1      32.798  43.114  60.753  0.00  0.00     0.018 C 
ENDBRANCH  29  31
ENDBRANCH  23  29
BRANCH  24  34
HETATM   34  O   UNK N   1      29.764  41.180  56.941  0.00  0.00    -0.359 OA
HETATM   35  H   UNK N   1      30.222  41.210  56.096  0.00  0.00     0.218 HD
ENDBRANCH  24  34
BRANCH  26  36
HETATM   36  O   UNK N   1      26.717  44.896  56.849  0.00  0.00    -0.363 OA
HETATM   37  H   UNK N   1      26.213  45.623  57.226  0.00  0.00     0.217 HD
ENDBRANCH  26  36
ENDBRANCH   1  20
TORSDOF 11
ENDMDL
MODEL 9
REMARK VINA RESULT:      -4.3     20.605     22.207
REMARK  11 active torsions:
REMARK  status: ('A' for Active; 'I' for Inactive)
REMARK    1  A    between atoms: O_1  and  C_9 
REMARK    2  A    between atoms: O_2  and  C_10 
REMARK    3  A    between atoms: O_3  and  C_11 
REMARK    4  A    between atoms: O_7  and  C_19 
REMARK    5  A    between atoms: O_8  and  C_20 
REMARK    6  A    between atoms: C_12  and  C_16 
REMARK    7  A    between atoms: C_13  and  C_22 
REMARK    8  A    between atoms: C_15  and  C_22 
REMARK    9  A    between atoms: C_16  and  C_27 
REMARK   10  A    between atoms: C_18  and  C_25 
REMARK   11  A    between atoms: C_18  and  C_28 
ROOT
HETATM    1  C   UNK N   1      50.321  53.092  57.377  0.00  0.00     0.068 C 
ENDROOT
BRANCH   1   2
HETATM    2  C   UNK N   1      51.075  52.010  58.118  0.00  0.00     0.011 A 
HETATM    3  C   UNK N   1      51.475  50.852  57.436  0.00  0.00     0.091 A 
HETATM    4  C   UNK N   1      52.180  49.833  58.113  0.00  0.00     0.078 A 
HETATM    5  C   UNK N   1      52.522  50.002  59.492  0.00  0.00     0.093 A 
HETATM    6  C   UNK N   1      52.113  51.178  60.164  0.00  0.00     0.006 A 
HETATM    7  C   UNK N   1      51.392  52.178  59.477  0.00  0.00     0.083 A 
HETATM    8  C   UNK N   1      52.462  51.381  61.623  0.00  0.00     0.054 C 
BRANCH   3   9
HETATM    9  O   UNK N   1      51.167  50.736  56.120  0.00  0.00    -0.359 OA
HETATM   10  H   UNK N   1      51.819  50.609  55.421  0.00  0.00     0.218 HD
ENDBRANCH   3   9
BRANCH   4  11
HETATM   11  C   UNK N   1      52.502  48.597  57.371  0.00  0.00     0.168 C 
HETATM   12  O   UNK N   1      53.530  48.547  56.709  0.00  0.00    -0.292 OA
BRANCH  11  13
HETATM   13  C   UNK N   1      51.528  47.424  57.394  0.00  0.00     0.053 C 
HETATM   14  C   UNK N   1      50.511  47.574  58.535  0.00  0.00     0.018 C 
HETATM   15  C   UNK N   1      50.787  47.269  56.059  0.00  0.00     0.018 C 
ENDBRANCH  11  13
ENDBRANCH   4  11
BRANCH   5  16
HETATM   16  O   UNK N   1      53.258  49.102  60.208  0.00  0.00    -0.354 OA
HETATM   17  C   UNK N   1      54.622  48.896  60.207  0.00  0.00     0.210 C 
ENDBRANCH   5  16
BRANCH   7  18
HETATM   18  O   UNK N   1      51.001  53.315  60.104  0.00  0.00    -0.359 OA
HETATM   19  H   UNK N   1      50.349  53.345  60.815  0.00  0.00     0.217 HD
ENDBRANCH   7  18
ENDBRANCH   1   2
BRANCH   1  20
HETATM   20  C   UNK N   1      51.195  54.166  56.664  0.00  0.00     0.075 C 
HETATM   21  C   UNK N   1      50.775  55.473  57.292  0.00  0.00     0.181 C 
HETATM   22  O   UNK N   1      51.245  55.779  58.380  0.00  0.00    -0.291 OA
HETATM   23  C   UNK N   1      49.744  56.336  56.655  0.00  0.00     0.091 C 
HETATM   24  C   UNK N   1      49.467  56.140  55.331  0.00  0.00     0.091 C 
HETATM   25  C   UNK N   1      50.167  55.075  54.541  0.00  0.00     0.003 C 
HETATM   26  C   UNK N   1      50.954  54.141  55.157  0.00  0.00     0.068 C 
HETATM   27  C   UNK N   1      49.902  55.073  53.045  0.00  0.00     0.054 C 
HETATM   28  C   UNK N   1      52.707  53.953  56.916  0.00  0.00     0.031 C 
BRANCH  23  29
HETATM   29  C   UNK N   1      49.052  57.385  57.498  0.00  0.00     0.169 C 
HETATM   30  O   UNK N   1      49.527  58.506  57.604  0.00  0.00    -0.292 OA
BRANCH  29  31
HETATM   31  C   UNK N   1      47.733  57.094  58.206  0.00  0.00     0.053 C 
HETATM   32  C   UNK N   1      46.589  57.873  57.552  0.00  0.00     0.018 C 
HETATM   33  C   UNK N   1      47.451  55.589  58.204  0.00  0.00     0.018 C 
ENDBRANCH  29  31
ENDBRANCH  23  29
BRANCH  24  34
HETATM   34  O   UNK N   1      48.525  56.863  54.669  0.00  0.00    -0.359 OA
HETATM   35  H   UNK N   1      48.619  57.257  53.797  0.00  0.00     0.218 HD
ENDBRANCH  24  34
BRANCH  26  36
HETATM   36  O   UNK N   1      51.537  53.121  54.468  0.00  0.00    -0.363 OA
HETATM   37  H   UNK N   1      51.102  52.510  53.867  0.00  0.00     0.217 HD
ENDBRANCH  26  36
ENDBRANCH   1  20
TORSDOF 11
ENDMDL
