MODEL 1
REMARK VINA RESULT:      -6.1      0.000      0.000
REMARK  6 active torsions:
REMARK  status: ('A' for Active; 'I' for Inactive)
REMARK    1  A    between atoms: O_1  and  C_6 
REMARK    2  A    between atoms: O_2  and  C_7 
REMARK    3  A    between atoms: O_3  and  C_8 
REMARK    4  A    between atoms: O_4  and  C_9 
REMARK    5  A    between atoms: C_12  and  C_24 
REMARK    6  A    between atoms: C_18  and  C_24 
ROOT
HETATM    1  N   UNK N   1      45.365  33.874  50.279  0.00  0.00     0.093 N 
HETATM    2  C   UNK N   1      49.290  32.719  47.524  0.00  0.00     0.102 A 
HETATM    3  C   UNK N   1      48.444  32.402  46.455  0.00  0.00     0.102 A 
HETATM    4  C   UNK N   1      47.352  33.129  48.939  0.00  0.00    -0.016 A 
HETATM    5  C   UNK N   1      46.500  32.837  47.852  0.00  0.00    -0.045 A 
HETATM    6  C   UNK N   1      48.746  33.076  48.758  0.00  0.00     0.049 A 
HETATM    7  C   UNK N   1      47.057  32.484  46.613  0.00  0.00     0.047 A 
HETATM    8  C   UNK N   1      46.808  33.514  50.304  0.00  0.00     0.260 C 
HETATM    9  C   UNK N   1      44.571  32.930  49.472  0.00  0.00     0.277 C 
HETATM   10  C   UNK N   1      45.158  35.272  49.857  0.00  0.00     0.310 C 
HETATM   11  C   UNK N   1      45.005  32.902  47.999  0.00  0.00     0.069 C 
ENDROOT
BRANCH   8  12
HETATM   12  C   UNK N   1      47.114  32.368  51.302  0.00  0.00     0.079 C 
BRANCH  12  13
HETATM   13  C   UNK N   1      48.070  32.787  52.385  0.00  0.00    -0.053 A 
HETATM   14  C   UNK N   1      48.063  34.123  52.822  0.00  0.00     0.046 A 
HETATM   15  C   UNK N   1      48.926  34.542  53.838  0.00  0.00     0.099 A 
HETATM   16  C   UNK N   1      49.822  33.627  54.413  0.00  0.00     0.101 A 
HETATM   17  C   UNK N   1      49.846  32.299  53.964  0.00  0.00     0.040 A 
HETATM   18  C   UNK N   1      48.966  31.876  52.961  0.00  0.00     0.010 A 
BRANCH  15  19
HETATM   19  O   UNK N   1      48.900  35.824  54.265  0.00  0.00    -0.358 OA
HETATM   20  H   UNK N   1      48.462  36.519  53.753  0.00  0.00     0.218 HD
ENDBRANCH  15  19
BRANCH  16  21
HETATM   21  O   UNK N   1      50.661  34.013  55.395  0.00  0.00    -0.353 OA
HETATM   22  C   UNK N   1      52.027  33.994  55.218  0.00  0.00     0.210 C 
ENDBRANCH  16  21
ENDBRANCH  12  13
ENDBRANCH   8  12
BRANCH   2  23
HETATM   23  O   UNK N   1      50.632  32.687  47.359  0.00  0.00    -0.353 OA
HETATM   24  C   UNK N   1      51.434  33.686  47.869  0.00  0.00     0.210 C 
ENDBRANCH   2  23
BRANCH   3  25
HETATM   25  O   UNK N   1      48.961  32.014  45.272  0.00  0.00    -0.353 OA
HETATM   26  C   UNK N   1      48.974  30.682  44.917  0.00  0.00     0.210 C 
ENDBRANCH   3  25
TORSDOF 6
ENDMDL
MODEL 2
REMARK VINA RESULT:      -6.0     13.968     16.698
REMARK  6 active torsions:
REMARK  status: ('A' for Active; 'I' for Inactive)
REMARK    1  A    between atoms: O_1  and  C_6 
REMARK    2  A    between atoms: O_2  and  C_7 
REMARK    3  A    between atoms: O_3  and  C_8 
REMARK    4  A    between atoms: O_4  and  C_9 
REMARK    5  A    between atoms: C_12  and  C_24 
REMARK    6  A    between atoms: C_18  and  C_24 
ROOT
HETATM    1  N   UNK N   1      41.571  45.745  46.647  0.00  0.00     0.093 N 
HETATM    2  C   UNK N   1      38.882  49.303  44.538  0.00  0.00     0.102 A 
HETATM    3  C   UNK N   1      40.019  50.116  44.465  0.00  0.00     0.102 A 
HETATM    4  C   UNK N   1      40.166  47.612  45.729  0.00  0.00    -0.016 A 
HETATM    5  C   UNK N   1      41.319  48.420  45.629  0.00  0.00    -0.045 A 
HETATM    6  C   UNK N   1      38.956  48.061  45.171  0.00  0.00     0.049 A 
HETATM    7  C   UNK N   1      41.236  49.665  44.987  0.00  0.00     0.047 A 
HETATM    8  C   UNK N   1      40.194  46.256  46.415  0.00  0.00     0.260 C 
HETATM    9  C   UNK N   1      42.471  46.790  47.169  0.00  0.00     0.277 C 
HETATM   10  C   UNK N   1      42.121  45.092  45.444  0.00  0.00     0.310 C 
HETATM   11  C   UNK N   1      42.636  47.967  46.196  0.00  0.00     0.069 C 
ENDROOT
BRANCH   8  12
HETATM   12  C   UNK N   1      39.368  46.345  47.724  0.00  0.00     0.079 C 
BRANCH  12  13
HETATM   13  C   UNK N   1      39.922  45.472  48.816  0.00  0.00    -0.053 A 
HETATM   14  C   UNK N   1      40.906  45.993  49.674  0.00  0.00     0.046 A 
HETATM   15  C   UNK N   1      41.431  45.216  50.709  0.00  0.00     0.099 A 
HETATM   16  C   UNK N   1      40.986  43.895  50.882  0.00  0.00     0.101 A 
HETATM   17  C   UNK N   1      40.021  43.365  50.015  0.00  0.00     0.040 A 
HETATM   18  C   UNK N   1      39.481  44.152  48.992  0.00  0.00     0.010 A 
BRANCH  15  19
HETATM   19  O   UNK N   1      42.363  45.731  51.540  0.00  0.00    -0.358 OA
HETATM   20  H   UNK N   1      42.218  46.567  52.007  0.00  0.00     0.218 HD
ENDBRANCH  15  19
BRANCH  16  21
HETATM   21  O   UNK N   1      41.480  43.130  51.877  0.00  0.00    -0.353 OA
HETATM   22  C   UNK N   1      40.920  43.145  53.135  0.00  0.00     0.210 C 
ENDBRANCH  16  21
ENDBRANCH  12  13
ENDBRANCH   8  12
BRANCH   2  23
HETATM   23  O   UNK N   1      37.717  49.716  43.992  0.00  0.00    -0.353 OA
HETATM   24  C   UNK N   1      37.223  49.131  42.845  0.00  0.00     0.210 C 
ENDBRANCH   2  23
BRANCH   3  25
HETATM   25  O   UNK N   1      39.946  51.336  43.895  0.00  0.00    -0.353 OA
HETATM   26  C   UNK N   1      39.999  51.472  42.524  0.00  0.00     0.210 C 
ENDBRANCH   3  25
TORSDOF 6
ENDMDL
MODEL 3
REMARK VINA RESULT:      -5.9      1.770      6.787
REMARK  6 active torsions:
REMARK  status: ('A' for Active; 'I' for Inactive)
REMARK    1  A    between atoms: O_1  and  C_6 
REMARK    2  A    between atoms: O_2  and  C_7 
REMARK    3  A    between atoms: O_3  and  C_8 
REMARK    4  A    between atoms: O_4  and  C_9 
REMARK    5  A    between atoms: C_12  and  C_24 
REMARK    6  A    between atoms: C_18  and  C_24 
ROOT
HETATM    1  N   UNK N   1      45.245  33.057  48.736  0.00  0.00     0.093 N 
HETATM    2  C   UNK N   1      49.308  32.875  51.527  0.00  0.00     0.102 A 
HETATM    3  C   UNK N   1      48.688  33.692  52.480  0.00  0.00     0.102 A 
HETATM    4  C   UNK N   1      47.370  33.099  50.071  0.00  0.00    -0.016 A 
HETATM    5  C   UNK N   1      46.734  33.898  51.045  0.00  0.00    -0.045 A 
HETATM    6  C   UNK N   1      48.654  32.585  50.329  0.00  0.00     0.049 A 
HETATM    7  C   UNK N   1      47.398  34.180  52.249  0.00  0.00     0.047 A 
HETATM    8  C   UNK N   1      46.702  32.763  48.749  0.00  0.00     0.260 C 
HETATM    9  C   UNK N   1      44.938  34.367  49.340  0.00  0.00     0.277 C 
HETATM   10  C   UNK N   1      44.462  31.969  49.351  0.00  0.00     0.310 C 
HETATM   11  C   UNK N   1      45.353  34.450  50.816  0.00  0.00     0.069 C 
ENDROOT
BRANCH   8  12
HETATM   12  C   UNK N   1      47.462  33.490  47.610  0.00  0.00     0.079 C 
BRANCH  12  13
HETATM   13  C   UNK N   1      48.265  32.546  46.758  0.00  0.00    -0.053 A 
HETATM   14  C   UNK N   1      47.597  31.714  45.843  0.00  0.00     0.046 A 
HETATM   15  C   UNK N   1      48.313  30.838  45.025  0.00  0.00     0.099 A 
HETATM   16  C   UNK N   1      49.712  30.772  45.131  0.00  0.00     0.101 A 
HETATM   17  C   UNK N   1      50.379  31.585  46.058  0.00  0.00     0.040 A 
HETATM   18  C   UNK N   1      49.662  32.477  46.861  0.00  0.00     0.010 A 
BRANCH  15  19
HETATM   19  O   UNK N   1      47.663  30.056  44.135  0.00  0.00    -0.358 OA
HETATM   20  H   UNK N   1      47.371  30.398  43.278  0.00  0.00     0.218 HD
ENDBRANCH  15  19
BRANCH  16  21
HETATM   21  O   UNK N   1      50.420  29.933  44.348  0.00  0.00    -0.353 OA
HETATM   22  C   UNK N   1      51.660  30.284  43.862  0.00  0.00     0.210 C 
ENDBRANCH  16  21
ENDBRANCH  12  13
ENDBRANCH   8  12
BRANCH   2  23
HETATM   23  O   UNK N   1      50.535  32.362  51.770  0.00  0.00    -0.353 OA
HETATM   24  C   UNK N   1      51.647  32.837  51.105  0.00  0.00     0.210 C 
ENDBRANCH   2  23
BRANCH   3  25
HETATM   25  O   UNK N   1      49.331  34.012  53.621  0.00  0.00    -0.353 OA
HETATM   26  C   UNK N   1      49.080  33.317  54.785  0.00  0.00     0.210 C 
ENDBRANCH   3  25
TORSDOF 6
ENDMDL
MODEL 4
REMARK VINA RESULT:      -5.8     11.688     15.050
REMARK  6 active torsions:
REMARK  status: ('A' for Active; 'I' for Inactive)
REMARK    1  A    between atoms: O_1  and  C_6 
REMARK    2  A    between atoms: O_2  and  C_7 
REMARK    3  A    between atoms: O_3  and  C_8 
REMARK    4  A    between atoms: O_4  and  C_9 
REMARK    5  A    between atoms: C_12  and  C_24 
REMARK    6  A    between atoms: C_18  and  C_24 
ROOT
HETATM    1  N   UNK N   1      40.141  46.984  46.219  0.00  0.00     0.093 N 
HETATM    2  C   UNK N   1      40.537  44.889  50.668  0.00  0.00     0.102 A 
HETATM    3  C   UNK N   1      41.818  45.435  50.809  0.00  0.00     0.102 A 
HETATM    4  C   UNK N   1      40.405  45.780  48.406  0.00  0.00    -0.016 A 
HETATM    5  C   UNK N   1      41.684  46.355  48.560  0.00  0.00    -0.045 A 
HETATM    6  C   UNK N   1      39.838  45.058  49.472  0.00  0.00     0.049 A 
HETATM    7  C   UNK N   1      42.377  46.184  49.768  0.00  0.00     0.047 A 
HETATM    8  C   UNK N   1      39.608  45.929  47.121  0.00  0.00     0.260 C 
HETATM    9  C   UNK N   1      41.611  46.927  46.106  0.00  0.00     0.277 C 
HETATM   10  C   UNK N   1      39.670  48.326  46.609  0.00  0.00     0.310 C 
HETATM   11  C   UNK N   1      42.316  47.152  47.452  0.00  0.00     0.069 C 
ENDROOT
BRANCH   8  12
HETATM   12  C   UNK N   1      39.522  44.546  46.427  0.00  0.00     0.079 C 
BRANCH  12  13
HETATM   13  C   UNK N   1      40.844  44.099  45.865  0.00  0.00    -0.053 A 
HETATM   14  C   UNK N   1      41.707  43.338  46.672  0.00  0.00     0.046 A 
HETATM   15  C   UNK N   1      42.934  42.892  46.176  0.00  0.00     0.099 A 
HETATM   16  C   UNK N   1      43.320  43.225  44.867  0.00  0.00     0.101 A 
HETATM   17  C   UNK N   1      42.470  44.003  44.068  0.00  0.00     0.040 A 
HETATM   18  C   UNK N   1      41.232  44.430  44.558  0.00  0.00     0.010 A 
BRANCH  15  19
HETATM   19  O   UNK N   1      43.749  42.145  46.953  0.00  0.00    -0.358 OA
HETATM   20  H   UNK N   1      43.408  41.413  47.487  0.00  0.00     0.218 HD
ENDBRANCH  15  19
BRANCH  16  21
HETATM   21  O   UNK N   1      44.500  42.803  44.372  0.00  0.00    -0.353 OA
HETATM   22  C   UNK N   1      44.712  41.477  44.063  0.00  0.00     0.210 C 
ENDBRANCH  16  21
ENDBRANCH  12  13
ENDBRANCH   8  12
BRANCH   2  23
HETATM   23  O   UNK N   1      39.975  44.206  51.690  0.00  0.00    -0.353 OA
HETATM   24  C   UNK N   1      40.262  42.873  51.896  0.00  0.00     0.210 C 
ENDBRANCH   2  23
BRANCH   3  25
HETATM   25  O   UNK N   1      42.518  45.239  51.944  0.00  0.00    -0.353 OA
HETATM   26  C   UNK N   1      42.087  45.784  53.135  0.00  0.00     0.210 C 
ENDBRANCH   3  25
TORSDOF 6
ENDMDL
MODEL 5
REMARK VINA RESULT:      -5.8     13.461     16.426
REMARK  6 active torsions:
REMARK  status: ('A' for Active; 'I' for Inactive)
REMARK    1  A    between atoms: O_1  and  C_6 
REMARK    2  A    between atoms: O_2  and  C_7 
REMARK    3  A    between atoms: O_3  and  C_8 
REMARK    4  A    between atoms: O_4  and  C_9 
REMARK    5  A    between atoms: C_12  and  C_24 
REMARK    6  A    between atoms: C_18  and  C_24 
ROOT
HETATM    1  N   UNK N   1      39.414  45.778  48.661  0.00  0.00     0.093 N 
HETATM    2  C   UNK N   1      42.191  43.595  45.218  0.00  0.00     0.102 A 
HETATM    3  C   UNK N   1      42.606  42.644  46.158  0.00  0.00     0.102 A 
HETATM    4  C   UNK N   1      40.953  44.772  46.953  0.00  0.00    -0.016 A 
HETATM    5  C   UNK N   1      41.347  43.796  47.893  0.00  0.00    -0.045 A 
HETATM    6  C   UNK N   1      41.374  44.654  45.615  0.00  0.00     0.049 A 
HETATM    7  C   UNK N   1      42.165  42.733  47.483  0.00  0.00     0.047 A 
HETATM    8  C   UNK N   1      40.072  45.948  47.338  0.00  0.00     0.260 C 
HETATM    9  C   UNK N   1      40.346  45.263  49.682  0.00  0.00     0.277 C 
HETATM   10  C   UNK N   1      38.193  44.958  48.564  0.00  0.00     0.310 C 
HETATM   11  C   UNK N   1      40.903  43.876  49.327  0.00  0.00     0.069 C 
ENDROOT
BRANCH   8  12
HETATM   12  C   UNK N   1      40.913  47.247  47.258  0.00  0.00     0.079 C 
BRANCH  12  13
HETATM   13  C   UNK N   1      40.500  48.132  46.113  0.00  0.00    -0.053 A 
HETATM   14  C   UNK N   1      39.333  47.819  45.395  0.00  0.00     0.046 A 
HETATM   15  C   UNK N   1      38.911  48.628  44.338  0.00  0.00     0.099 A 
HETATM   16  C   UNK N   1      39.671  49.753  43.975  0.00  0.00     0.101 A 
HETATM   17  C   UNK N   1      40.846  50.055  44.676  0.00  0.00     0.040 A 
HETATM   18  C   UNK N   1      41.256  49.256  45.749  0.00  0.00     0.010 A 
BRANCH  15  19
HETATM   19  O   UNK N   1      37.778  48.330  43.664  0.00  0.00    -0.358 OA
HETATM   20  H   UNK N   1      37.796  48.085  42.728  0.00  0.00     0.218 HD
ENDBRANCH  15  19
BRANCH  16  21
HETATM   21  O   UNK N   1      39.278  50.546  42.958  0.00  0.00    -0.353 OA
HETATM   22  C   UNK N   1      39.897  51.753  42.713  0.00  0.00     0.210 C 
ENDBRANCH  16  21
ENDBRANCH  12  13
ENDBRANCH   8  12
BRANCH   2  23
HETATM   23  O   UNK N   1      42.576  43.484  43.927  0.00  0.00    -0.353 OA
HETATM   24  C   UNK N   1      42.399  44.526  43.041  0.00  0.00     0.210 C 
ENDBRANCH   2  23
BRANCH   3  25
HETATM   25  O   UNK N   1      43.431  41.642  45.792  0.00  0.00    -0.353 OA
HETATM   26  C   UNK N   1      44.792  41.848  45.720  0.00  0.00     0.210 C 
ENDBRANCH   3  25
TORSDOF 6
ENDMDL
MODEL 6
REMARK VINA RESULT:      -5.5     26.121     28.981
REMARK  6 active torsions:
REMARK  status: ('A' for Active; 'I' for Inactive)
REMARK    1  A    between atoms: O_1  and  C_6 
REMARK    2  A    between atoms: O_2  and  C_7 
REMARK    3  A    between atoms: O_3  and  C_8 
REMARK    4  A    between atoms: O_4  and  C_9 
REMARK    5  A    between atoms: C_12  and  C_24 
REMARK    6  A    between atoms: C_18  and  C_24 
ROOT
HETATM    1  N   UNK N   1      29.471  57.213  40.825  0.00  0.00     0.093 N 
HETATM    2  C   UNK N   1      29.369  52.301  40.383  0.00  0.00     0.102 A 
HETATM    3  C   UNK N   1      28.196  52.395  39.624  0.00  0.00     0.102 A 
HETATM    4  C   UNK N   1      29.331  54.708  40.745  0.00  0.00    -0.016 A 
HETATM    5  C   UNK N   1      28.165  54.806  39.955  0.00  0.00    -0.045 A 
HETATM    6  C   UNK N   1      29.928  53.450  40.942  0.00  0.00     0.049 A 
HETATM    7  C   UNK N   1      27.612  53.645  39.392  0.00  0.00     0.047 A 
HETATM    8  C   UNK N   1      29.973  55.928  41.382  0.00  0.00     0.260 C 
HETATM    9  C   UNK N   1      28.004  57.217  40.674  0.00  0.00     0.277 C 
HETATM   10  C   UNK N   1      30.157  57.569  39.569  0.00  0.00     0.310 C 
HETATM   11  C   UNK N   1      27.507  56.135  39.703  0.00  0.00     0.069 C 
ENDROOT
BRANCH   8  12
HETATM   12  C   UNK N   1      29.792  55.839  42.919  0.00  0.00     0.079 C 
BRANCH  12  13
HETATM   13  C   UNK N   1      30.897  55.066  43.586  0.00  0.00    -0.053 A 
HETATM   14  C   UNK N   1      32.230  55.455  43.368  0.00  0.00     0.046 A 
HETATM   15  C   UNK N   1      33.279  54.770  43.985  0.00  0.00     0.099 A 
HETATM   16  C   UNK N   1      33.002  53.670  44.813  0.00  0.00     0.101 A 
HETATM   17  C   UNK N   1      31.674  53.267  45.014  0.00  0.00     0.040 A 
HETATM   18  C   UNK N   1      30.623  53.967  44.413  0.00  0.00     0.010 A 
BRANCH  15  19
HETATM   19  O   UNK N   1      34.557  55.162  43.785  0.00  0.00    -0.358 OA
HETATM   20  H   UNK N   1      34.984  55.809  44.364  0.00  0.00     0.218 HD
ENDBRANCH  15  19
BRANCH  16  21
HETATM   21  O   UNK N   1      34.002  52.998  45.418  0.00  0.00    -0.353 OA
HETATM   22  C   UNK N   1      34.265  51.680  45.113  0.00  0.00     0.210 C 
ENDBRANCH  16  21
ENDBRANCH  12  13
ENDBRANCH   8  12
BRANCH   2  23
HETATM   23  O   UNK N   1      29.961  51.100  40.567  0.00  0.00    -0.353 OA
HETATM   24  C   UNK N   1      31.282  51.011  40.953  0.00  0.00     0.210 C 
ENDBRANCH   2  23
BRANCH   3  25
HETATM   25  O   UNK N   1      27.624  51.285  39.116  0.00  0.00    -0.353 OA
HETATM   26  C   UNK N   1      26.439  51.365  38.416  0.00  0.00     0.210 C 
ENDBRANCH   3  25
TORSDOF 6
ENDMDL
MODEL 7
REMARK VINA RESULT:      -5.4     13.489     17.041
REMARK  6 active torsions:
REMARK  status: ('A' for Active; 'I' for Inactive)
REMARK    1  A    between atoms: O_1  and  C_6 
REMARK    2  A    between atoms: O_2  and  C_7 
REMARK    3  A    between atoms: O_3  and  C_8 
REMARK    4  A    between atoms: O_4  and  C_9 
REMARK    5  A    between atoms: C_12  and  C_24 
REMARK    6  A    between atoms: C_18  and  C_24 
ROOT
HETATM    1  N   UNK N   1      40.882  45.646  46.583  0.00  0.00     0.093 N 
HETATM    2  C   UNK N   1      41.799  44.936  51.378  0.00  0.00     0.102 A 
HETATM    3  C   UNK N   1      40.935  43.835  51.378  0.00  0.00     0.102 A 
HETATM    4  C   UNK N   1      41.221  45.391  49.057  0.00  0.00    -0.016 A 
HETATM    5  C   UNK N   1      40.373  44.263  49.050  0.00  0.00    -0.045 A 
HETATM    6  C   UNK N   1      41.937  45.711  50.225  0.00  0.00     0.049 A 
HETATM    7  C   UNK N   1      40.245  43.488  50.212  0.00  0.00     0.047 A 
HETATM    8  C   UNK N   1      41.397  46.270  47.830  0.00  0.00     0.260 C 
HETATM    9  C   UNK N   1      39.565  45.013  46.782  0.00  0.00     0.277 C 
HETATM   10  C   UNK N   1      41.860  44.712  45.994  0.00  0.00     0.310 C 
HETATM   11  C   UNK N   1      39.606  43.876  47.815  0.00  0.00     0.069 C 
ENDROOT
BRANCH   8  12
HETATM   12  C   UNK N   1      40.752  47.651  48.111  0.00  0.00     0.079 C 
BRANCH  12  13
HETATM   13  C   UNK N   1      40.547  48.458  46.859  0.00  0.00    -0.053 A 
HETATM   14  C   UNK N   1      39.268  48.965  46.575  0.00  0.00     0.046 A 
HETATM   15  C   UNK N   1      39.046  49.733  45.429  0.00  0.00     0.099 A 
HETATM   16  C   UNK N   1      40.106  49.983  44.542  0.00  0.00     0.101 A 
HETATM   17  C   UNK N   1      41.378  49.459  44.812  0.00  0.00     0.040 A 
HETATM   18  C   UNK N   1      41.603  48.709  45.971  0.00  0.00     0.010 A 
BRANCH  15  19
HETATM   19  O   UNK N   1      37.817  50.233  45.174  0.00  0.00    -0.358 OA
HETATM   20  H   UNK N   1      37.215  49.802  44.550  0.00  0.00     0.218 HD
ENDBRANCH  15  19
BRANCH  16  21
HETATM   21  O   UNK N   1      39.911  50.723  43.432  0.00  0.00    -0.353 OA
HETATM   22  C   UNK N   1      39.221  50.221  42.350  0.00  0.00     0.210 C 
ENDBRANCH  16  21
ENDBRANCH  12  13
ENDBRANCH   8  12
BRANCH   2  23
HETATM   23  O   UNK N   1      42.504  45.245  52.489  0.00  0.00    -0.353 OA
HETATM   24  C   UNK N   1      41.910  45.899  53.548  0.00  0.00     0.210 C 
ENDBRANCH   2  23
BRANCH   3  25
HETATM   25  O   UNK N   1      40.763  43.108  52.500  0.00  0.00    -0.353 OA
HETATM   26  C   UNK N   1      39.557  43.126  53.168  0.00  0.00     0.210 C 
ENDBRANCH   3  25
TORSDOF 6
ENDMDL
MODEL 8
REMARK VINA RESULT:      -5.1     26.698     29.615
REMARK  6 active torsions:
REMARK  status: ('A' for Active; 'I' for Inactive)
REMARK    1  A    between atoms: O_1  and  C_6 
REMARK    2  A    between atoms: O_2  and  C_7 
REMARK    3  A    between atoms: O_3  and  C_8 
REMARK    4  A    between atoms: O_4  and  C_9 
REMARK    5  A    between atoms: C_12  and  C_24 
REMARK    6  A    between atoms: C_18  and  C_24 
ROOT
HETATM    1  N   UNK N   1      30.766  55.844  40.020  0.00  0.00     0.093 N 
HETATM    2  C   UNK N   1      26.642  53.241  40.756  0.00  0.00     0.102 A 
HETATM    3  C   UNK N   1      25.956  54.079  39.870  0.00  0.00     0.102 A 
HETATM    4  C   UNK N   1      28.633  54.622  40.525  0.00  0.00    -0.016 A 
HETATM    5  C   UNK N   1      27.950  55.449  39.609  0.00  0.00    -0.045 A 
HETATM    6  C   UNK N   1      27.970  53.514  41.084  0.00  0.00     0.049 A 
HETATM    7  C   UNK N   1      26.616  55.164  39.282  0.00  0.00     0.047 A 
HETATM    8  C   UNK N   1      30.077  54.883  40.920  0.00  0.00     0.260 C 
HETATM    9  C   UNK N   1      29.924  57.014  39.708  0.00  0.00     0.277 C 
HETATM   10  C   UNK N   1      31.270  55.186  38.800  0.00  0.00     0.310 C 
HETATM   11  C   UNK N   1      28.629  56.632  38.975  0.00  0.00     0.069 C 
ENDROOT
BRANCH   8  12
HETATM   12  C   UNK N   1      30.113  55.331  42.404  0.00  0.00     0.079 C 
BRANCH  12  13
HETATM   13  C   UNK N   1      31.157  54.600  43.202  0.00  0.00    -0.053 A 
HETATM   14  C   UNK N   1      32.029  55.336  44.022  0.00  0.00     0.046 A 
HETATM   15  C   UNK N   1      32.999  54.687  44.790  0.00  0.00     0.099 A 
HETATM   16  C   UNK N   1      33.117  53.289  44.727  0.00  0.00     0.101 A 
HETATM   17  C   UNK N   1      32.262  52.555  43.894  0.00  0.00     0.040 A 
HETATM   18  C   UNK N   1      31.277  53.204  43.142  0.00  0.00     0.010 A 
BRANCH  15  19
HETATM   19  O   UNK N   1      33.822  55.401  45.589  0.00  0.00    -0.358 OA
HETATM   20  H   UNK N   1      33.610  55.561  46.520  0.00  0.00     0.218 HD
ENDBRANCH  15  19
BRANCH  16  21
HETATM   21  O   UNK N   1      34.046  52.646  45.462  0.00  0.00    -0.353 OA
HETATM   22  C   UNK N   1      34.418  51.351  45.172  0.00  0.00     0.210 C 
ENDBRANCH  16  21
ENDBRANCH  12  13
ENDBRANCH   8  12
BRANCH   2  23
HETATM   23  O   UNK N   1      26.020  52.164  41.288  0.00  0.00    -0.353 OA
HETATM   24  C   UNK N   1      26.293  50.891  40.834  0.00  0.00     0.210 C 
ENDBRANCH   2  23
BRANCH   3  25
HETATM   25  O   UNK N   1      24.659  53.848  39.582  0.00  0.00    -0.353 OA
HETATM   26  C   UNK N   1      24.309  53.140  38.452  0.00  0.00     0.210 C 
ENDBRANCH   3  25
TORSDOF 6
ENDMDL
MODEL 9
REMARK VINA RESULT:      -4.9     20.435     23.853
REMARK  6 active torsions:
REMARK  status: ('A' for Active; 'I' for Inactive)
REMARK    1  A    between atoms: O_1  and  C_6 
REMARK    2  A    between atoms: O_2  and  C_7 
REMARK    3  A    between atoms: O_3  and  C_8 
REMARK    4  A    between atoms: O_4  and  C_9 
REMARK    5  A    between atoms: C_12  and  C_24 
REMARK    6  A    between atoms: C_18  and  C_24 
ROOT
HETATM    1  N   UNK N   1      37.935  46.652  62.824  0.00  0.00     0.093 N 
HETATM    2  C   UNK N   1      33.767  48.890  64.222  0.00  0.00     0.102 A 
HETATM    3  C   UNK N   1      34.500  49.711  65.087  0.00  0.00     0.102 A 
HETATM    4  C   UNK N   1      35.797  47.672  63.655  0.00  0.00    -0.016 A 
HETATM    5  C   UNK N   1      36.540  48.519  64.504  0.00  0.00    -0.045 A 
HETATM    6  C   UNK N   1      34.412  47.875  63.514  0.00  0.00     0.049 A 
HETATM    7  C   UNK N   1      35.883  49.540  65.208  0.00  0.00     0.047 A 
HETATM    8  C   UNK N   1      36.452  46.548  62.870  0.00  0.00     0.260 C 
HETATM    9  C   UNK N   1      38.509  46.988  64.140  0.00  0.00     0.277 C 
HETATM   10  C   UNK N   1      38.385  47.583  61.772  0.00  0.00     0.310 C 
HETATM   11  C   UNK N   1      38.025  48.348  64.667  0.00  0.00     0.069 C 
ENDROOT
BRANCH   8  12
HETATM   12  C   UNK N   1      35.973  45.193  63.449  0.00  0.00     0.079 C 
BRANCH  12  13
HETATM   13  C   UNK N   1      35.049  44.461  62.515  0.00  0.00    -0.053 A 
HETATM   14  C   UNK N   1      35.504  44.127  61.227  0.00  0.00     0.046 A 
HETATM   15  C   UNK N   1      34.678  43.433  60.340  0.00  0.00     0.099 A 
HETATM   16  C   UNK N   1      33.375  43.082  60.730  0.00  0.00     0.101 A 
HETATM   17  C   UNK N   1      32.912  43.433  62.006  0.00  0.00     0.040 A 
HETATM   18  C   UNK N   1      33.747  44.109  62.901  0.00  0.00     0.010 A 
BRANCH  15  19
HETATM   19  O   UNK N   1      35.130  43.100  59.111  0.00  0.00    -0.358 OA
HETATM   20  H   UNK N   1      35.842  43.597  58.682  0.00  0.00     0.218 HD
ENDBRANCH  15  19
BRANCH  16  21
HETATM   21  O   UNK N   1      32.565  42.411  59.888  0.00  0.00    -0.353 OA
HETATM   22  C   UNK N   1      32.076  41.163  60.208  0.00  0.00     0.210 C 
ENDBRANCH  16  21
ENDBRANCH  12  13
ENDBRANCH   8  12
BRANCH   2  23
HETATM   23  O   UNK N   1      32.438  49.085  64.067  0.00  0.00    -0.353 OA
HETATM   24  C   UNK N   1      31.565  48.019  64.023  0.00  0.00     0.210 C 
ENDBRANCH   2  23
BRANCH   3  25
HETATM   25  O   UNK N   1      33.877  50.665  65.808  0.00  0.00    -0.353 OA
HETATM   26  C   UNK N   1      34.001  51.994  65.463  0.00  0.00     0.210 C 
ENDBRANCH   3  25
TORSDOF 6
ENDMDL
