MODEL 1
REMARK VINA RESULT:      -5.5      0.000      0.000
REMARK  8 active torsions:
REMARK  status: ('A' for Active; 'I' for Inactive)
REMARK    1  A    between atoms: O_1  and  C_7 
REMARK    2  A    between atoms: O_2  and  C_8 
REMARK    3  A    between atoms: O_3  and  C_9 
REMARK    4  A    between atoms: O_4  and  C_13 
REMARK    5  A    between atoms: O_5  and  C_14 
REMARK    6  A    between atoms: C_10  and  C_15 
REMARK    7  A    between atoms: C_23  and  C_28 
REMARK    8  A    between atoms: C_26  and  C_28 
ROOT
HETATM    1  O   UNK N   1      26.884  53.853  37.864  0.00  0.00    -0.294 OA
HETATM    2  C   UNK N   1      28.300  55.376  39.086  0.00  0.00     0.143 C 
HETATM    3  C   UNK N   1      27.411  53.561  41.243  0.00  0.00     0.159 C 
HETATM    4  C   UNK N   1      29.502  53.300  39.731  0.00  0.00     0.040 C 
HETATM    5  C   UNK N   1      29.740  54.784  39.261  0.00  0.00     0.037 C 
HETATM    6  C   UNK N   1      27.984  53.110  39.872  0.00  0.00     0.101 C 
HETATM    7  C   UNK N   1      27.568  54.103  38.844  0.00  0.00     0.173 C 
HETATM    8  C   UNK N   1      27.401  55.072  41.436  0.00  0.00    -0.048 C 
HETATM    9  C   UNK N   1      27.760  55.903  40.425  0.00  0.00     0.025 C 
HETATM   10  C   UNK N   1      30.580  54.775  37.963  0.00  0.00     0.014 C 
ENDROOT
BRANCH   4  11
HETATM   11  C   UNK N   1      30.369  52.770  40.862  0.00  0.00    -0.047 A 
HETATM   12  C   UNK N   1      30.733  53.591  41.941  0.00  0.00     0.047 A 
HETATM   13  C   UNK N   1      31.565  53.104  42.967  0.00  0.00     0.104 A 
HETATM   14  C   UNK N   1      32.026  51.779  42.932  0.00  0.00     0.135 A 
HETATM   15  C   UNK N   1      31.607  50.930  41.875  0.00  0.00     0.104 A 
HETATM   16  C   UNK N   1      30.800  51.436  40.847  0.00  0.00     0.047 A 
BRANCH  13  17
HETATM   17  O   UNK N   1      31.957  53.890  44.008  0.00  0.00    -0.353 OA
HETATM   18  C   UNK N   1      31.200  54.174  45.124  0.00  0.00     0.210 C 
ENDBRANCH  13  17
BRANCH  14  19
HETATM   19  O   UNK N   1      32.865  51.381  43.929  0.00  0.00    -0.351 OA
HETATM   20  C   UNK N   1      34.229  51.186  43.844  0.00  0.00     0.210 C 
ENDBRANCH  14  19
BRANCH  15  21
HETATM   21  O   UNK N   1      31.952  49.625  41.850  0.00  0.00    -0.353 OA
HETATM   22  C   UNK N   1      31.150  48.700  41.208  0.00  0.00     0.210 C 
ENDBRANCH  15  21
ENDBRANCH   4  11
BRANCH   2  23
HETATM   23  O   UNK N   1      28.147  56.298  38.009  0.00  0.00    -0.373 OA
HETATM   24  C   UNK N   1      27.484  57.492  38.389  0.00  0.00     0.203 C 
ENDBRANCH   2  23
BRANCH   3  25
HETATM   25  O   UNK N   1      26.072  53.141  41.323  0.00  0.00    -0.390 OA
HETATM   26  H   UNK N   1      25.662  53.611  42.096  0.00  0.00     0.210 HD
ENDBRANCH   3  25
BRANCH   8  27
HETATM   27  C   UNK N   1      26.835  55.631  42.723  0.00  0.00     0.063 C 
BRANCH  27  28
HETATM   28  C   UNK N   1      26.167  56.968  42.533  0.00  0.00    -0.033 C 
HETATM   29  C   UNK N   1      25.145  57.339  43.313  0.00  0.00     0.007 C 
ENDBRANCH  27  28
ENDBRANCH   8  27
TORSDOF 8
ENDMDL
MODEL 2
REMARK VINA RESULT:      -5.5      0.231      2.384
REMARK  8 active torsions:
REMARK  status: ('A' for Active; 'I' for Inactive)
REMARK    1  A    between atoms: O_1  and  C_7 
REMARK    2  A    between atoms: O_2  and  C_8 
REMARK    3  A    between atoms: O_3  and  C_9 
REMARK    4  A    between atoms: O_4  and  C_13 
REMARK    5  A    between atoms: O_5  and  C_14 
REMARK    6  A    between atoms: C_10  and  C_15 
REMARK    7  A    between atoms: C_23  and  C_28 
REMARK    8  A    between atoms: C_26  and  C_28 
ROOT
HETATM    1  O   UNK N   1      26.936  53.882  37.967  0.00  0.00    -0.294 OA
HETATM    2  C   UNK N   1      28.329  55.431  39.181  0.00  0.00     0.143 C 
HETATM    3  C   UNK N   1      27.454  53.624  41.350  0.00  0.00     0.159 C 
HETATM    4  C   UNK N   1      29.553  53.375  39.847  0.00  0.00     0.040 C 
HETATM    5  C   UNK N   1      29.776  54.857  39.366  0.00  0.00     0.037 C 
HETATM    6  C   UNK N   1      28.037  53.168  39.984  0.00  0.00     0.101 C 
HETATM    7  C   UNK N   1      27.613  54.148  38.947  0.00  0.00     0.173 C 
HETATM    8  C   UNK N   1      27.426  55.136  41.531  0.00  0.00    -0.048 C 
HETATM    9  C   UNK N   1      27.779  55.963  40.514  0.00  0.00     0.025 C 
HETATM   10  C   UNK N   1      30.620  54.848  38.071  0.00  0.00     0.014 C 
ENDROOT
BRANCH   4  11
HETATM   11  C   UNK N   1      30.422  52.864  40.985  0.00  0.00    -0.047 A 
HETATM   12  C   UNK N   1      30.899  51.543  40.995  0.00  0.00     0.047 A 
HETATM   13  C   UNK N   1      31.673  51.066  42.070  0.00  0.00     0.104 A 
HETATM   14  C   UNK N   1      31.997  51.917  43.138  0.00  0.00     0.135 A 
HETATM   15  C   UNK N   1      31.569  53.270  43.098  0.00  0.00     0.104 A 
HETATM   16  C   UNK N   1      30.777  53.722  42.035  0.00  0.00     0.047 A 
BRANCH  13  17
HETATM   17  O   UNK N   1      32.121  49.781  42.118  0.00  0.00    -0.353 OA
HETATM   18  C   UNK N   1      31.429  48.676  41.671  0.00  0.00     0.210 C 
ENDBRANCH  13  17
BRANCH  14  19
HETATM   19  O   UNK N   1      32.710  51.384  44.170  0.00  0.00    -0.351 OA
HETATM   20  C   UNK N   1      34.083  51.366  44.313  0.00  0.00     0.210 C 
ENDBRANCH  14  19
BRANCH  15  21
HETATM   21  O   UNK N   1      31.934  54.145  44.059  0.00  0.00    -0.353 OA
HETATM   22  C   UNK N   1      31.235  54.208  45.250  0.00  0.00     0.210 C 
ENDBRANCH  15  21
ENDBRANCH   4  11
BRANCH   2  23
HETATM   23  O   UNK N   1      28.169  56.343  38.097  0.00  0.00    -0.373 OA
HETATM   24  C   UNK N   1      27.721  57.623  38.508  0.00  0.00     0.203 C 
ENDBRANCH   2  23
BRANCH   3  25
HETATM   25  O   UNK N   1      26.120  53.189  41.428  0.00  0.00    -0.390 OA
HETATM   26  H   UNK N   1      26.047  52.365  40.878  0.00  0.00     0.210 HD
ENDBRANCH   3  25
BRANCH   8  27
HETATM   27  C   UNK N   1      26.849  55.697  42.811  0.00  0.00     0.063 C 
BRANCH  27  28
HETATM   28  C   UNK N   1      25.992  56.915  42.579  0.00  0.00    -0.033 C 
HETATM   29  C   UNK N   1      25.141  57.342  43.518  0.00  0.00     0.007 C 
ENDBRANCH  27  28
ENDBRANCH   8  27
TORSDOF 8
ENDMDL
MODEL 3
REMARK VINA RESULT:      -5.1     16.349     20.017
REMARK  8 active torsions:
REMARK  status: ('A' for Active; 'I' for Inactive)
REMARK    1  A    between atoms: O_1  and  C_7 
REMARK    2  A    between atoms: O_2  and  C_8 
REMARK    3  A    between atoms: O_3  and  C_9 
REMARK    4  A    between atoms: O_4  and  C_13 
REMARK    5  A    between atoms: O_5  and  C_14 
REMARK    6  A    between atoms: C_10  and  C_15 
REMARK    7  A    between atoms: C_23  and  C_28 
REMARK    8  A    between atoms: C_26  and  C_28 
ROOT
HETATM    1  O   UNK N   1      33.571  42.376  58.879  0.00  0.00    -0.294 OA
HETATM    2  C   UNK N   1      31.373  42.726  59.805  0.00  0.00     0.143 C 
HETATM    3  C   UNK N   1      31.306  44.533  57.466  0.00  0.00     0.159 C 
HETATM    4  C   UNK N   1      30.615  42.034  57.543  0.00  0.00     0.040 C 
HETATM    5  C   UNK N   1      30.309  41.837  59.074  0.00  0.00     0.037 C 
HETATM    6  C   UNK N   1      31.764  43.049  57.440  0.00  0.00     0.101 C 
HETATM    7  C   UNK N   1      32.414  42.739  58.741  0.00  0.00     0.173 C 
HETATM    8  C   UNK N   1      30.807  44.996  58.829  0.00  0.00    -0.048 C 
HETATM    9  C   UNK N   1      30.887  44.181  59.911  0.00  0.00     0.025 C 
HETATM   10  C   UNK N   1      30.401  40.333  59.420  0.00  0.00     0.014 C 
ENDROOT
BRANCH   4  11
HETATM   11  C   UNK N   1      29.433  42.236  56.607  0.00  0.00    -0.047 A 
HETATM   12  C   UNK N   1      28.258  42.863  57.050  0.00  0.00     0.047 A 
HETATM   13  C   UNK N   1      27.155  43.013  56.188  0.00  0.00     0.104 A 
HETATM   14  C   UNK N   1      27.226  42.555  54.864  0.00  0.00     0.135 A 
HETATM   15  C   UNK N   1      28.437  41.979  54.397  0.00  0.00     0.104 A 
HETATM   16  C   UNK N   1      29.517  41.812  55.273  0.00  0.00     0.047 A 
BRANCH  13  17
HETATM   17  O   UNK N   1      25.992  43.590  56.603  0.00  0.00    -0.353 OA
HETATM   18  C   UNK N   1      25.832  44.920  56.930  0.00  0.00     0.210 C 
ENDBRANCH  13  17
BRANCH  14  19
HETATM   19  O   UNK N   1      26.111  42.689  54.093  0.00  0.00    -0.351 OA
HETATM   20  C   UNK N   1      25.826  43.709  53.206  0.00  0.00     0.210 C 
ENDBRANCH  14  19
BRANCH  15  21
HETATM   21  O   UNK N   1      28.580  41.608  53.107  0.00  0.00    -0.353 OA
HETATM   22  C   UNK N   1      29.171  42.462  52.194  0.00  0.00     0.210 C 
ENDBRANCH  15  21
ENDBRANCH   4  11
BRANCH   2  23
HETATM   23  O   UNK N   1      31.865  42.201  61.036  0.00  0.00    -0.373 OA
HETATM   24  C   UNK N   1      31.976  43.180  62.054  0.00  0.00     0.203 C 
ENDBRANCH   2  23
BRANCH   3  25
HETATM   25  O   UNK N   1      32.411  45.343  57.152  0.00  0.00    -0.390 OA
HETATM   26  H   UNK N   1      32.115  45.985  56.454  0.00  0.00     0.210 HD
ENDBRANCH   3  25
BRANCH   8  27
HETATM   27  C   UNK N   1      30.364  46.434  58.983  0.00  0.00     0.063 C 
BRANCH  27  28
HETATM   28  C   UNK N   1      29.532  46.915  57.822  0.00  0.00    -0.033 C 
HETATM   29  C   UNK N   1      29.690  48.150  57.334  0.00  0.00     0.007 C 
ENDBRANCH  27  28
ENDBRANCH   8  27
TORSDOF 8
ENDMDL
MODEL 4
REMARK VINA RESULT:      -4.9     21.251     24.664
REMARK  8 active torsions:
REMARK  status: ('A' for Active; 'I' for Inactive)
REMARK    1  A    between atoms: O_1  and  C_7 
REMARK    2  A    between atoms: O_2  and  C_8 
REMARK    3  A    between atoms: O_3  and  C_9 
REMARK    4  A    between atoms: O_4  and  C_13 
REMARK    5  A    between atoms: O_5  and  C_14 
REMARK    6  A    between atoms: C_10  and  C_15 
REMARK    7  A    between atoms: C_23  and  C_28 
REMARK    8  A    between atoms: C_26  and  C_28 
ROOT
HETATM    1  O   UNK N   1      39.040  45.352  63.503  0.00  0.00    -0.294 OA
HETATM    2  C   UNK N   1      37.138  45.925  64.870  0.00  0.00     0.143 C 
HETATM    3  C   UNK N   1      36.236  46.850  62.211  0.00  0.00     0.159 C 
HETATM    4  C   UNK N   1      35.902  44.499  63.256  0.00  0.00     0.040 C 
HETATM    5  C   UNK N   1      36.037  44.813  64.792  0.00  0.00     0.037 C 
HETATM    6  C   UNK N   1      36.849  45.455  62.515  0.00  0.00     0.101 C 
HETATM    7  C   UNK N   1      37.852  45.615  63.601  0.00  0.00     0.173 C 
HETATM    8  C   UNK N   1      36.060  47.724  63.446  0.00  0.00    -0.048 C 
HETATM    9  C   UNK N   1      36.524  47.318  64.656  0.00  0.00     0.025 C 
HETATM   10  C   UNK N   1      36.401  43.513  65.544  0.00  0.00     0.014 C 
ENDROOT
BRANCH   4  11
HETATM   11  C   UNK N   1      34.499  44.343  62.688  0.00  0.00    -0.047 A 
HETATM   12  C   UNK N   1      34.258  43.531  61.569  0.00  0.00     0.047 A 
HETATM   13  C   UNK N   1      32.963  43.420  61.027  0.00  0.00     0.104 A 
HETATM   14  C   UNK N   1      31.891  44.107  61.616  0.00  0.00     0.135 A 
HETATM   15  C   UNK N   1      32.123  44.878  62.785  0.00  0.00     0.104 A 
HETATM   16  C   UNK N   1      33.421  45.000  63.297  0.00  0.00     0.047 A 
BRANCH  13  17
HETATM   17  O   UNK N   1      32.708  42.663  59.923  0.00  0.00    -0.353 OA
HETATM   18  C   UNK N   1      33.055  42.993  58.630  0.00  0.00     0.210 C 
ENDBRANCH  13  17
BRANCH  14  19
HETATM   19  O   UNK N   1      30.671  43.996  61.018  0.00  0.00    -0.351 OA
HETATM   20  C   UNK N   1      30.068  44.907  60.174  0.00  0.00     0.210 C 
ENDBRANCH  14  19
BRANCH  15  21
HETATM   21  O   UNK N   1      31.106  45.482  63.435  0.00  0.00    -0.353 OA
HETATM   22  C   UNK N   1      30.444  44.830  64.458  0.00  0.00     0.210 C 
ENDBRANCH  15  21
ENDBRANCH   4  11
BRANCH   2  23
HETATM   23  O   UNK N   1      37.998  45.853  66.005  0.00  0.00    -0.373 OA
HETATM   24  C   UNK N   1      38.328  47.126  66.535  0.00  0.00     0.203 C 
ENDBRANCH   2  23
BRANCH   3  25
HETATM   25  O   UNK N   1      37.111  47.541  61.356  0.00  0.00    -0.390 OA
HETATM   26  H   UNK N   1      36.576  48.235  60.887  0.00  0.00     0.210 HD
ENDBRANCH   3  25
BRANCH   8  27
HETATM   27  C   UNK N   1      35.501  49.118  63.268  0.00  0.00     0.063 C 
BRANCH  27  28
HETATM   28  C   UNK N   1      34.299  49.379  64.139  0.00  0.00    -0.033 C 
HETATM   29  C   UNK N   1      33.181  48.659  63.995  0.00  0.00     0.007 C 
ENDBRANCH  27  28
ENDBRANCH   8  27
TORSDOF 8
ENDMDL
MODEL 5
REMARK VINA RESULT:      -4.9     21.438     24.575
REMARK  8 active torsions:
REMARK  status: ('A' for Active; 'I' for Inactive)
REMARK    1  A    between atoms: O_1  and  C_7 
REMARK    2  A    between atoms: O_2  and  C_8 
REMARK    3  A    between atoms: O_3  and  C_9 
REMARK    4  A    between atoms: O_4  and  C_13 
REMARK    5  A    between atoms: O_5  and  C_14 
REMARK    6  A    between atoms: C_10  and  C_15 
REMARK    7  A    between atoms: C_23  and  C_28 
REMARK    8  A    between atoms: C_26  and  C_28 
ROOT
HETATM    1  O   UNK N   1      39.048  45.340  63.513  0.00  0.00    -0.294 OA
HETATM    2  C   UNK N   1      37.142  45.916  64.872  0.00  0.00     0.143 C 
HETATM    3  C   UNK N   1      36.264  46.873  62.217  0.00  0.00     0.159 C 
HETATM    4  C   UNK N   1      35.904  44.515  63.237  0.00  0.00     0.040 C 
HETATM    5  C   UNK N   1      36.032  44.813  64.777  0.00  0.00     0.037 C 
HETATM    6  C   UNK N   1      36.864  45.470  62.511  0.00  0.00     0.101 C 
HETATM    7  C   UNK N   1      37.861  45.611  63.606  0.00  0.00     0.173 C 
HETATM    8  C   UNK N   1      36.088  47.737  63.459  0.00  0.00    -0.048 C 
HETATM    9  C   UNK N   1      36.540  47.315  64.667  0.00  0.00     0.025 C 
HETATM   10  C   UNK N   1      36.380  43.503  65.519  0.00  0.00     0.014 C 
ENDROOT
BRANCH   4  11
HETATM   11  C   UNK N   1      34.504  44.377  62.658  0.00  0.00    -0.047 A 
HETATM   12  C   UNK N   1      33.427  45.106  63.187  0.00  0.00     0.047 A 
HETATM   13  C   UNK N   1      32.127  44.945  62.670  0.00  0.00     0.104 A 
HETATM   14  C   UNK N   1      31.897  44.066  61.600  0.00  0.00     0.135 A 
HETATM   15  C   UNK N   1      32.996  43.377  61.024  0.00  0.00     0.104 A 
HETATM   16  C   UNK N   1      34.279  43.526  61.567  0.00  0.00     0.047 A 
BRANCH  13  17
HETATM   17  O   UNK N   1      31.061  45.617  63.186  0.00  0.00    -0.353 OA
HETATM   18  C   UNK N   1      30.564  45.468  64.463  0.00  0.00     0.210 C 
ENDBRANCH  13  17
BRANCH  14  19
HETATM   19  O   UNK N   1      30.611  43.920  61.175  0.00  0.00    -0.351 OA
HETATM   20  C   UNK N   1      30.020  44.524  60.083  0.00  0.00     0.210 C 
ENDBRANCH  14  19
BRANCH  15  21
HETATM   21  O   UNK N   1      32.834  42.592  59.938  0.00  0.00    -0.353 OA
HETATM   22  C   UNK N   1      33.639  42.759  58.827  0.00  0.00     0.210 C 
ENDBRANCH  15  21
ENDBRANCH   4  11
BRANCH   2  23
HETATM   23  O   UNK N   1      37.994  45.826  66.012  0.00  0.00    -0.373 OA
HETATM   24  C   UNK N   1      38.045  47.026  66.764  0.00  0.00     0.203 C 
ENDBRANCH   2  23
BRANCH   3  25
HETATM   25  O   UNK N   1      37.150  47.564  61.373  0.00  0.00    -0.390 OA
HETATM   26  H   UNK N   1      37.884  46.937  61.141  0.00  0.00     0.210 HD
ENDBRANCH   3  25
BRANCH   8  27
HETATM   27  C   UNK N   1      35.541  49.137  63.290  0.00  0.00     0.063 C 
BRANCH  27  28
HETATM   28  C   UNK N   1      34.361  49.413  64.185  0.00  0.00    -0.033 C 
HETATM   29  C   UNK N   1      33.209  48.753  64.021  0.00  0.00     0.007 C 
ENDBRANCH  27  28
ENDBRANCH   8  27
TORSDOF 8
ENDMDL
MODEL 6
REMARK VINA RESULT:      -4.9     16.335     20.061
REMARK  8 active torsions:
REMARK  status: ('A' for Active; 'I' for Inactive)
REMARK    1  A    between atoms: O_1  and  C_7 
REMARK    2  A    between atoms: O_2  and  C_8 
REMARK    3  A    between atoms: O_3  and  C_9 
REMARK    4  A    between atoms: O_4  and  C_13 
REMARK    5  A    between atoms: O_5  and  C_14 
REMARK    6  A    between atoms: C_10  and  C_15 
REMARK    7  A    between atoms: C_23  and  C_28 
REMARK    8  A    between atoms: C_26  and  C_28 
ROOT
HETATM    1  O   UNK N   1      33.498  42.506  58.958  0.00  0.00    -0.294 OA
HETATM    2  C   UNK N   1      31.274  42.941  59.782  0.00  0.00     0.143 C 
HETATM    3  C   UNK N   1      31.300  44.562  57.310  0.00  0.00     0.159 C 
HETATM    4  C   UNK N   1      30.584  42.081  57.556  0.00  0.00     0.040 C 
HETATM    5  C   UNK N   1      30.226  42.005  59.087  0.00  0.00     0.037 C 
HETATM    6  C   UNK N   1      31.745  43.078  57.413  0.00  0.00     0.101 C 
HETATM    7  C   UNK N   1      32.349  42.865  58.756  0.00  0.00     0.173 C 
HETATM    8  C   UNK N   1      30.761  45.132  58.616  0.00  0.00    -0.048 C 
HETATM    9  C   UNK N   1      30.799  44.403  59.760  0.00  0.00     0.025 C 
HETATM   10  C   UNK N   1      30.293  40.532  59.550  0.00  0.00     0.014 C 
ENDROOT
BRANCH   4  11
HETATM   11  C   UNK N   1      29.435  42.218  56.569  0.00  0.00    -0.047 A 
HETATM   12  C   UNK N   1      29.572  41.800  55.236  0.00  0.00     0.047 A 
HETATM   13  C   UNK N   1      28.517  41.963  54.318  0.00  0.00     0.104 A 
HETATM   14  C   UNK N   1      27.301  42.528  54.735  0.00  0.00     0.135 A 
HETATM   15  C   UNK N   1      27.140  42.891  56.097  0.00  0.00     0.104 A 
HETATM   16  C   UNK N   1      28.208  42.749  56.992  0.00  0.00     0.047 A 
BRANCH  13  17
HETATM   17  O   UNK N   1      28.636  41.594  53.013  0.00  0.00    -0.353 OA
HETATM   18  C   UNK N   1      29.338  42.286  52.048  0.00  0.00     0.210 C 
ENDBRANCH  13  17
BRANCH  14  19
HETATM   19  O   UNK N   1      26.334  42.700  53.790  0.00  0.00    -0.351 OA
HETATM   20  C   UNK N   1      26.058  43.851  53.079  0.00  0.00     0.210 C 
ENDBRANCH  14  19
BRANCH  15  21
HETATM   21  O   UNK N   1      25.959  43.354  56.559  0.00  0.00    -0.353 OA
HETATM   22  C   UNK N   1      25.845  44.656  57.009  0.00  0.00     0.210 C 
ENDBRANCH  15  21
ENDBRANCH   4  11
BRANCH   2  23
HETATM   23  O   UNK N   1      31.721  42.509  61.065  0.00  0.00    -0.373 OA
HETATM   24  C   UNK N   1      31.250  43.326  62.123  0.00  0.00     0.203 C 
ENDBRANCH   2  23
BRANCH   3  25
HETATM   25  O   UNK N   1      32.422  45.337  56.971  0.00  0.00    -0.390 OA
HETATM   26  H   UNK N   1      32.762  44.997  56.102  0.00  0.00     0.210 HD
ENDBRANCH   3  25
BRANCH   8  27
HETATM   27  C   UNK N   1      30.327  46.581  58.644  0.00  0.00     0.063 C 
BRANCH  27  28
HETATM   28  C   UNK N   1      28.830  46.741  58.587  0.00  0.00    -0.033 C 
HETATM   29  C   UNK N   1      28.266  47.599  57.730  0.00  0.00     0.007 C 
ENDBRANCH  27  28
ENDBRANCH   8  27
TORSDOF 8
ENDMDL
MODEL 7
REMARK VINA RESULT:      -4.7     15.783     19.351
REMARK  8 active torsions:
REMARK  status: ('A' for Active; 'I' for Inactive)
REMARK    1  A    between atoms: O_1  and  C_7 
REMARK    2  A    between atoms: O_2  and  C_8 
REMARK    3  A    between atoms: O_3  and  C_9 
REMARK    4  A    between atoms: O_4  and  C_13 
REMARK    5  A    between atoms: O_5  and  C_14 
REMARK    6  A    between atoms: C_10  and  C_15 
REMARK    7  A    between atoms: C_23  and  C_28 
REMARK    8  A    between atoms: C_26  and  C_28 
ROOT
HETATM    1  O   UNK N   1      30.256  38.203  54.988  0.00  0.00    -0.294 OA
HETATM    2  C   UNK N   1      28.928  39.560  56.474  0.00  0.00     0.143 C 
HETATM    3  C   UNK N   1      30.108  41.621  54.713  0.00  0.00     0.159 C 
HETATM    4  C   UNK N   1      27.876  40.345  54.366  0.00  0.00     0.040 C 
HETATM    5  C   UNK N   1      27.537  39.894  55.836  0.00  0.00     0.037 C 
HETATM    6  C   UNK N   1      29.406  40.322  54.229  0.00  0.00     0.101 C 
HETATM    7  C   UNK N   1      29.674  39.250  55.224  0.00  0.00     0.173 C 
HETATM    8  C   UNK N   1      30.086  41.802  56.226  0.00  0.00    -0.048 C 
HETATM    9  C   UNK N   1      29.591  40.830  57.034  0.00  0.00     0.025 C 
HETATM   10  C   UNK N   1      26.563  38.695  55.786  0.00  0.00     0.014 C 
ENDROOT
BRANCH   4  11
HETATM   11  C   UNK N   1      27.155  41.567  53.819  0.00  0.00    -0.047 A 
HETATM   12  C   UNK N   1      26.540  42.491  54.679  0.00  0.00     0.047 A 
HETATM   13  C   UNK N   1      25.843  43.600  54.164  0.00  0.00     0.104 A 
HETATM   14  C   UNK N   1      25.773  43.808  52.777  0.00  0.00     0.135 A 
HETATM   15  C   UNK N   1      26.449  42.910  51.910  0.00  0.00     0.104 A 
HETATM   16  C   UNK N   1      27.115  41.795  52.436  0.00  0.00     0.047 A 
BRANCH  13  17
HETATM   17  O   UNK N   1      25.212  44.493  54.976  0.00  0.00    -0.353 OA
HETATM   18  C   UNK N   1      25.343  44.557  56.347  0.00  0.00     0.210 C 
ENDBRANCH  13  17
BRANCH  14  19
HETATM   19  O   UNK N   1      25.047  44.874  52.339  0.00  0.00    -0.351 OA
HETATM   20  C   UNK N   1      23.746  44.864  51.877  0.00  0.00     0.210 C 
ENDBRANCH  14  19
BRANCH  15  21
HETATM   21  O   UNK N   1      26.483  43.122  50.578  0.00  0.00    -0.353 OA
HETATM   22  C   UNK N   1      25.620  42.444  49.738  0.00  0.00     0.210 C 
ENDBRANCH  15  21
ENDBRANCH   4  11
BRANCH   2  23
HETATM   23  O   UNK N   1      28.932  38.468  57.391  0.00  0.00    -0.373 OA
HETATM   24  C   UNK N   1      29.718  38.712  58.545  0.00  0.00     0.203 C 
ENDBRANCH   2  23
BRANCH   3  25
HETATM   25  O   UNK N   1      31.461  41.558  54.340  0.00  0.00    -0.390 OA
HETATM   26  H   UNK N   1      31.818  42.484  54.372  0.00  0.00     0.210 HD
ENDBRANCH   3  25
BRANCH   8  27
HETATM   27  C   UNK N   1      30.768  43.016  56.816  0.00  0.00     0.063 C 
BRANCH  27  28
HETATM   28  C   UNK N   1      31.381  42.742  58.165  0.00  0.00    -0.033 C 
HETATM   29  C   UNK N   1      32.657  43.058  58.413  0.00  0.00     0.007 C 
ENDBRANCH  27  28
ENDBRANCH   8  27
TORSDOF 8
ENDMDL
MODEL 8
REMARK VINA RESULT:      -4.7     15.754     19.413
REMARK  8 active torsions:
REMARK  status: ('A' for Active; 'I' for Inactive)
REMARK    1  A    between atoms: O_1  and  C_7 
REMARK    2  A    between atoms: O_2  and  C_8 
REMARK    3  A    between atoms: O_3  and  C_9 
REMARK    4  A    between atoms: O_4  and  C_13 
REMARK    5  A    between atoms: O_5  and  C_14 
REMARK    6  A    between atoms: C_10  and  C_15 
REMARK    7  A    between atoms: C_23  and  C_28 
REMARK    8  A    between atoms: C_26  and  C_28 
ROOT
HETATM    1  O   UNK N   1      30.258  38.224  55.000  0.00  0.00    -0.294 OA
HETATM    2  C   UNK N   1      28.887  39.585  56.442  0.00  0.00     0.143 C 
HETATM    3  C   UNK N   1      30.089  41.637  54.687  0.00  0.00     0.159 C 
HETATM    4  C   UNK N   1      27.875  40.340  54.304  0.00  0.00     0.040 C 
HETATM    5  C   UNK N   1      27.507  39.902  55.770  0.00  0.00     0.037 C 
HETATM    6  C   UNK N   1      29.408  40.328  54.200  0.00  0.00     0.101 C 
HETATM    7  C   UNK N   1      29.662  39.268  55.212  0.00  0.00     0.173 C 
HETATM    8  C   UNK N   1      30.032  41.833  56.196  0.00  0.00    -0.048 C 
HETATM    9  C   UNK N   1      29.527  40.866  57.003  0.00  0.00     0.025 C 
HETATM   10  C   UNK N   1      26.544  38.694  55.711  0.00  0.00     0.014 C 
ENDROOT
BRANCH   4  11
HETATM   11  C   UNK N   1      27.157  41.551  53.728  0.00  0.00    -0.047 A 
HETATM   12  C   UNK N   1      27.061  41.743  52.340  0.00  0.00     0.047 A 
HETATM   13  C   UNK N   1      26.426  42.885  51.815  0.00  0.00     0.104 A 
HETATM   14  C   UNK N   1      25.860  43.837  52.677  0.00  0.00     0.135 A 
HETATM   15  C   UNK N   1      25.901  43.611  54.077  0.00  0.00     0.104 A 
HETATM   16  C   UNK N   1      26.560  42.484  54.586  0.00  0.00     0.047 A 
BRANCH  13  17
HETATM   17  O   UNK N   1      26.347  43.109  50.473  0.00  0.00    -0.353 OA
HETATM   18  C   UNK N   1      25.466  42.492  49.610  0.00  0.00     0.210 C 
ENDBRANCH  13  17
BRANCH  14  19
HETATM   19  O   UNK N   1      25.300  44.941  52.109  0.00  0.00    -0.351 OA
HETATM   20  C   UNK N   1      23.960  45.165  51.864  0.00  0.00     0.210 C 
ENDBRANCH  14  19
BRANCH  15  21
HETATM   21  O   UNK N   1      25.292  44.454  54.937  0.00  0.00    -0.353 OA
HETATM   22  C   UNK N   1      25.014  44.055  56.231  0.00  0.00     0.210 C 
ENDBRANCH  15  21
ENDBRANCH   4  11
BRANCH   2  23
HETATM   23  O   UNK N   1      28.879  38.502  57.370  0.00  0.00    -0.373 OA
HETATM   24  C   UNK N   1      29.165  38.905  58.698  0.00  0.00     0.203 C 
ENDBRANCH   2  23
BRANCH   3  25
HETATM   25  O   UNK N   1      31.451  41.581  54.344  0.00  0.00    -0.390 OA
HETATM   26  H   UNK N   1      31.935  41.206  55.126  0.00  0.00     0.210 HD
ENDBRANCH   3  25
BRANCH   8  27
HETATM   27  C   UNK N   1      30.692  43.059  56.789  0.00  0.00     0.063 C 
BRANCH  27  28
HETATM   28  C   UNK N   1      31.229  42.818  58.176  0.00  0.00    -0.033 C 
HETATM   29  C   UNK N   1      32.519  43.034  58.457  0.00  0.00     0.007 C 
ENDBRANCH  27  28
ENDBRANCH   8  27
TORSDOF 8
ENDMDL
MODEL 9
REMARK VINA RESULT:      -4.7     17.255     20.874
REMARK  8 active torsions:
REMARK  status: ('A' for Active; 'I' for Inactive)
REMARK    1  A    between atoms: O_1  and  C_7 
REMARK    2  A    between atoms: O_2  and  C_8 
REMARK    3  A    between atoms: O_3  and  C_9 
REMARK    4  A    between atoms: O_4  and  C_13 
REMARK    5  A    between atoms: O_5  and  C_14 
REMARK    6  A    between atoms: C_10  and  C_15 
REMARK    7  A    between atoms: C_23  and  C_28 
REMARK    8  A    between atoms: C_26  and  C_28 
ROOT
HETATM    1  O   UNK N   1      31.455  42.282  55.570  0.00  0.00    -0.294 OA
HETATM    2  C   UNK N   1      30.093  41.963  57.534  0.00  0.00     0.143 C 
HETATM    3  C   UNK N   1      32.226  43.715  58.592  0.00  0.00     0.159 C 
HETATM    4  C   UNK N   1      29.981  44.444  57.517  0.00  0.00     0.040 C 
HETATM    5  C   UNK N   1      29.097  43.158  57.725  0.00  0.00     0.037 C 
HETATM    6  C   UNK N   1      31.423  43.968  57.286  0.00  0.00     0.101 C 
HETATM    7  C   UNK N   1      31.097  42.651  56.677  0.00  0.00     0.173 C 
HETATM    8  C   UNK N   1      31.772  42.481  59.361  0.00  0.00    -0.048 C 
HETATM    9  C   UNK N   1      30.829  41.651  58.847  0.00  0.00     0.025 C 
HETATM   10  C   UNK N   1      27.931  43.175  56.710  0.00  0.00     0.014 C 
ENDROOT
BRANCH   4  11
HETATM   11  C   UNK N   1      29.784  45.600  58.486  0.00  0.00    -0.047 A 
HETATM   12  C   UNK N   1      29.935  46.931  58.065  0.00  0.00     0.047 A 
HETATM   13  C   UNK N   1      29.788  47.994  58.976  0.00  0.00     0.104 A 
HETATM   14  C   UNK N   1      29.465  47.734  60.317  0.00  0.00     0.135 A 
HETATM   15  C   UNK N   1      29.250  46.393  60.728  0.00  0.00     0.104 A 
HETATM   16  C   UNK N   1      29.427  45.344  59.817  0.00  0.00     0.047 A 
BRANCH  13  17
HETATM   17  O   UNK N   1      29.959  49.292  58.600  0.00  0.00    -0.353 OA
HETATM   18  C   UNK N   1      29.996  49.749  57.300  0.00  0.00     0.210 C 
ENDBRANCH  13  17
BRANCH  14  19
HETATM   19  O   UNK N   1      29.380  48.802  61.160  0.00  0.00    -0.351 OA
HETATM   20  C   UNK N   1      28.235  49.459  61.562  0.00  0.00     0.210 C 
ENDBRANCH  14  19
BRANCH  15  21
HETATM   21  O   UNK N   1      28.851  46.105  61.985  0.00  0.00    -0.353 OA
HETATM   22  C   UNK N   1      29.772  45.722  62.942  0.00  0.00     0.210 C 
ENDBRANCH  15  21
ENDBRANCH   4  11
BRANCH   2  23
HETATM   23  O   UNK N   1      29.545  40.808  56.902  0.00  0.00    -0.373 OA
HETATM   24  C   UNK N   1      29.239  39.767  57.814  0.00  0.00     0.203 C 
ENDBRANCH   2  23
BRANCH   3  25
HETATM   25  O   UNK N   1      33.571  43.497  58.248  0.00  0.00    -0.390 OA
HETATM   26  H   UNK N   1      33.586  42.782  57.559  0.00  0.00     0.210 HD
ENDBRANCH   3  25
BRANCH   8  27
HETATM   27  C   UNK N   1      32.503  42.116  60.634  0.00  0.00     0.063 C 
BRANCH  27  28
HETATM   28  C   UNK N   1      32.439  43.205  61.674  0.00  0.00    -0.033 C 
HETATM   29  C   UNK N   1      33.554  43.810  62.099  0.00  0.00     0.007 C 
ENDBRANCH  27  28
ENDBRANCH   8  27
TORSDOF 8
ENDMDL
