MODEL 1
REMARK VINA RESULT:      -6.7      0.000      0.000
REMARK  8 active torsions:
REMARK  status: ('A' for Active; 'I' for Inactive)
REMARK    1  A    between atoms: O_1  and  C_7 
REMARK    2  A    between atoms: O_2  and  C_8 
REMARK    3  A    between atoms: O_3  and  C_9 
REMARK    4  A    between atoms: O_4  and  C_10 
REMARK    5  A    between atoms: C_11  and  C_25 
REMARK    6  A    between atoms: C_12  and  C_26 
REMARK    7  A    between atoms: C_19  and  C_25 
REMARK    8  A    between atoms: C_20  and  C_26 
ROOT
HETATM    1  O   UNK N   1      42.605  46.055  53.181  0.00  0.00    -0.265 OA
HETATM    2  O   UNK N   1      41.953  43.908  53.191  0.00  0.00    -0.321 OA
HETATM    3  C   UNK N   1      41.939  45.039  51.119  0.00  0.00     0.096 C 
HETATM    4  C   UNK N   1      41.192  43.685  51.052  0.00  0.00     0.028 C 
HETATM    5  C   UNK N   1      42.138  45.095  52.591  0.00  0.00     0.263 C 
HETATM    6  C   UNK N   1      41.720  42.914  52.267  0.00  0.00     0.184 C 
ENDROOT
BRANCH   3   7
HETATM    7  C   UNK N   1      41.155  46.226  50.495  0.00  0.00     0.053 C 
BRANCH   7   8
HETATM    8  C   UNK N   1      41.910  46.962  49.407  0.00  0.00    -0.055 A 
HETATM    9  C   UNK N   1      41.313  47.184  48.157  0.00  0.00     0.046 A 
HETATM   10  C   UNK N   1      42.019  47.849  47.132  0.00  0.00     0.101 A 
HETATM   11  C   UNK N   1      43.337  48.282  47.373  0.00  0.00     0.099 A 
HETATM   12  C   UNK N   1      43.925  48.066  48.625  0.00  0.00     0.040 A 
HETATM   13  C   UNK N   1      43.216  47.420  49.637  0.00  0.00     0.010 A 
BRANCH  10  14
HETATM   14  O   UNK N   1      41.458  48.083  45.913  0.00  0.00    -0.353 OA
HETATM   15  C   UNK N   1      40.182  48.565  45.704  0.00  0.00     0.210 C 
ENDBRANCH  10  14
BRANCH  11  16
HETATM   16  O   UNK N   1      44.053  48.909  46.415  0.00  0.00    -0.358 OA
HETATM   17  H   UNK N   1      44.403  49.803  46.532  0.00  0.00     0.218 HD
ENDBRANCH  11  16
ENDBRANCH   7   8
ENDBRANCH   3   7
BRANCH   4  18
HETATM   18  C   UNK N   1      41.264  42.971  49.693  0.00  0.00     0.046 C 
BRANCH  18  19
HETATM   19  C   UNK N   1      40.479  43.702  48.630  0.00  0.00    -0.055 A 
HETATM   20  C   UNK N   1      41.060  43.893  47.368  0.00  0.00     0.046 A 
HETATM   21  C   UNK N   1      40.370  44.575  46.350  0.00  0.00     0.101 A 
HETATM   22  C   UNK N   1      39.070  45.055  46.604  0.00  0.00     0.099 A 
HETATM   23  C   UNK N   1      38.488  44.859  47.864  0.00  0.00     0.040 A 
HETATM   24  C   UNK N   1      39.188  44.193  48.876  0.00  0.00     0.010 A 
BRANCH  21  25
HETATM   25  O   UNK N   1      40.932  44.785  45.126  0.00  0.00    -0.353 OA
HETATM   26  C   UNK N   1      41.891  43.977  44.546  0.00  0.00     0.210 C 
ENDBRANCH  21  25
BRANCH  22  27
HETATM   27  O   UNK N   1      38.371  45.707  45.650  0.00  0.00    -0.358 OA
HETATM   28  H   UNK N   1      38.803  46.191  44.932  0.00  0.00     0.218 HD
ENDBRANCH  22  27
ENDBRANCH  18  19
ENDBRANCH   4  18
TORSDOF 8
ENDMDL
MODEL 2
REMARK VINA RESULT:      -6.3     12.309     15.777
REMARK  8 active torsions:
REMARK  status: ('A' for Active; 'I' for Inactive)
REMARK    1  A    between atoms: O_1  and  C_7 
REMARK    2  A    between atoms: O_2  and  C_8 
REMARK    3  A    between atoms: O_3  and  C_9 
REMARK    4  A    between atoms: O_4  and  C_10 
REMARK    5  A    between atoms: C_11  and  C_25 
REMARK    6  A    between atoms: C_12  and  C_26 
REMARK    7  A    between atoms: C_19  and  C_25 
REMARK    8  A    between atoms: C_20  and  C_26 
ROOT
HETATM    1  O   UNK N   1      27.009  55.212  43.414  0.00  0.00    -0.265 OA
HETATM    2  O   UNK N   1      26.593  55.067  41.213  0.00  0.00    -0.321 OA
HETATM    3  C   UNK N   1      28.833  54.819  41.916  0.00  0.00     0.096 C 
HETATM    4  C   UNK N   1      28.717  55.002  40.384  0.00  0.00     0.028 C 
HETATM    5  C   UNK N   1      27.420  55.119  42.269  0.00  0.00     0.263 C 
HETATM    6  C   UNK N   1      27.256  54.649  40.081  0.00  0.00     0.184 C 
ENDROOT
BRANCH   3   7
HETATM    7  C   UNK N   1      29.905  55.724  42.583  0.00  0.00     0.053 C 
BRANCH   7   8
HETATM    8  C   UNK N   1      30.979  54.961  43.330  0.00  0.00    -0.055 A 
HETATM    9  C   UNK N   1      32.134  55.621  43.779  0.00  0.00     0.046 A 
HETATM   10  C   UNK N   1      33.148  54.912  44.457  0.00  0.00     0.101 A 
HETATM   11  C   UNK N   1      32.995  53.528  44.673  0.00  0.00     0.099 A 
HETATM   12  C   UNK N   1      31.837  52.876  44.231  0.00  0.00     0.040 A 
HETATM   13  C   UNK N   1      30.833  53.587  43.574  0.00  0.00     0.010 A 
BRANCH  10  14
HETATM   14  O   UNK N   1      34.274  55.530  44.909  0.00  0.00    -0.353 OA
HETATM   15  C   UNK N   1      34.321  56.438  45.947  0.00  0.00     0.210 C 
ENDBRANCH  10  14
BRANCH  11  16
HETATM   16  O   UNK N   1      33.948  52.809  45.304  0.00  0.00    -0.358 OA
HETATM   17  H   UNK N   1      34.590  53.214  45.904  0.00  0.00     0.218 HD
ENDBRANCH  11  16
ENDBRANCH   7   8
ENDBRANCH   3   7
BRANCH   4  18
HETATM   18  C   UNK N   1      29.791  54.275  39.560  0.00  0.00     0.046 C 
BRANCH  18  19
HETATM   19  C   UNK N   1      29.957  52.838  39.994  0.00  0.00    -0.055 A 
HETATM   20  C   UNK N   1      28.825  52.010  40.046  0.00  0.00     0.046 A 
HETATM   21  C   UNK N   1      28.930  50.667  40.452  0.00  0.00     0.101 A 
HETATM   22  C   UNK N   1      30.195  50.150  40.793  0.00  0.00     0.099 A 
HETATM   23  C   UNK N   1      31.326  50.977  40.735  0.00  0.00     0.040 A 
HETATM   24  C   UNK N   1      31.210  52.315  40.345  0.00  0.00     0.010 A 
BRANCH  21  25
HETATM   25  O   UNK N   1      27.836  49.859  40.527  0.00  0.00    -0.353 OA
HETATM   26  C   UNK N   1      26.554  50.285  40.816  0.00  0.00     0.210 C 
ENDBRANCH  21  25
BRANCH  22  27
HETATM   27  O   UNK N   1      30.339  48.864  41.179  0.00  0.00    -0.358 OA
HETATM   28  H   UNK N   1      30.520  48.617  42.098  0.00  0.00     0.218 HD
ENDBRANCH  22  27
ENDBRANCH  18  19
ENDBRANCH   4  18
TORSDOF 8
ENDMDL
MODEL 3
REMARK VINA RESULT:      -5.8      1.810      2.804
REMARK  8 active torsions:
REMARK  status: ('A' for Active; 'I' for Inactive)
REMARK    1  A    between atoms: O_1  and  C_7 
REMARK    2  A    between atoms: O_2  and  C_8 
REMARK    3  A    between atoms: O_3  and  C_9 
REMARK    4  A    between atoms: O_4  and  C_10 
REMARK    5  A    between atoms: C_11  and  C_25 
REMARK    6  A    between atoms: C_12  and  C_26 
REMARK    7  A    between atoms: C_19  and  C_25 
REMARK    8  A    between atoms: C_20  and  C_26 
ROOT
HETATM    1  O   UNK N   1      42.635  45.067  51.345  0.00  0.00    -0.265 OA
HETATM    2  O   UNK N   1      40.982  43.606  50.936  0.00  0.00    -0.321 OA
HETATM    3  C   UNK N   1      41.286  45.365  49.392  0.00  0.00     0.096 C 
HETATM    4  C   UNK N   1      39.950  44.617  49.171  0.00  0.00     0.028 C 
HETATM    5  C   UNK N   1      41.671  44.729  50.679  0.00  0.00     0.263 C 
HETATM    6  C   UNK N   1      40.158  43.275  49.884  0.00  0.00     0.184 C 
ENDROOT
BRANCH   3   7
HETATM    7  C   UNK N   1      41.149  46.913  49.414  0.00  0.00     0.053 C 
BRANCH   7   8
HETATM    8  C   UNK N   1      41.684  47.598  48.173  0.00  0.00    -0.055 A 
HETATM    9  C   UNK N   1      40.808  47.999  47.153  0.00  0.00     0.046 A 
HETATM   10  C   UNK N   1      41.301  48.618  45.985  0.00  0.00     0.101 A 
HETATM   11  C   UNK N   1      42.689  48.823  45.848  0.00  0.00     0.099 A 
HETATM   12  C   UNK N   1      43.557  48.429  46.872  0.00  0.00     0.040 A 
HETATM   13  C   UNK N   1      43.060  47.830  48.030  0.00  0.00     0.010 A 
BRANCH  10  14
HETATM   14  O   UNK N   1      40.471  49.022  44.984  0.00  0.00    -0.353 OA
HETATM   15  C   UNK N   1      39.143  49.364  45.142  0.00  0.00     0.210 C 
ENDBRANCH  10  14
BRANCH  11  16
HETATM   16  O   UNK N   1      43.204  49.397  44.740  0.00  0.00    -0.358 OA
HETATM   17  H   UNK N   1      44.133  49.297  44.489  0.00  0.00     0.218 HD
ENDBRANCH  11  16
ENDBRANCH   7   8
ENDBRANCH   3   7
BRANCH   4  18
HETATM   18  C   UNK N   1      39.472  44.560  47.712  0.00  0.00     0.046 C 
BRANCH  18  19
HETATM   19  C   UNK N   1      40.595  44.218  46.763  0.00  0.00    -0.055 A 
HETATM   20  C   UNK N   1      41.418  43.120  47.053  0.00  0.00     0.046 A 
HETATM   21  C   UNK N   1      42.483  42.770  46.202  0.00  0.00     0.101 A 
HETATM   22  C   UNK N   1      42.709  43.528  45.037  0.00  0.00     0.099 A 
HETATM   23  C   UNK N   1      41.882  44.623  44.745  0.00  0.00     0.040 A 
HETATM   24  C   UNK N   1      40.835  44.973  45.605  0.00  0.00     0.010 A 
BRANCH  21  25
HETATM   25  O   UNK N   1      43.301  41.718  46.483  0.00  0.00    -0.353 OA
HETATM   26  C   UNK N   1      42.929  40.388  46.430  0.00  0.00     0.210 C 
ENDBRANCH  21  25
BRANCH  22  27
HETATM   27  O   UNK N   1      43.714  43.219  44.190  0.00  0.00    -0.358 OA
HETATM   28  H   UNK N   1      43.683  42.444  43.611  0.00  0.00     0.218 HD
ENDBRANCH  22  27
ENDBRANCH  18  19
ENDBRANCH   4  18
TORSDOF 8
ENDMDL
MODEL 4
REMARK VINA RESULT:      -5.5      1.795      4.697
REMARK  8 active torsions:
REMARK  status: ('A' for Active; 'I' for Inactive)
REMARK    1  A    between atoms: O_1  and  C_7 
REMARK    2  A    between atoms: O_2  and  C_8 
REMARK    3  A    between atoms: O_3  and  C_9 
REMARK    4  A    between atoms: O_4  and  C_10 
REMARK    5  A    between atoms: C_11  and  C_25 
REMARK    6  A    between atoms: C_12  and  C_26 
REMARK    7  A    between atoms: C_19  and  C_25 
REMARK    8  A    between atoms: C_20  and  C_26 
ROOT
HETATM    1  O   UNK N   1      40.004  43.289  51.307  0.00  0.00    -0.265 OA
HETATM    2  O   UNK N   1      42.126  44.009  51.189  0.00  0.00    -0.321 OA
HETATM    3  C   UNK N   1      40.465  45.348  50.179  0.00  0.00     0.096 C 
HETATM    4  C   UNK N   1      41.894  45.784  49.774  0.00  0.00     0.028 C 
HETATM    5  C   UNK N   1      40.822  44.087  50.880  0.00  0.00     0.263 C 
HETATM    6  C   UNK N   1      42.786  45.172  50.861  0.00  0.00     0.184 C 
ENDROOT
BRANCH   3   7
HETATM    7  C   UNK N   1      39.483  45.206  48.984  0.00  0.00     0.053 C 
BRANCH   7   8
HETATM    8  C   UNK N   1      40.118  44.649  47.726  0.00  0.00    -0.055 A 
HETATM    9  C   UNK N   1      41.263  43.841  47.810  0.00  0.00     0.046 A 
HETATM   10  C   UNK N   1      41.872  43.336  46.641  0.00  0.00     0.101 A 
HETATM   11  C   UNK N   1      41.323  43.658  45.384  0.00  0.00     0.099 A 
HETATM   12  C   UNK N   1      40.176  44.456  45.307  0.00  0.00     0.040 A 
HETATM   13  C   UNK N   1      39.572  44.941  46.467  0.00  0.00     0.010 A 
BRANCH  10  14
HETATM   14  O   UNK N   1      42.979  42.545  46.697  0.00  0.00    -0.353 OA
HETATM   15  C   UNK N   1      43.027  41.218  46.321  0.00  0.00     0.210 C 
ENDBRANCH  10  14
BRANCH  11  16
HETATM   16  O   UNK N   1      41.884  43.209  44.241  0.00  0.00    -0.358 OA
HETATM   17  H   UNK N   1      41.606  43.523  43.369  0.00  0.00     0.218 HD
ENDBRANCH  11  16
ENDBRANCH   7   8
ENDBRANCH   3   7
BRANCH   4  18
HETATM   18  C   UNK N   1      42.062  47.286  49.503  0.00  0.00     0.046 C 
BRANCH  18  19
HETATM   19  C   UNK N   1      41.611  47.663  48.112  0.00  0.00    -0.055 A 
HETATM   20  C   UNK N   1      40.425  48.397  47.958  0.00  0.00     0.046 A 
HETATM   21  C   UNK N   1      39.962  48.762  46.681  0.00  0.00     0.101 A 
HETATM   22  C   UNK N   1      40.713  48.397  45.547  0.00  0.00     0.099 A 
HETATM   23  C   UNK N   1      41.901  47.668  45.702  0.00  0.00     0.040 A 
HETATM   24  C   UNK N   1      42.347  47.296  46.975  0.00  0.00     0.010 A 
BRANCH  21  25
HETATM   25  O   UNK N   1      38.801  49.457  46.518  0.00  0.00    -0.353 OA
HETATM   26  C   UNK N   1      38.471  50.618  47.191  0.00  0.00     0.210 C 
ENDBRANCH  21  25
BRANCH  22  27
HETATM   27  O   UNK N   1      40.307  48.736  44.305  0.00  0.00    -0.358 OA
HETATM   28  H   UNK N   1      40.847  48.564  43.520  0.00  0.00     0.218 HD
ENDBRANCH  22  27
ENDBRANCH  18  19
ENDBRANCH   4  18
TORSDOF 8
ENDMDL
MODEL 5
REMARK VINA RESULT:      -5.2     12.844     16.054
REMARK  8 active torsions:
REMARK  status: ('A' for Active; 'I' for Inactive)
REMARK    1  A    between atoms: O_1  and  C_7 
REMARK    2  A    between atoms: O_2  and  C_8 
REMARK    3  A    between atoms: O_3  and  C_9 
REMARK    4  A    between atoms: O_4  and  C_10 
REMARK    5  A    between atoms: C_11  and  C_25 
REMARK    6  A    between atoms: C_12  and  C_26 
REMARK    7  A    between atoms: C_19  and  C_25 
REMARK    8  A    between atoms: C_20  and  C_26 
ROOT
HETATM    1  O   UNK N   1      26.671  40.440  51.472  0.00  0.00    -0.265 OA
HETATM    2  O   UNK N   1      27.961  42.275  51.518  0.00  0.00    -0.321 OA
HETATM    3  C   UNK N   1      28.416  40.586  53.103  0.00  0.00     0.096 C 
HETATM    4  C   UNK N   1      29.157  41.906  53.425  0.00  0.00     0.028 C 
HETATM    5  C   UNK N   1      27.549  41.095  52.008  0.00  0.00     0.263 C 
HETATM    6  C   UNK N   1      29.149  42.666  52.093  0.00  0.00     0.184 C 
ENDROOT
BRANCH   3   7
HETATM    7  C   UNK N   1      27.678  39.960  54.318  0.00  0.00     0.053 C 
BRANCH   7   8
HETATM    8  C   UNK N   1      28.319  38.692  54.844  0.00  0.00    -0.055 A 
HETATM    9  C   UNK N   1      28.939  38.683  56.103  0.00  0.00     0.046 A 
HETATM   10  C   UNK N   1      29.557  37.511  56.590  0.00  0.00     0.101 A 
HETATM   11  C   UNK N   1      29.553  36.349  55.794  0.00  0.00     0.099 A 
HETATM   12  C   UNK N   1      28.926  36.361  54.543  0.00  0.00     0.040 A 
HETATM   13  C   UNK N   1      28.305  37.520  54.074  0.00  0.00     0.010 A 
BRANCH  10  14
HETATM   14  O   UNK N   1      30.158  37.474  57.811  0.00  0.00    -0.353 OA
HETATM   15  C   UNK N   1      29.910  38.352  58.847  0.00  0.00     0.210 C 
ENDBRANCH  10  14
BRANCH  11  16
HETATM   16  O   UNK N   1      30.146  35.211  56.215  0.00  0.00    -0.358 OA
HETATM   17  H   UNK N   1      30.970  35.214  56.723  0.00  0.00     0.218 HD
ENDBRANCH  11  16
ENDBRANCH   7   8
ENDBRANCH   3   7
BRANCH   4  18
HETATM   18  C   UNK N   1      30.518  41.734  54.117  0.00  0.00     0.046 C 
BRANCH  18  19
HETATM   19  C   UNK N   1      30.535  42.359  55.491  0.00  0.00    -0.055 A 
HETATM   20  C   UNK N   1      31.770  42.675  56.078  0.00  0.00     0.046 A 
HETATM   21  C   UNK N   1      31.835  43.251  57.359  0.00  0.00     0.101 A 
HETATM   22  C   UNK N   1      30.639  43.527  58.050  0.00  0.00     0.099 A 
HETATM   23  C   UNK N   1      29.405  43.216  57.460  0.00  0.00     0.040 A 
HETATM   24  C   UNK N   1      29.350  42.630  56.191  0.00  0.00     0.010 A 
BRANCH  21  25
HETATM   25  O   UNK N   1      33.029  43.543  57.948  0.00  0.00    -0.353 OA
HETATM   26  C   UNK N   1      33.748  42.680  58.752  0.00  0.00     0.210 C 
ENDBRANCH  21  25
BRANCH  22  27
HETATM   27  O   UNK N   1      30.659  44.088  59.278  0.00  0.00    -0.358 OA
HETATM   28  H   UNK N   1      30.449  43.586  60.079  0.00  0.00     0.218 HD
ENDBRANCH  22  27
ENDBRANCH  18  19
ENDBRANCH   4  18
TORSDOF 8
ENDMDL
MODEL 6
REMARK VINA RESULT:      -5.2     12.824     15.524
REMARK  8 active torsions:
REMARK  status: ('A' for Active; 'I' for Inactive)
REMARK    1  A    between atoms: O_1  and  C_7 
REMARK    2  A    between atoms: O_2  and  C_8 
REMARK    3  A    between atoms: O_3  and  C_9 
REMARK    4  A    between atoms: O_4  and  C_10 
REMARK    5  A    between atoms: C_11  and  C_25 
REMARK    6  A    between atoms: C_12  and  C_26 
REMARK    7  A    between atoms: C_19  and  C_25 
REMARK    8  A    between atoms: C_20  and  C_26 
ROOT
HETATM    1  O   UNK N   1      29.095  43.501  51.577  0.00  0.00    -0.265 OA
HETATM    2  O   UNK N   1      27.705  41.795  51.141  0.00  0.00    -0.321 OA
HETATM    3  C   UNK N   1      28.669  41.889  53.293  0.00  0.00     0.096 C 
HETATM    4  C   UNK N   1      27.985  40.529  53.018  0.00  0.00     0.028 C 
HETATM    5  C   UNK N   1      28.581  42.449  51.919  0.00  0.00     0.263 C 
HETATM    6  C   UNK N   1      27.033  40.825  51.852  0.00  0.00     0.184 C 
ENDROOT
BRANCH   3   7
HETATM    7  C   UNK N   1      30.100  41.769  53.888  0.00  0.00     0.053 C 
BRANCH   7   8
HETATM    8  C   UNK N   1      30.235  42.330  55.288  0.00  0.00    -0.055 A 
HETATM    9  C   UNK N   1      31.504  42.616  55.816  0.00  0.00     0.046 A 
HETATM   10  C   UNK N   1      31.640  43.118  57.127  0.00  0.00     0.101 A 
HETATM   11  C   UNK N   1      30.486  43.323  57.909  0.00  0.00     0.099 A 
HETATM   12  C   UNK N   1      29.222  43.045  57.375  0.00  0.00     0.040 A 
HETATM   13  C   UNK N   1      29.096  42.562  56.073  0.00  0.00     0.010 A 
BRANCH  10  14
HETATM   14  O   UNK N   1      32.859  43.410  57.659  0.00  0.00    -0.353 OA
HETATM   15  C   UNK N   1      33.510  42.658  58.616  0.00  0.00     0.210 C 
ENDBRANCH  10  14
BRANCH  11  16
HETATM   16  O   UNK N   1      30.572  43.788  59.174  0.00  0.00    -0.358 OA
HETATM   17  H   UNK N   1      31.389  44.159  59.535  0.00  0.00     0.218 HD
ENDBRANCH  11  16
ENDBRANCH   7   8
ENDBRANCH   3   7
BRANCH   4  18
HETATM   18  C   UNK N   1      27.376  39.847  54.253  0.00  0.00     0.046 C 
BRANCH  18  19
HETATM   19  C   UNK N   1      28.186  38.651  54.693  0.00  0.00    -0.055 A 
HETATM   20  C   UNK N   1      28.779  38.664  55.964  0.00  0.00     0.046 A 
HETATM   21  C   UNK N   1      29.550  37.576  56.414  0.00  0.00     0.101 A 
HETATM   22  C   UNK N   1      29.709  36.455  55.577  0.00  0.00     0.099 A 
HETATM   23  C   UNK N   1      29.111  36.440  54.308  0.00  0.00     0.040 A 
HETATM   24  C   UNK N   1      28.359  37.533  53.863  0.00  0.00     0.010 A 
BRANCH  21  25
HETATM   25  O   UNK N   1      30.148  37.586  57.638  0.00  0.00    -0.353 OA
HETATM   26  C   UNK N   1      29.484  37.475  58.845  0.00  0.00     0.210 C 
ENDBRANCH  21  25
BRANCH  22  27
HETATM   27  O   UNK N   1      30.433  35.387  55.974  0.00  0.00    -0.358 OA
HETATM   28  H   UNK N   1      30.513  34.586  55.436  0.00  0.00     0.218 HD
ENDBRANCH  22  27
ENDBRANCH  18  19
ENDBRANCH   4  18
TORSDOF 8
ENDMDL
MODEL 7
REMARK VINA RESULT:      -5.1     13.518     15.643
REMARK  8 active torsions:
REMARK  status: ('A' for Active; 'I' for Inactive)
REMARK    1  A    between atoms: O_1  and  C_7 
REMARK    2  A    between atoms: O_2  and  C_8 
REMARK    3  A    between atoms: O_3  and  C_9 
REMARK    4  A    between atoms: O_4  and  C_10 
REMARK    5  A    between atoms: C_11  and  C_25 
REMARK    6  A    between atoms: C_12  and  C_26 
REMARK    7  A    between atoms: C_19  and  C_25 
REMARK    8  A    between atoms: C_20  and  C_26 
ROOT
HETATM    1  O   UNK N   1      29.774  40.108  58.313  0.00  0.00    -0.265 OA
HETATM    2  O   UNK N   1      28.868  41.723  57.045  0.00  0.00    -0.321 OA
HETATM    3  C   UNK N   1      30.732  42.299  58.375  0.00  0.00     0.096 C 
HETATM    4  C   UNK N   1      30.021  43.544  57.793  0.00  0.00     0.028 C 
HETATM    5  C   UNK N   1      29.725  41.280  57.980  0.00  0.00     0.263 C 
HETATM    6  C   UNK N   1      29.208  42.987  56.618  0.00  0.00     0.184 C 
ENDROOT
BRANCH   3   7
HETATM    7  C   UNK N   1      31.037  42.398  59.895  0.00  0.00     0.053 C 
BRANCH   7   8
HETATM    8  C   UNK N   1      32.452  42.836  60.214  0.00  0.00    -0.055 A 
HETATM    9  C   UNK N   1      32.778  43.294  61.500  0.00  0.00     0.046 A 
HETATM   10  C   UNK N   1      34.088  43.724  61.798  0.00  0.00     0.101 A 
HETATM   11  C   UNK N   1      35.069  43.698  60.786  0.00  0.00     0.099 A 
HETATM   12  C   UNK N   1      34.740  43.231  59.508  0.00  0.00     0.040 A 
HETATM   13  C   UNK N   1      33.446  42.795  59.225  0.00  0.00     0.010 A 
BRANCH  10  14
HETATM   14  O   UNK N   1      34.432  44.166  63.039  0.00  0.00    -0.353 OA
HETATM   15  C   UNK N   1      34.007  45.350  63.608  0.00  0.00     0.210 C 
ENDBRANCH  10  14
BRANCH  11  16
HETATM   16  O   UNK N   1      36.331  44.115  61.025  0.00  0.00    -0.358 OA
HETATM   17  H   UNK N   1      37.105  43.623  60.718  0.00  0.00     0.218 HD
ENDBRANCH  11  16
ENDBRANCH   7   8
ENDBRANCH   3   7
BRANCH   4  18
HETATM   18  C   UNK N   1      30.942  44.737  57.494  0.00  0.00     0.046 C 
BRANCH  18  19
HETATM   19  C   UNK N   1      30.499  45.986  58.217  0.00  0.00    -0.055 A 
HETATM   20  C   UNK N   1      30.339  47.174  57.487  0.00  0.00     0.046 A 
HETATM   21  C   UNK N   1      29.937  48.363  58.119  0.00  0.00     0.101 A 
HETATM   22  C   UNK N   1      29.677  48.351  59.504  0.00  0.00     0.099 A 
HETATM   23  C   UNK N   1      29.831  47.163  60.232  0.00  0.00     0.040 A 
HETATM   24  C   UNK N   1      30.247  45.988  59.597  0.00  0.00     0.010 A 
BRANCH  21  25
HETATM   25  O   UNK N   1      29.798  49.527  57.424  0.00  0.00    -0.353 OA
HETATM   26  C   UNK N   1      28.936  49.717  56.361  0.00  0.00     0.210 C 
ENDBRANCH  21  25
BRANCH  22  27
HETATM   27  O   UNK N   1      29.280  49.470  60.147  0.00  0.00    -0.358 OA
HETATM   28  H   UNK N   1      29.172  50.317  59.692  0.00  0.00     0.218 HD
ENDBRANCH  22  27
ENDBRANCH  18  19
ENDBRANCH   4  18
TORSDOF 8
ENDMDL
MODEL 8
REMARK VINA RESULT:      -5.1     13.753     16.145
REMARK  8 active torsions:
REMARK  status: ('A' for Active; 'I' for Inactive)
REMARK    1  A    between atoms: O_1  and  C_7 
REMARK    2  A    between atoms: O_2  and  C_8 
REMARK    3  A    between atoms: O_3  and  C_9 
REMARK    4  A    between atoms: O_4  and  C_10 
REMARK    5  A    between atoms: C_11  and  C_25 
REMARK    6  A    between atoms: C_12  and  C_26 
REMARK    7  A    between atoms: C_19  and  C_25 
REMARK    8  A    between atoms: C_20  and  C_26 
ROOT
HETATM    1  O   UNK N   1      33.868  48.586  65.197  0.00  0.00    -0.265 OA
HETATM    2  O   UNK N   1      32.019  47.372  64.824  0.00  0.00    -0.321 OA
HETATM    3  C   UNK N   1      34.082  46.450  64.142  0.00  0.00     0.096 C 
HETATM    4  C   UNK N   1      32.875  45.672  63.566  0.00  0.00     0.028 C 
HETATM    5  C   UNK N   1      33.336  47.604  64.708  0.00  0.00     0.263 C 
HETATM    6  C   UNK N   1      31.709  46.076  64.477  0.00  0.00     0.184 C 
ENDROOT
BRANCH   3   7
HETATM    7  C   UNK N   1      35.172  46.796  63.090  0.00  0.00     0.053 C 
BRANCH   7   8
HETATM    8  C   UNK N   1      36.579  46.430  63.516  0.00  0.00    -0.055 A 
HETATM    9  C   UNK N   1      36.903  45.098  63.821  0.00  0.00     0.046 A 
HETATM   10  C   UNK N   1      38.205  44.754  64.239  0.00  0.00     0.101 A 
HETATM   11  C   UNK N   1      39.181  45.763  64.357  0.00  0.00     0.099 A 
HETATM   12  C   UNK N   1      38.856  47.088  64.043  0.00  0.00     0.040 A 
HETATM   13  C   UNK N   1      37.569  47.419  63.617  0.00  0.00     0.010 A 
BRANCH  10  14
HETATM   14  O   UNK N   1      38.546  43.468  64.534  0.00  0.00    -0.353 OA
HETATM   15  C   UNK N   1      38.256  42.820  65.717  0.00  0.00     0.210 C 
ENDBRANCH  10  14
BRANCH  11  16
HETATM   16  O   UNK N   1      40.435  45.479  64.768  0.00  0.00    -0.358 OA
HETATM   17  H   UNK N   1      41.213  45.926  64.406  0.00  0.00     0.218 HD
ENDBRANCH  11  16
ENDBRANCH   7   8
ENDBRANCH   3   7
BRANCH   4  18
HETATM   18  C   UNK N   1      33.108  44.167  63.365  0.00  0.00     0.046 C 
BRANCH  18  19
HETATM   19  C   UNK N   1      33.161  43.794  61.903  0.00  0.00    -0.055 A 
HETATM   20  C   UNK N   1      31.973  43.802  61.157  0.00  0.00     0.046 A 
HETATM   21  C   UNK N   1      31.973  43.453  59.794  0.00  0.00     0.101 A 
HETATM   22  C   UNK N   1      33.189  43.109  59.173  0.00  0.00     0.099 A 
HETATM   23  C   UNK N   1      34.378  43.108  59.918  0.00  0.00     0.040 A 
HETATM   24  C   UNK N   1      34.366  43.441  61.277  0.00  0.00     0.010 A 
BRANCH  21  25
HETATM   25  O   UNK N   1      30.823  43.437  59.064  0.00  0.00    -0.353 OA
HETATM   26  C   UNK N   1      30.215  44.552  58.518  0.00  0.00     0.210 C 
ENDBRANCH  21  25
BRANCH  22  27
HETATM   27  O   UNK N   1      33.233  42.778  57.865  0.00  0.00    -0.358 OA
HETATM   28  H   UNK N   1      33.818  43.226  57.237  0.00  0.00     0.218 HD
ENDBRANCH  22  27
ENDBRANCH  18  19
ENDBRANCH   4  18
TORSDOF 8
ENDMDL
MODEL 9
REMARK VINA RESULT:      -5.0     13.395     16.621
REMARK  8 active torsions:
REMARK  status: ('A' for Active; 'I' for Inactive)
REMARK    1  A    between atoms: O_1  and  C_7 
REMARK    2  A    between atoms: O_2  and  C_8 
REMARK    3  A    between atoms: O_3  and  C_9 
REMARK    4  A    between atoms: O_4  and  C_10 
REMARK    5  A    between atoms: C_11  and  C_25 
REMARK    6  A    between atoms: C_12  and  C_26 
REMARK    7  A    between atoms: C_19  and  C_25 
REMARK    8  A    between atoms: C_20  and  C_26 
ROOT
HETATM    1  O   UNK N   1      30.290  43.799  64.193  0.00  0.00    -0.265 OA
HETATM    2  O   UNK N   1      31.282  45.466  65.320  0.00  0.00    -0.321 OA
HETATM    3  C   UNK N   1      32.240  44.824  63.260  0.00  0.00     0.096 C 
HETATM    4  C   UNK N   1      33.170  45.756  64.073  0.00  0.00     0.028 C 
HETATM    5  C   UNK N   1      31.216  44.584  64.311  0.00  0.00     0.263 C 
HETATM    6  C   UNK N   1      32.227  46.437  65.072  0.00  0.00     0.184 C 
ENDROOT
BRANCH   3   7
HETATM    7  C   UNK N   1      32.945  43.560  62.697  0.00  0.00     0.053 C 
BRANCH   7   8
HETATM    8  C   UNK N   1      32.895  43.446  61.187  0.00  0.00    -0.055 A 
HETATM    9  C   UNK N   1      31.733  43.808  60.488  0.00  0.00     0.046 A 
HETATM   10  C   UNK N   1      31.672  43.684  59.084  0.00  0.00     0.101 A 
HETATM   11  C   UNK N   1      32.790  43.183  58.387  0.00  0.00     0.099 A 
HETATM   12  C   UNK N   1      33.949  42.832  59.088  0.00  0.00     0.040 A 
HETATM   13  C   UNK N   1      34.006  42.970  60.475  0.00  0.00     0.010 A 
BRANCH  10  14
HETATM   14  O   UNK N   1      30.559  44.036  58.382  0.00  0.00    -0.353 OA
HETATM   15  C   UNK N   1      30.068  45.320  58.262  0.00  0.00     0.210 C 
ENDBRANCH  10  14
BRANCH  11  16
HETATM   16  O   UNK N   1      32.768  43.034  57.046  0.00  0.00    -0.358 OA
HETATM   17  H   UNK N   1      32.777  43.789  56.441  0.00  0.00     0.218 HD
ENDBRANCH  11  16
ENDBRANCH   7   8
ENDBRANCH   3   7
BRANCH   4  18
HETATM   18  C   UNK N   1      34.066  46.676  63.229  0.00  0.00     0.046 C 
BRANCH  18  19
HETATM   19  C   UNK N   1      35.526  46.308  63.352  0.00  0.00    -0.055 A 
HETATM   20  C   UNK N   1      36.302  46.930  64.341  0.00  0.00     0.046 A 
HETATM   21  C   UNK N   1      37.667  46.626  64.486  0.00  0.00     0.101 A 
HETATM   22  C   UNK N   1      38.252  45.669  63.634  0.00  0.00     0.099 A 
HETATM   23  C   UNK N   1      37.474  45.043  62.650  0.00  0.00     0.040 A 
HETATM   24  C   UNK N   1      36.121  45.364  62.502  0.00  0.00     0.010 A 
BRANCH  21  25
HETATM   25  O   UNK N   1      38.436  47.239  65.430  0.00  0.00    -0.353 OA
HETATM   26  C   UNK N   1      38.259  48.533  65.879  0.00  0.00     0.210 C 
ENDBRANCH  21  25
BRANCH  22  27
HETATM   27  O   UNK N   1      39.557  45.342  63.748  0.00  0.00    -0.358 OA
HETATM   28  H   UNK N   1      40.104  45.121  62.980  0.00  0.00     0.218 HD
ENDBRANCH  22  27
ENDBRANCH  18  19
ENDBRANCH   4  18
TORSDOF 8
ENDMDL
