MODEL 1
REMARK VINA RESULT:      -6.1      0.000      0.000
REMARK  4 active torsions:
REMARK  status: ('A' for Active; 'I' for Inactive)
REMARK    1  A    between atoms: O_7  and  C_19 
REMARK    2  A    between atoms: C_10  and  C_13 
REMARK    3  A    between atoms: C_17  and  C_28 
REMARK    4  A    between atoms: C_19  and  C_28 
ROOT
HETATM    1  O   UNK N   1      29.529  38.818  55.593  0.00  0.00    -0.310 OA
HETATM    2  O   UNK N   1      29.971  37.010  56.816  0.00  0.00    -0.265 OA
HETATM    3  O   UNK N   1      33.390  43.242  58.572  0.00  0.00    -0.296 OA
HETATM    4  O   UNK N   1      31.341  42.073  62.327  0.00  0.00    -0.296 OA
HETATM    5  C   UNK N   1      32.022  42.102  60.094  0.00  0.00     0.130 C 
HETATM    6  C   UNK N   1      29.258  40.172  55.425  0.00  0.00     0.179 C 
HETATM    7  C   UNK N   1      31.075  43.898  58.571  0.00  0.00     0.030 C 
HETATM    8  C   UNK N   1      28.434  40.752  56.635  0.00  0.00     0.011 C 
HETATM    9  C   UNK N   1      29.904  42.907  58.129  0.00  0.00     0.031 C 
HETATM   10  C   UNK N   1      30.678  44.794  59.824  0.00  0.00     0.026 C 
HETATM   11  C   UNK N   1      29.738  38.209  56.791  0.00  0.00     0.263 C 
HETATM   12  C   UNK N   1      32.266  43.092  59.033  0.00  0.00     0.147 C 
HETATM   13  C   UNK N   1      31.341  42.716  61.284  0.00  0.00     0.146 C 
HETATM   14  C   UNK N   1      31.169  40.978  59.486  0.00  0.00     0.054 C 
HETATM   15  C   UNK N   1      29.348  40.435  57.829  0.00  0.00    -0.057 C 
HETATM   16  C   UNK N   1      30.084  41.408  58.484  0.00  0.00    -0.070 C 
HETATM   17  C   UNK N   1      30.490  43.988  61.206  0.00  0.00     0.019 C 
HETATM   18  C   UNK N   1      28.143  42.263  56.493  0.00  0.00     0.017 C 
HETATM   19  C   UNK N   1      29.395  43.101  56.683  0.00  0.00     0.011 C 
HETATM   20  C   UNK N   1      31.570  44.810  57.396  0.00  0.00     0.025 C 
HETATM   21  C   UNK N   1      27.056  40.046  56.738  0.00  0.00     0.023 C 
HETATM   22  C   UNK N   1      29.558  38.947  58.093  0.00  0.00     0.146 C 
HETATM   23  C   UNK N   1      29.037  43.514  61.469  0.00  0.00     0.023 C 
HETATM   24  C   UNK N   1      30.918  44.895  62.394  0.00  0.00     0.023 C 
ENDROOT
BRANCH   6  25
HETATM   25  C   UNK N   1      28.629  40.376  54.068  0.00  0.00    -0.004 A 
HETATM   26  C   UNK N   1      27.783  39.506  53.407  0.00  0.00     0.151 A 
HETATM   27  O   UNK N   1      27.424  40.043  52.262  0.00  0.00    -0.334 OA
HETATM   28  C   UNK N   1      27.989  41.225  52.141  0.00  0.00     0.142 A 
HETATM   29  C   UNK N   1      28.754  41.483  53.257  0.00  0.00     0.036 A 
ENDBRANCH   6  25
BRANCH  10  30
HETATM   30  C   UNK N   1      29.512  45.792  59.479  0.00  0.00     0.118 C 
BRANCH  30  31
HETATM   31  C   UNK N   1      29.841  47.247  59.614  0.00  0.00     0.258 C 
HETATM   32  O   UNK N   1      29.693  47.812  60.691  0.00  0.00    -0.265 OA
BRANCH  31  33
HETATM   33  O   UNK N   1      30.312  47.920  58.533  0.00  0.00    -0.326 OA
HETATM   34  C   UNK N   1      29.566  48.180  57.406  0.00  0.00     0.213 C 
ENDBRANCH  31  33
ENDBRANCH  30  31
ENDBRANCH  10  30
TORSDOF 4
ENDMDL
MODEL 2
REMARK VINA RESULT:      -5.8      2.151      4.068
REMARK  4 active torsions:
REMARK  status: ('A' for Active; 'I' for Inactive)
REMARK    1  A    between atoms: O_7  and  C_19 
REMARK    2  A    between atoms: C_10  and  C_13 
REMARK    3  A    between atoms: C_17  and  C_28 
REMARK    4  A    between atoms: C_19  and  C_28 
ROOT
HETATM    1  O   UNK N   1      28.149  42.066  53.845  0.00  0.00    -0.310 OA
HETATM    2  O   UNK N   1      29.813  42.078  52.364  0.00  0.00    -0.265 OA
HETATM    3  O   UNK N   1      30.712  45.895  58.548  0.00  0.00    -0.296 OA
HETATM    4  O   UNK N   1      34.179  43.131  58.506  0.00  0.00    -0.296 OA
HETATM    5  C   UNK N   1      32.167  44.168  57.930  0.00  0.00     0.130 C 
HETATM    6  C   UNK N   1      27.627  41.993  55.132  0.00  0.00     0.179 C 
HETATM    7  C   UNK N   1      30.124  43.709  59.364  0.00  0.00     0.030 C 
HETATM    8  C   UNK N   1      28.496  41.058  56.055  0.00  0.00     0.011 C 
HETATM    9  C   UNK N   1      29.707  42.514  58.390  0.00  0.00     0.031 C 
HETATM   10  C   UNK N   1      31.042  43.223  60.570  0.00  0.00     0.026 C 
HETATM   11  C   UNK N   1      29.472  42.000  53.535  0.00  0.00     0.263 C 
HETATM   12  C   UNK N   1      30.974  44.700  58.605  0.00  0.00     0.147 C 
HETATM   13  C   UNK N   1      33.036  43.380  58.870  0.00  0.00     0.146 C 
HETATM   14  C   UNK N   1      31.683  43.295  56.761  0.00  0.00     0.054 C 
HETATM   15  C   UNK N   1      29.881  41.719  55.971  0.00  0.00    -0.057 C 
HETATM   16  C   UNK N   1      30.423  42.450  57.015  0.00  0.00    -0.070 C 
HETATM   17  C   UNK N   1      32.510  42.715  60.146  0.00  0.00     0.019 C 
HETATM   18  C   UNK N   1      27.960  40.981  57.503  0.00  0.00     0.017 C 
HETATM   19  C   UNK N   1      28.186  42.277  58.261  0.00  0.00     0.011 C 
HETATM   20  C   UNK N   1      28.887  44.497  59.916  0.00  0.00     0.025 C 
HETATM   21  C   UNK N   1      28.496  39.606  55.508  0.00  0.00     0.023 C 
HETATM   22  C   UNK N   1      30.512  41.700  54.583  0.00  0.00     0.146 C 
HETATM   23  C   UNK N   1      32.596  41.191  59.868  0.00  0.00     0.023 C 
HETATM   24  C   UNK N   1      33.518  43.049  61.282  0.00  0.00     0.023 C 
ENDROOT
BRANCH   6  25
HETATM   25  C   UNK N   1      26.167  41.625  55.044  0.00  0.00    -0.004 A 
HETATM   26  C   UNK N   1      25.145  42.086  55.852  0.00  0.00     0.151 A 
HETATM   27  O   UNK N   1      24.009  41.559  55.452  0.00  0.00    -0.334 OA
HETATM   28  C   UNK N   1      24.235  40.777  54.418  0.00  0.00     0.142 A 
HETATM   29  C   UNK N   1      25.580  40.789  54.118  0.00  0.00     0.036 A 
ENDBRANCH   6  25
BRANCH  10  30
HETATM   30  C   UNK N   1      30.264  42.260  61.540  0.00  0.00     0.118 C 
BRANCH  30  31
HETATM   31  C   UNK N   1      30.150  42.722  62.961  0.00  0.00     0.258 C 
HETATM   32  O   UNK N   1      29.162  43.346  63.325  0.00  0.00    -0.265 OA
BRANCH  31  33
HETATM   33  O   UNK N   1      31.151  42.430  63.831  0.00  0.00    -0.326 OA
HETATM   34  C   UNK N   1      31.778  43.365  64.622  0.00  0.00     0.213 C 
ENDBRANCH  31  33
ENDBRANCH  30  31
ENDBRANCH  10  30
TORSDOF 4
ENDMDL
MODEL 3
REMARK VINA RESULT:      -5.6      2.957      6.738
REMARK  4 active torsions:
REMARK  status: ('A' for Active; 'I' for Inactive)
REMARK    1  A    between atoms: O_7  and  C_19 
REMARK    2  A    between atoms: C_10  and  C_13 
REMARK    3  A    between atoms: C_17  and  C_28 
REMARK    4  A    between atoms: C_19  and  C_28 
ROOT
HETATM    1  O   UNK N   1      26.713  47.662  56.936  0.00  0.00    -0.310 OA
HETATM    2  O   UNK N   1      24.681  46.753  56.861  0.00  0.00    -0.265 OA
HETATM    3  O   UNK N   1      30.446  42.302  56.100  0.00  0.00    -0.296 OA
HETATM    4  O   UNK N   1      28.235  40.580  59.536  0.00  0.00    -0.296 OA
HETATM    5  C   UNK N   1      28.875  42.022  57.815  0.00  0.00     0.130 C 
HETATM    6  C   UNK N   1      28.047  47.700  57.331  0.00  0.00     0.179 C 
HETATM    7  C   UNK N   1      30.943  43.455  58.153  0.00  0.00     0.030 C 
HETATM    8  C   UNK N   1      28.247  47.060  58.755  0.00  0.00     0.011 C 
HETATM    9  C   UNK N   1      30.030  44.640  58.712  0.00  0.00     0.031 C 
HETATM   10  C   UNK N   1      31.463  42.487  59.304  0.00  0.00     0.026 C 
HETATM   11  C   UNK N   1      25.831  46.681  57.269  0.00  0.00     0.263 C 
HETATM   12  C   UNK N   1      30.117  42.572  57.248  0.00  0.00     0.147 C 
HETATM   13  C   UNK N   1      29.123  41.313  59.117  0.00  0.00     0.146 C 
HETATM   14  C   UNK N   1      27.896  43.191  57.998  0.00  0.00     0.054 C 
HETATM   15  C   UNK N   1      27.689  45.642  58.553  0.00  0.00    -0.057 C 
HETATM   16  C   UNK N   1      28.503  44.526  58.463  0.00  0.00    -0.070 C 
HETATM   17  C   UNK N   1      30.319  41.612  60.026  0.00  0.00     0.019 C 
HETATM   18  C   UNK N   1      29.725  47.059  59.210  0.00  0.00     0.017 C 
HETATM   19  C   UNK N   1      30.558  46.063  58.423  0.00  0.00     0.011 C 
HETATM   20  C   UNK N   1      32.152  43.974  57.303  0.00  0.00     0.025 C 
HETATM   21  C   UNK N   1      27.458  47.862  59.824  0.00  0.00     0.023 C 
HETATM   22  C   UNK N   1      26.199  45.584  58.234  0.00  0.00     0.146 C 
HETATM   23  C   UNK N   1      29.709  42.282  61.284  0.00  0.00     0.023 C 
HETATM   24  C   UNK N   1      30.916  40.242  60.457  0.00  0.00     0.023 C 
ENDROOT
BRANCH   6  25
HETATM   25  C   UNK N   1      28.554  49.115  57.189  0.00  0.00    -0.004 A 
HETATM   26  C   UNK N   1      27.877  50.275  57.514  0.00  0.00     0.151 A 
HETATM   27  O   UNK N   1      28.654  51.307  57.273  0.00  0.00    -0.334 OA
HETATM   28  C   UNK N   1      29.810  50.882  56.810  0.00  0.00     0.142 A 
HETATM   29  C   UNK N   1      29.798  49.505  56.744  0.00  0.00     0.036 A 
ENDBRANCH   6  25
BRANCH  10  30
HETATM   30  C   UNK N   1      32.445  43.227  60.285  0.00  0.00     0.118 C 
BRANCH  30  31
HETATM   31  C   UNK N   1      33.840  42.685  60.338  0.00  0.00     0.258 C 
HETATM   32  O   UNK N   1      34.090  41.585  59.860  0.00  0.00    -0.265 OA
BRANCH  31  33
HETATM   33  O   UNK N   1      34.817  43.433  60.912  0.00  0.00    -0.326 OA
HETATM   34  C   UNK N   1      34.673  44.094  62.111  0.00  0.00     0.213 C 
ENDBRANCH  31  33
ENDBRANCH  30  31
ENDBRANCH  10  30
TORSDOF 4
ENDMDL
MODEL 4
REMARK VINA RESULT:      -5.4      3.889      9.204
REMARK  4 active torsions:
REMARK  status: ('A' for Active; 'I' for Inactive)
REMARK    1  A    between atoms: O_7  and  C_19 
REMARK    2  A    between atoms: C_10  and  C_13 
REMARK    3  A    between atoms: C_17  and  C_28 
REMARK    4  A    between atoms: C_19  and  C_28 
ROOT
HETATM    1  O   UNK N   1      34.934  47.527  63.337  0.00  0.00    -0.310 OA
HETATM    2  O   UNK N   1      33.706  49.236  64.066  0.00  0.00    -0.265 OA
HETATM    3  O   UNK N   1      30.998  45.160  58.619  0.00  0.00    -0.296 OA
HETATM    4  O   UNK N   1      27.856  44.963  61.741  0.00  0.00    -0.296 OA
HETATM    5  C   UNK N   1      29.871  45.422  60.655  0.00  0.00     0.130 C 
HETATM    6  C   UNK N   1      35.113  46.217  62.904  0.00  0.00     0.179 C 
HETATM    7  C   UNK N   1      31.508  43.515  60.299  0.00  0.00     0.030 C 
HETATM    8  C   UNK N   1      34.105  45.232  63.605  0.00  0.00     0.011 C 
HETATM    9  C   UNK N   1      32.240  43.887  61.668  0.00  0.00     0.031 C 
HETATM   10  C   UNK N   1      30.349  42.443  60.498  0.00  0.00     0.026 C 
HETATM   11  C   UNK N   1      33.742  48.070  63.703  0.00  0.00     0.263 C 
HETATM   12  C   UNK N   1      30.813  44.740  59.754  0.00  0.00     0.147 C 
HETATM   13  C   UNK N   1      28.848  44.474  61.214  0.00  0.00     0.146 C 
HETATM   14  C   UNK N   1      30.697  46.071  61.777  0.00  0.00     0.054 C 
HETATM   15  C   UNK N   1      32.744  45.842  63.230  0.00  0.00    -0.057 C 
HETATM   16  C   UNK N   1      31.905  45.269  62.289  0.00  0.00    -0.070 C 
HETATM   17  C   UNK N   1      29.076  42.964  61.336  0.00  0.00     0.019 C 
HETATM   18  C   UNK N   1      34.257  43.772  63.121  0.00  0.00     0.017 C 
HETATM   19  C   UNK N   1      33.757  43.592  61.699  0.00  0.00     0.011 C 
HETATM   20  C   UNK N   1      32.505  43.027  59.194  0.00  0.00     0.025 C 
HETATM   21  C   UNK N   1      34.345  45.215  65.138  0.00  0.00     0.023 C 
HETATM   22  C   UNK N   1      32.492  47.234  63.799  0.00  0.00     0.146 C 
HETATM   23  C   UNK N   1      29.169  42.694  62.860  0.00  0.00     0.023 C 
HETATM   24  C   UNK N   1      27.790  42.266  60.806  0.00  0.00     0.023 C 
ENDROOT
BRANCH   6  25
HETATM   25  C   UNK N   1      36.570  45.852  63.052  0.00  0.00    -0.004 A 
HETATM   26  C   UNK N   1      37.307  45.028  62.222  0.00  0.00     0.151 A 
HETATM   27  O   UNK N   1      38.545  44.972  62.662  0.00  0.00    -0.334 OA
HETATM   28  C   UNK N   1      38.657  45.722  63.737  0.00  0.00     0.142 A 
HETATM   29  C   UNK N   1      37.440  46.303  64.020  0.00  0.00     0.036 A 
ENDBRANCH   6  25
BRANCH  10  30
HETATM   30  C   UNK N   1      30.918  41.051  60.958  0.00  0.00     0.118 C 
BRANCH  30  31
HETATM   31  C   UNK N   1      30.765  39.930  59.976  0.00  0.00     0.258 C 
HETATM   32  O   UNK N   1      30.009  40.050  59.020  0.00  0.00    -0.265 OA
BRANCH  31  33
HETATM   33  O   UNK N   1      31.481  38.791  60.159  0.00  0.00    -0.326 OA
HETATM   34  C   UNK N   1      31.158  37.819  61.079  0.00  0.00     0.213 C 
ENDBRANCH  31  33
ENDBRANCH  30  31
ENDBRANCH  10  30
TORSDOF 4
ENDMDL
MODEL 5
REMARK VINA RESULT:      -5.4      2.708      5.047
REMARK  4 active torsions:
REMARK  status: ('A' for Active; 'I' for Inactive)
REMARK    1  A    between atoms: O_7  and  C_19 
REMARK    2  A    between atoms: C_10  and  C_13 
REMARK    3  A    between atoms: C_17  and  C_28 
REMARK    4  A    between atoms: C_19  and  C_28 
ROOT
HETATM    1  O   UNK N   1      24.394  40.330  52.269  0.00  0.00    -0.310 OA
HETATM    2  O   UNK N   1      23.157  38.737  53.215  0.00  0.00    -0.265 OA
HETATM    3  O   UNK N   1      30.272  39.003  54.924  0.00  0.00    -0.296 OA
HETATM    4  O   UNK N   1      28.236  39.276  58.854  0.00  0.00    -0.296 OA
HETATM    5  C   UNK N   1      28.594  39.188  56.548  0.00  0.00     0.130 C 
HETATM    6  C   UNK N   1      25.368  41.323  52.282  0.00  0.00     0.179 C 
HETATM    7  C   UNK N   1      29.536  41.245  55.398  0.00  0.00     0.030 C 
HETATM    8  C   UNK N   1      25.417  42.066  53.670  0.00  0.00     0.011 C 
HETATM    9  C   UNK N   1      28.054  41.745  55.078  0.00  0.00     0.031 C 
HETATM   10  C   UNK N   1      30.086  41.805  56.782  0.00  0.00     0.026 C 
HETATM   11  C   UNK N   1      24.025  39.586  53.347  0.00  0.00     0.263 C 
HETATM   12  C   UNK N   1      29.533  39.743  55.561  0.00  0.00     0.147 C 
HETATM   13  C   UNK N   1      28.751  39.838  57.895  0.00  0.00     0.146 C 
HETATM   14  C   UNK N   1      27.175  39.391  55.997  0.00  0.00     0.054 C 
HETATM   15  C   UNK N   1      25.682  40.909  54.646  0.00  0.00    -0.057 C 
HETATM   16  C   UNK N   1      26.912  40.709  55.250  0.00  0.00    -0.070 C 
HETATM   17  C   UNK N   1      29.337  41.239  58.091  0.00  0.00     0.019 C 
HETATM   18  C   UNK N   1      26.512  43.156  53.728  0.00  0.00     0.017 C 
HETATM   19  C   UNK N   1      27.906  42.557  53.772  0.00  0.00     0.011 C 
HETATM   20  C   UNK N   1      30.547  41.576  54.247  0.00  0.00     0.025 C 
HETATM   21  C   UNK N   1      24.069  42.781  53.949  0.00  0.00     0.023 C 
HETATM   22  C   UNK N   1      24.565  39.873  54.724  0.00  0.00     0.146 C 
HETATM   23  C   UNK N   1      28.143  42.110  58.562  0.00  0.00     0.023 C 
HETATM   24  C   UNK N   1      30.352  41.147  59.265  0.00  0.00     0.023 C 
ENDROOT
BRANCH   6  25
HETATM   25  C   UNK N   1      25.163  42.219  51.085  0.00  0.00    -0.004 A 
HETATM   26  C   UNK N   1      26.142  42.877  50.365  0.00  0.00     0.151 A 
HETATM   27  O   UNK N   1      25.578  43.539  49.379  0.00  0.00    -0.334 OA
HETATM   28  C   UNK N   1      24.277  43.345  49.415  0.00  0.00     0.142 A 
HETATM   29  C   UNK N   1      23.966  42.515  50.470  0.00  0.00     0.036 A 
ENDBRANCH   6  25
BRANCH  10  30
HETATM   30  C   UNK N   1      30.264  43.367  56.747  0.00  0.00     0.118 C 
BRANCH  30  31
HETATM   31  C   UNK N   1      31.636  43.872  57.076  0.00  0.00     0.258 C 
HETATM   32  O   UNK N   1      32.579  43.093  57.133  0.00  0.00    -0.265 OA
BRANCH  31  33
HETATM   33  O   UNK N   1      31.814  45.199  57.299  0.00  0.00    -0.326 OA
HETATM   34  C   UNK N   1      30.811  46.051  57.705  0.00  0.00     0.213 C 
ENDBRANCH  31  33
ENDBRANCH  30  31
ENDBRANCH  10  30
TORSDOF 4
ENDMDL
MODEL 6
REMARK VINA RESULT:      -5.3      1.685      2.220
REMARK  4 active torsions:
REMARK  status: ('A' for Active; 'I' for Inactive)
REMARK    1  A    between atoms: O_7  and  C_19 
REMARK    2  A    between atoms: C_10  and  C_13 
REMARK    3  A    between atoms: C_17  and  C_28 
REMARK    4  A    between atoms: C_19  and  C_28 
ROOT
HETATM    1  O   UNK N   1      29.756  37.437  58.439  0.00  0.00    -0.310 OA
HETATM    2  O   UNK N   1      30.021  36.410  60.397  0.00  0.00    -0.265 OA
HETATM    3  O   UNK N   1      33.649  42.676  59.307  0.00  0.00    -0.296 OA
HETATM    4  O   UNK N   1      31.304  43.447  62.991  0.00  0.00    -0.296 OA
HETATM    5  C   UNK N   1      32.127  42.409  61.068  0.00  0.00     0.130 C 
HETATM    6  C   UNK N   1      29.569  38.557  57.635  0.00  0.00     0.179 C 
HETATM    7  C   UNK N   1      31.378  43.294  58.810  0.00  0.00     0.030 C 
HETATM    8  C   UNK N   1      28.701  39.652  58.362  0.00  0.00     0.011 C 
HETATM    9  C   UNK N   1      30.186  42.231  58.789  0.00  0.00     0.031 C 
HETATM   10  C   UNK N   1      30.949  44.681  59.461  0.00  0.00     0.026 C 
HETATM   11  C   UNK N   1      29.855  37.460  59.796  0.00  0.00     0.263 C 
HETATM   12  C   UNK N   1      32.491  42.780  59.691  0.00  0.00     0.147 C 
HETATM   13  C   UNK N   1      31.405  43.523  61.772  0.00  0.00     0.146 C 
HETATM   14  C   UNK N   1      31.256  41.147  60.989  0.00  0.00     0.054 C 
HETATM   15  C   UNK N   1      29.519  39.918  59.636  0.00  0.00    -0.057 C 
HETATM   16  C   UNK N   1      30.262  41.072  59.817  0.00  0.00    -0.070 C 
HETATM   17  C   UNK N   1      30.630  44.623  61.039  0.00  0.00     0.019 C 
HETATM   18  C   UNK N   1      28.501  40.924  57.506  0.00  0.00     0.017 C 
HETATM   19  C   UNK N   1      29.781  41.731  57.384  0.00  0.00     0.011 C 
HETATM   20  C   UNK N   1      31.995  43.537  57.390  0.00  0.00     0.025 C 
HETATM   21  C   UNK N   1      27.283  39.102  58.670  0.00  0.00     0.023 C 
HETATM   22  C   UNK N   1      29.632  38.727  60.581  0.00  0.00     0.146 C 
HETATM   23  C   UNK N   1      29.139  44.353  61.373  0.00  0.00     0.023 C 
HETATM   24  C   UNK N   1      31.029  45.975  61.695  0.00  0.00     0.023 C 
ENDROOT
BRANCH   6  25
HETATM   25  C   UNK N   1      29.040  38.109  56.295  0.00  0.00    -0.004 A 
HETATM   26  C   UNK N   1      28.203  37.038  56.049  0.00  0.00     0.151 A 
HETATM   27  O   UNK N   1      27.943  36.981  54.762  0.00  0.00    -0.334 OA
HETATM   28  C   UNK N   1      28.566  37.965  54.151  0.00  0.00     0.142 A 
HETATM   29  C   UNK N   1      29.267  38.709  55.075  0.00  0.00     0.036 A 
ENDBRANCH   6  25
BRANCH  10  30
HETATM   30  C   UNK N   1      29.862  45.418  58.595  0.00  0.00     0.118 C 
BRANCH  30  31
HETATM   31  C   UNK N   1      30.228  46.794  58.128  0.00  0.00     0.258 C 
HETATM   32  O   UNK N   1      30.956  46.939  57.154  0.00  0.00    -0.265 OA
BRANCH  31  33
HETATM   33  O   UNK N   1      29.734  47.869  58.794  0.00  0.00    -0.326 OA
HETATM   34  C   UNK N   1      29.862  49.168  58.358  0.00  0.00     0.213 C 
ENDBRANCH  31  33
ENDBRANCH  30  31
ENDBRANCH  10  30
TORSDOF 4
ENDMDL
MODEL 7
REMARK VINA RESULT:      -5.1      2.164      7.731
REMARK  4 active torsions:
REMARK  status: ('A' for Active; 'I' for Inactive)
REMARK    1  A    between atoms: O_7  and  C_19 
REMARK    2  A    between atoms: C_10  and  C_13 
REMARK    3  A    between atoms: C_17  and  C_28 
REMARK    4  A    between atoms: C_19  and  C_28 
ROOT
HETATM    1  O   UNK N   1      32.217  42.648  59.649  0.00  0.00    -0.310 OA
HETATM    2  O   UNK N   1      33.872  43.649  58.543  0.00  0.00    -0.265 OA
HETATM    3  O   UNK N   1      29.931  38.614  54.975  0.00  0.00    -0.296 OA
HETATM    4  O   UNK N   1      29.553  42.234  52.441  0.00  0.00    -0.296 OA
HETATM    5  C   UNK N   1      30.096  40.826  54.224  0.00  0.00     0.130 C 
HETATM    6  C   UNK N   1      30.928  42.140  59.769  0.00  0.00     0.179 C 
HETATM    7  C   UNK N   1      28.239  40.113  55.801  0.00  0.00     0.030 C 
HETATM    8  C   UNK N   1      29.897  42.970  58.917  0.00  0.00     0.011 C 
HETATM    9  C   UNK N   1      28.579  41.344  56.759  0.00  0.00     0.031 C 
HETATM   10  C   UNK N   1      27.135  40.472  54.713  0.00  0.00     0.026 C 
HETATM   11  C   UNK N   1      32.721  43.241  58.532  0.00  0.00     0.263 C 
HETATM   12  C   UNK N   1      29.467  39.747  55.001  0.00  0.00     0.147 C 
HETATM   13  C   UNK N   1      29.105  41.521  53.331  0.00  0.00     0.146 C 
HETATM   14  C   UNK N   1      30.723  41.808  55.225  0.00  0.00     0.054 C 
HETATM   15  C   UNK N   1      30.489  42.865  57.502  0.00  0.00    -0.057 C 
HETATM   16  C   UNK N   1      29.931  42.067  56.518  0.00  0.00    -0.070 C 
HETATM   17  C   UNK N   1      27.597  41.541  53.601  0.00  0.00     0.019 C 
HETATM   18  C   UNK N   1      28.459  42.410  59.004  0.00  0.00     0.017 C 
HETATM   19  C   UNK N   1      28.318  41.094  58.261  0.00  0.00     0.011 C 
HETATM   20  C   UNK N   1      27.813  38.830  56.593  0.00  0.00     0.025 C 
HETATM   21  C   UNK N   1      29.831  44.435  59.426  0.00  0.00     0.023 C 
HETATM   22  C   UNK N   1      31.854  43.524  57.332  0.00  0.00     0.146 C 
HETATM   23  C   UNK N   1      27.276  43.014  53.968  0.00  0.00     0.023 C 
HETATM   24  C   UNK N   1      26.890  41.221  52.253  0.00  0.00     0.023 C 
ENDROOT
BRANCH   6  25
HETATM   25  C   UNK N   1      30.591  42.013  61.234  0.00  0.00    -0.004 A 
HETATM   26  C   UNK N   1      29.958  40.951  61.851  0.00  0.00     0.151 A 
HETATM   27  O   UNK N   1      29.864  41.196  63.139  0.00  0.00    -0.334 OA
HETATM   28  C   UNK N   1      30.407  42.365  63.399  0.00  0.00     0.142 A 
HETATM   29  C   UNK N   1      30.886  42.918  62.231  0.00  0.00     0.036 A 
ENDBRANCH   6  25
BRANCH  10  30
HETATM   30  C   UNK N   1      25.741  40.770  55.376  0.00  0.00     0.118 C 
BRANCH  30  31
HETATM   31  C   UNK N   1      24.598  39.931  54.892  0.00  0.00     0.258 C 
HETATM   32  O   UNK N   1      23.758  40.413  54.142  0.00  0.00    -0.265 OA
BRANCH  31  33
HETATM   33  O   UNK N   1      24.517  38.635  55.288  0.00  0.00    -0.326 OA
HETATM   34  C   UNK N   1      24.746  37.562  54.457  0.00  0.00     0.213 C 
ENDBRANCH  31  33
ENDBRANCH  30  31
ENDBRANCH  10  30
TORSDOF 4
ENDMDL
MODEL 8
REMARK VINA RESULT:      -5.1      3.049      8.383
REMARK  4 active torsions:
REMARK  status: ('A' for Active; 'I' for Inactive)
REMARK    1  A    between atoms: O_7  and  C_19 
REMARK    2  A    between atoms: C_10  and  C_13 
REMARK    3  A    between atoms: C_17  and  C_28 
REMARK    4  A    between atoms: C_19  and  C_28 
ROOT
HETATM    1  O   UNK N   1      33.888  46.641  63.577  0.00  0.00    -0.310 OA
HETATM    2  O   UNK N   1      32.549  47.943  64.792  0.00  0.00    -0.265 OA
HETATM    3  O   UNK N   1      30.677  46.666  57.829  0.00  0.00    -0.296 OA
HETATM    4  O   UNK N   1      27.132  45.326  60.133  0.00  0.00    -0.296 OA
HETATM    5  C   UNK N   1      29.274  46.103  59.618  0.00  0.00     0.130 C 
HETATM    6  C   UNK N   1      34.142  45.628  62.659  0.00  0.00     0.179 C 
HETATM    7  C   UNK N   1      30.967  44.445  58.708  0.00  0.00     0.030 C 
HETATM    8  C   UNK N   1      33.058  44.489  62.740  0.00  0.00     0.011 C 
HETATM    9  C   UNK N   1      31.498  44.173  60.189  0.00  0.00     0.031 C 
HETATM   10  C   UNK N   1      29.805  43.446  58.281  0.00  0.00     0.026 C 
HETATM   11  C   UNK N   1      32.650  47.037  63.978  0.00  0.00     0.263 C 
HETATM   12  C   UNK N   1      30.340  45.818  58.646  0.00  0.00     0.147 C 
HETATM   13  C   UNK N   1      28.194  45.057  59.584  0.00  0.00     0.146 C 
HETATM   14  C   UNK N   1      29.927  46.180  61.007  0.00  0.00     0.054 C 
HETATM   15  C   UNK N   1      31.755  45.264  62.481  0.00  0.00    -0.057 C 
HETATM   16  C   UNK N   1      31.062  45.180  61.286  0.00  0.00    -0.070 C 
HETATM   17  C   UNK N   1      28.422  43.627  59.085  0.00  0.00     0.019 C 
HETATM   18  C   UNK N   1      33.294  43.362  61.708  0.00  0.00     0.017 C 
HETATM   19  C   UNK N   1      32.998  43.820  60.291  0.00  0.00     0.011 C 
HETATM   20  C   UNK N   1      32.115  44.419  57.642  0.00  0.00     0.025 C 
HETATM   21  C   UNK N   1      33.082  43.818  64.139  0.00  0.00     0.023 C 
HETATM   22  C   UNK N   1      31.409  46.299  63.547  0.00  0.00     0.146 C 
HETATM   23  C   UNK N   1      28.305  42.738  60.351  0.00  0.00     0.023 C 
HETATM   24  C   UNK N   1      27.231  43.278  58.147  0.00  0.00     0.023 C 
ENDROOT
BRANCH   6  25
HETATM   25  C   UNK N   1      35.568  45.166  62.829  0.00  0.00    -0.004 A 
HETATM   26  C   UNK N   1      36.486  44.921  61.825  0.00  0.00     0.151 A 
HETATM   27  O   UNK N   1      37.628  44.558  62.366  0.00  0.00    -0.334 OA
HETATM   28  C   UNK N   1      37.506  44.556  63.676  0.00  0.00     0.142 A 
HETATM   29  C   UNK N   1      36.227  44.938  64.018  0.00  0.00     0.036 A 
ENDBRANCH   6  25
BRANCH  10  30
HETATM   30  C   UNK N   1      30.321  41.963  58.181  0.00  0.00     0.118 C 
BRANCH  30  31
HETATM   31  C   UNK N   1      29.778  41.162  57.037  0.00  0.00     0.258 C 
HETATM   32  O   UNK N   1      29.303  40.051  57.237  0.00  0.00    -0.265 OA
BRANCH  31  33
HETATM   33  O   UNK N   1      29.812  41.690  55.787  0.00  0.00    -0.326 OA
HETATM   34  C   UNK N   1      30.973  41.933  55.088  0.00  0.00     0.213 C 
ENDBRANCH  31  33
ENDBRANCH  30  31
ENDBRANCH  10  30
TORSDOF 4
ENDMDL
MODEL 9
REMARK VINA RESULT:      -5.0      2.439      8.340
REMARK  4 active torsions:
REMARK  status: ('A' for Active; 'I' for Inactive)
REMARK    1  A    between atoms: O_7  and  C_19 
REMARK    2  A    between atoms: C_10  and  C_13 
REMARK    3  A    between atoms: C_17  and  C_28 
REMARK    4  A    between atoms: C_19  and  C_28 
ROOT
HETATM    1  O   UNK N   1      31.892  42.743  58.012  0.00  0.00    -0.310 OA
HETATM    2  O   UNK N   1      32.455  43.707  56.085  0.00  0.00    -0.265 OA
HETATM    3  O   UNK N   1      30.540  36.642  55.939  0.00  0.00    -0.296 OA
HETATM    4  O   UNK N   1      27.749  38.546  53.067  0.00  0.00    -0.296 OA
HETATM    5  C   UNK N   1      29.398  38.266  54.697  0.00  0.00     0.130 C 
HETATM    6  C   UNK N   1      31.103  41.919  58.809  0.00  0.00     0.179 C 
HETATM    7  C   UNK N   1      28.670  37.667  57.053  0.00  0.00     0.030 C 
HETATM    8  C   UNK N   1      29.601  41.923  58.336  0.00  0.00     0.011 C 
HETATM    9  C   UNK N   1      28.648  39.216  57.441  0.00  0.00     0.031 C 
HETATM   10  C   UNK N   1      27.263  37.150  56.520  0.00  0.00     0.026 C 
HETATM   11  C   UNK N   1      31.694  42.962  56.683  0.00  0.00     0.263 C 
HETATM   12  C   UNK N   1      29.624  37.452  55.902  0.00  0.00     0.147 C 
HETATM   13  C   UNK N   1      27.983  38.151  54.203  0.00  0.00     0.146 C 
HETATM   14  C   UNK N   1      29.745  39.719  55.052  0.00  0.00     0.054 C 
HETATM   15  C   UNK N   1      29.722  41.461  56.875  0.00  0.00    -0.057 C 
HETATM   16  C   UNK N   1      29.350  40.193  56.461  0.00  0.00    -0.070 C 
HETATM   17  C   UNK N   1      26.806  37.761  55.102  0.00  0.00     0.019 C 
HETATM   18  C   UNK N   1      28.704  40.991  59.183  0.00  0.00     0.017 C 
HETATM   19  C   UNK N   1      28.996  39.526  58.914  0.00  0.00     0.011 C 
HETATM   20  C   UNK N   1      29.164  36.757  58.230  0.00  0.00     0.025 C 
HETATM   21  C   UNK N   1      28.999  43.347  58.461  0.00  0.00     0.023 C 
HETATM   22  C   UNK N   1      30.487  42.417  55.966  0.00  0.00     0.146 C 
HETATM   23  C   UNK N   1      25.946  39.048  55.216  0.00  0.00     0.023 C 
HETATM   24  C   UNK N   1      25.974  36.700  54.327  0.00  0.00     0.023 C 
ENDROOT
BRANCH   6  25
HETATM   25  C   UNK N   1      31.319  42.293  60.255  0.00  0.00    -0.004 A 
HETATM   26  C   UNK N   1      31.149  41.476  61.357  0.00  0.00     0.151 A 
HETATM   27  O   UNK N   1      31.457  42.150  62.443  0.00  0.00    -0.334 OA
HETATM   28  C   UNK N   1      31.824  43.368  62.107  0.00  0.00     0.142 A 
HETATM   29  C   UNK N   1      31.760  43.506  60.737  0.00  0.00     0.036 A 
ENDBRANCH   6  25
BRANCH  10  30
HETATM   30  C   UNK N   1      26.164  37.195  57.644  0.00  0.00     0.118 C 
BRANCH  30  31
HETATM   31  C   UNK N   1      25.571  35.873  58.026  0.00  0.00     0.258 C 
HETATM   32  O   UNK N   1      24.672  35.820  58.856  0.00  0.00    -0.265 OA
BRANCH  31  33
HETATM   33  O   UNK N   1      26.037  34.745  57.431  0.00  0.00    -0.326 OA
HETATM   34  C   UNK N   1      26.649  33.716  58.111  0.00  0.00     0.213 C 
ENDBRANCH  31  33
ENDBRANCH  30  31
ENDBRANCH  10  30
TORSDOF 4
ENDMDL
