MODEL 1
REMARK VINA RESULT:      -5.8      0.000      0.000
REMARK  14 active torsions:
REMARK  status: ('A' for Active; 'I' for Inactive)
REMARK    1  A    between atoms: O_1  and  C_11 
REMARK    2  A    between atoms: O_2  and  C_12 
REMARK    3  A    between atoms: O_3  and  C_13 
REMARK    4  A    between atoms: O_5  and  C_30 
REMARK    5  A    between atoms: O_6  and  C_31 
REMARK    6  A    between atoms: O_7  and  C_32 
REMARK    7  A    between atoms: O_9  and  C_37 
REMARK    8  A    between atoms: O_9  and  C_38 
REMARK    9  A    between atoms: O_10  and  C_36 
REMARK   10  A    between atoms: C_18  and  C_36 
REMARK   11  A    between atoms: C_19  and  C_39 
REMARK   12  A    between atoms: C_29  and  C_34 
REMARK   13  A    between atoms: C_33  and  C_37 
REMARK   14  A    between atoms: C_38  and  C_40 
ROOT
HETATM    1  O   UNK N   1      29.350  43.498  57.544  0.00  0.00    -0.372 OA
HETATM    2  C   UNK N   1      30.555  43.878  56.886  0.00  0.00     0.166 C 
HETATM    3  C   UNK N   1      31.205  42.623  56.236  0.00  0.00     0.179 C 
HETATM    4  C   UNK N   1      30.225  41.967  55.242  0.00  0.00     0.180 C 
HETATM    5  C   UNK N   1      28.895  41.704  55.962  0.00  0.00     0.180 C 
HETATM    6  C   UNK N   1      28.384  43.010  56.624  0.00  0.00     0.177 C 
ENDROOT
BRANCH   2   7
HETATM    7  C   UNK N   1      31.462  44.629  57.925  0.00  0.00     0.085 C 
HETATM    8  C   UNK N   1      30.803  45.963  58.272  0.00  0.00    -0.029 A 
HETATM    9  C   UNK N   1      30.176  46.198  59.525  0.00  0.00     0.055 A 
HETATM   10  C   UNK N   1      30.823  46.984  57.301  0.00  0.00     0.018 A 
HETATM   11  C   UNK N   1      29.578  47.481  59.767  0.00  0.00     0.081 A 
HETATM   12  C   UNK N   1      30.194  45.103  60.540  0.00  0.00     0.199 C 
HETATM   13  C   UNK N   1      29.646  48.472  58.788  0.00  0.00     0.046 A 
HETATM   14  C   UNK N   1      30.264  48.237  57.562  0.00  0.00    -0.032 A 
HETATM   15  O   UNK N   1      29.515  45.176  61.551  0.00  0.00    -0.286 OA
HETATM   16  C   UNK N   1      31.128  43.963  60.379  0.00  0.00     0.055 A 
HETATM   17  C   UNK N   1      31.412  43.092  61.463  0.00  0.00     0.080 A 
HETATM   18  C   UNK N   1      31.775  43.763  59.142  0.00  0.00    -0.030 A 
HETATM   19  C   UNK N   1      32.356  42.069  61.313  0.00  0.00     0.037 A 
HETATM   20  C   UNK N   1      33.024  41.905  60.106  0.00  0.00     0.003 A 
HETATM   21  C   UNK N   1      32.737  42.739  59.031  0.00  0.00     0.009 A 
BRANCH  11  22
HETATM   22  O   UNK N   1      28.958  47.822  60.922  0.00  0.00    -0.360 OA
HETATM   23  H   UNK N   1      28.865  48.703  61.290  0.00  0.00     0.217 HD
ENDBRANCH  11  22
BRANCH  14  24
HETATM   24  C   UNK N   1      30.338  49.336  56.536  0.00  0.00     0.203 C 
BRANCH  24  25
HETATM   25  O   UNK N   1      31.290  49.026  55.558  0.00  0.00    -0.396 OA
HETATM   26  H   UNK N   1      31.643  49.896  55.230  0.00  0.00     0.209 HD
ENDBRANCH  24  25
ENDBRANCH  14  24
BRANCH  17  27
HETATM   27  O   UNK N   1      30.794  43.251  62.655  0.00  0.00    -0.360 OA
HETATM   28  H   UNK N   1      31.277  43.511  63.451  0.00  0.00     0.217 HD
ENDBRANCH  17  27
ENDBRANCH   2   7
BRANCH   3  29
HETATM   29  O   UNK N   1      32.417  42.945  55.599  0.00  0.00    -0.390 OA
HETATM   30  H   UNK N   1      33.128  42.951  56.291  0.00  0.00     0.210 HD
ENDBRANCH   3  29
BRANCH   6  31
HETATM   31  C   UNK N   1      27.074  42.753  57.389  0.00  0.00     0.202 C 
BRANCH  31  32
HETATM   32  O   UNK N   1      26.719  43.927  58.087  0.00  0.00    -0.385 OA
BRANCH  32  33
HETATM   33  C   UNK N   1      26.005  44.811  57.259  0.00  0.00     0.195 C 
BRANCH  33  34
HETATM   34  C   UNK N   1      26.465  46.194  57.608  0.00  0.00    -0.000 C 
HETATM   35  C   UNK N   1      25.636  47.252  57.618  0.00  0.00     0.009 C 
BRANCH  35  36
HETATM   36  C   UNK N   1      26.107  48.623  57.956  0.00  0.00    -0.036 A 
HETATM   37  C   UNK N   1      26.044  49.055  59.292  0.00  0.00     0.014 A 
HETATM   38  C   UNK N   1      26.447  50.350  59.636  0.00  0.00     0.037 A 
HETATM   39  C   UNK N   1      26.942  51.218  58.658  0.00  0.00     0.065 A 
HETATM   40  C   UNK N   1      27.034  50.787  57.328  0.00  0.00     0.037 A 
HETATM   41  C   UNK N   1      26.613  49.503  56.976  0.00  0.00     0.014 A 
BRANCH  39  42
HETATM   42  O   UNK N   1      27.328  52.463  59.002  0.00  0.00    -0.361 OA
HETATM   43  H   UNK N   1      27.241  53.209  58.392  0.00  0.00     0.217 HD
ENDBRANCH  39  42
ENDBRANCH  35  36
ENDBRANCH  33  34
ENDBRANCH  32  33
ENDBRANCH  31  32
ENDBRANCH   6  31
BRANCH   4  44
HETATM   44  O   UNK N   1      30.737  40.748  54.769  0.00  0.00    -0.390 OA
HETATM   45  H   UNK N   1      29.968  40.218  54.434  0.00  0.00     0.210 HD
ENDBRANCH   4  44
BRANCH   5  46
HETATM   46  O   UNK N   1      27.946  41.159  55.078  0.00  0.00    -0.390 OA
HETATM   47  H   UNK N   1      27.046  41.357  55.446  0.00  0.00     0.210 HD
ENDBRANCH   5  46
TORSDOF 14
ENDMDL
MODEL 2
REMARK VINA RESULT:      -5.7      2.903      7.280
REMARK  14 active torsions:
REMARK  status: ('A' for Active; 'I' for Inactive)
REMARK    1  A    between atoms: O_1  and  C_11 
REMARK    2  A    between atoms: O_2  and  C_12 
REMARK    3  A    between atoms: O_3  and  C_13 
REMARK    4  A    between atoms: O_5  and  C_30 
REMARK    5  A    between atoms: O_6  and  C_31 
REMARK    6  A    between atoms: O_7  and  C_32 
REMARK    7  A    between atoms: O_9  and  C_37 
REMARK    8  A    between atoms: O_9  and  C_38 
REMARK    9  A    between atoms: O_10  and  C_36 
REMARK   10  A    between atoms: C_18  and  C_36 
REMARK   11  A    between atoms: C_19  and  C_39 
REMARK   12  A    between atoms: C_29  and  C_34 
REMARK   13  A    between atoms: C_33  and  C_37 
REMARK   14  A    between atoms: C_38  and  C_40 
ROOT
HETATM    1  O   UNK N   1      29.020  41.795  56.380  0.00  0.00    -0.372 OA
HETATM    2  C   UNK N   1      30.098  41.237  55.634  0.00  0.00     0.166 C 
HETATM    3  C   UNK N   1      31.121  42.358  55.291  0.00  0.00     0.179 C 
HETATM    4  C   UNK N   1      31.639  43.023  56.583  0.00  0.00     0.180 C 
HETATM    5  C   UNK N   1      30.436  43.483  57.418  0.00  0.00     0.180 C 
HETATM    6  C   UNK N   1      29.458  42.299  57.635  0.00  0.00     0.177 C 
ENDROOT
BRANCH   2   7
HETATM    7  C   UNK N   1      29.496  40.490  54.392  0.00  0.00     0.085 C 
HETATM    8  C   UNK N   1      28.877  39.175  54.867  0.00  0.00    -0.029 A 
HETATM    9  C   UNK N   1      27.472  38.978  54.935  0.00  0.00     0.055 A 
HETATM   10  C   UNK N   1      29.746  38.135  55.253  0.00  0.00     0.018 A 
HETATM   11  C   UNK N   1      26.975  37.713  55.396  0.00  0.00     0.081 A 
HETATM   12  C   UNK N   1      26.580  40.092  54.497  0.00  0.00     0.199 C 
HETATM   13  C   UNK N   1      27.872  36.701  55.741  0.00  0.00     0.046 A 
HETATM   14  C   UNK N   1      29.249  36.900  55.671  0.00  0.00    -0.032 A 
HETATM   15  O   UNK N   1      25.379  40.053  54.709  0.00  0.00    -0.286 OA
HETATM   16  C   UNK N   1      27.134  41.211  53.697  0.00  0.00     0.055 A 
HETATM   17  C   UNK N   1      26.281  42.097  52.989  0.00  0.00     0.080 A 
HETATM   18  C   UNK N   1      28.533  41.373  53.604  0.00  0.00    -0.030 A 
HETATM   19  C   UNK N   1      26.827  43.098  52.177  0.00  0.00     0.037 A 
HETATM   20  C   UNK N   1      28.206  43.225  52.053  0.00  0.00     0.003 A 
HETATM   21  C   UNK N   1      29.050  42.375  52.759  0.00  0.00     0.009 A 
BRANCH  11  22
HETATM   22  O   UNK N   1      25.660  37.407  55.499  0.00  0.00    -0.360 OA
HETATM   23  H   UNK N   1      24.984  37.908  55.961  0.00  0.00     0.217 HD
ENDBRANCH  11  22
BRANCH  14  24
HETATM   24  C   UNK N   1      30.188  35.779  56.029  0.00  0.00     0.203 C 
BRANCH  24  25
HETATM   25  O   UNK N   1      31.287  35.768  55.163  0.00  0.00    -0.396 OA
HETATM   26  H   UNK N   1      31.944  35.134  55.558  0.00  0.00     0.209 HD
ENDBRANCH  24  25
ENDBRANCH  14  24
BRANCH  17  27
HETATM   27  O   UNK N   1      24.938  41.974  53.073  0.00  0.00    -0.360 OA
HETATM   28  H   UNK N   1      24.476  41.977  53.922  0.00  0.00     0.217 HD
ENDBRANCH  17  27
ENDBRANCH   2   7
BRANCH   3  29
HETATM   29  O   UNK N   1      32.191  41.859  54.527  0.00  0.00    -0.390 OA
HETATM   30  H   UNK N   1      33.031  42.074  55.010  0.00  0.00     0.210 HD
ENDBRANCH   3  29
BRANCH   6  31
HETATM   31  C   UNK N   1      28.223  42.755  58.430  0.00  0.00     0.202 C 
BRANCH  31  32
HETATM   32  O   UNK N   1      27.540  43.738  57.683  0.00  0.00    -0.385 OA
BRANCH  32  33
HETATM   33  C   UNK N   1      27.161  44.821  58.497  0.00  0.00     0.195 C 
BRANCH  33  34
HETATM   34  C   UNK N   1      28.017  45.982  58.094  0.00  0.00    -0.000 C 
HETATM   35  C   UNK N   1      27.505  47.116  57.584  0.00  0.00     0.009 C 
BRANCH  35  36
HETATM   36  C   UNK N   1      28.366  48.260  57.177  0.00  0.00    -0.036 A 
HETATM   37  C   UNK N   1      29.758  48.159  57.345  0.00  0.00     0.014 A 
HETATM   38  C   UNK N   1      30.590  49.231  57.004  0.00  0.00     0.037 A 
HETATM   39  C   UNK N   1      30.048  50.403  56.468  0.00  0.00     0.065 A 
HETATM   40  C   UNK N   1      28.664  50.503  56.274  0.00  0.00     0.037 A 
HETATM   41  C   UNK N   1      27.827  49.445  56.631  0.00  0.00     0.014 A 
BRANCH  39  42
HETATM   42  O   UNK N   1      30.861  51.429  56.144  0.00  0.00    -0.361 OA
HETATM   43  H   UNK N   1      31.380  51.897  56.813  0.00  0.00     0.217 HD
ENDBRANCH  39  42
ENDBRANCH  35  36
ENDBRANCH  33  34
ENDBRANCH  32  33
ENDBRANCH  31  32
ENDBRANCH   6  31
BRANCH   4  44
HETATM   44  O   UNK N   1      32.439  44.138  56.283  0.00  0.00    -0.390 OA
HETATM   45  H   UNK N   1      33.385  43.856  56.385  0.00  0.00     0.210 HD
ENDBRANCH   4  44
BRANCH   5  46
HETATM   46  O   UNK N   1      30.856  44.044  58.637  0.00  0.00    -0.390 OA
HETATM   47  H   UNK N   1      31.165  43.302  59.218  0.00  0.00     0.210 HD
ENDBRANCH   5  46
TORSDOF 14
ENDMDL
MODEL 3
REMARK VINA RESULT:      -5.7      2.076      5.603
REMARK  14 active torsions:
REMARK  status: ('A' for Active; 'I' for Inactive)
REMARK    1  A    between atoms: O_1  and  C_11 
REMARK    2  A    between atoms: O_2  and  C_12 
REMARK    3  A    between atoms: O_3  and  C_13 
REMARK    4  A    between atoms: O_5  and  C_30 
REMARK    5  A    between atoms: O_6  and  C_31 
REMARK    6  A    between atoms: O_7  and  C_32 
REMARK    7  A    between atoms: O_9  and  C_37 
REMARK    8  A    between atoms: O_9  and  C_38 
REMARK    9  A    between atoms: O_10  and  C_36 
REMARK   10  A    between atoms: C_18  and  C_36 
REMARK   11  A    between atoms: C_19  and  C_39 
REMARK   12  A    between atoms: C_29  and  C_34 
REMARK   13  A    between atoms: C_33  and  C_37 
REMARK   14  A    between atoms: C_38  and  C_40 
ROOT
HETATM    1  O   UNK N   1      29.325  43.502  57.449  0.00  0.00    -0.372 OA
HETATM    2  C   UNK N   1      30.559  43.891  56.853  0.00  0.00     0.166 C 
HETATM    3  C   UNK N   1      31.249  42.640  56.236  0.00  0.00     0.179 C 
HETATM    4  C   UNK N   1      30.325  41.978  55.195  0.00  0.00     0.180 C 
HETATM    5  C   UNK N   1      28.962  41.706  55.847  0.00  0.00     0.180 C 
HETATM    6  C   UNK N   1      28.409  43.008  56.482  0.00  0.00     0.177 C 
ENDROOT
BRANCH   2   7
HETATM    7  C   UNK N   1      31.408  44.647  57.936  0.00  0.00     0.085 C 
HETATM    8  C   UNK N   1      30.721  45.976  58.251  0.00  0.00    -0.029 A 
HETATM    9  C   UNK N   1      30.031  46.204  59.473  0.00  0.00     0.055 A 
HETATM   10  C   UNK N   1      30.780  46.998  57.283  0.00  0.00     0.018 A 
HETATM   11  C   UNK N   1      29.412  47.480  59.686  0.00  0.00     0.081 A 
HETATM   12  C   UNK N   1      30.009  45.107  60.486  0.00  0.00     0.199 C 
HETATM   13  C   UNK N   1      29.519  48.474  58.713  0.00  0.00     0.046 A 
HETATM   14  C   UNK N   1      30.198  48.246  57.518  0.00  0.00    -0.032 A 
HETATM   15  O   UNK N   1      29.281  45.172  61.462  0.00  0.00    -0.286 OA
HETATM   16  C   UNK N   1      30.959  43.975  60.370  0.00  0.00     0.055 A 
HETATM   17  C   UNK N   1      31.197  43.104  61.465  0.00  0.00     0.080 A 
HETATM   18  C   UNK N   1      31.668  43.782  59.165  0.00  0.00    -0.030 A 
HETATM   19  C   UNK N   1      32.156  42.090  61.361  0.00  0.00     0.037 A 
HETATM   20  C   UNK N   1      32.884  41.933  60.187  0.00  0.00     0.003 A 
HETATM   21  C   UNK N   1      32.643  42.767  59.100  0.00  0.00     0.009 A 
BRANCH  11  22
HETATM   22  O   UNK N   1      28.733  47.814  60.810  0.00  0.00    -0.360 OA
HETATM   23  H   UNK N   1      28.429  48.689  61.064  0.00  0.00     0.217 HD
ENDBRANCH  11  22
BRANCH  14  24
HETATM   24  C   UNK N   1      30.313  49.347  56.498  0.00  0.00     0.203 C 
BRANCH  24  25
HETATM   25  O   UNK N   1      31.309  49.043  55.563  0.00  0.00    -0.396 OA
HETATM   26  H   UNK N   1      31.919  48.396  56.010  0.00  0.00     0.209 HD
ENDBRANCH  24  25
ENDBRANCH  14  24
BRANCH  17  27
HETATM   27  O   UNK N   1      30.521  43.257  62.626  0.00  0.00    -0.360 OA
HETATM   28  H   UNK N   1      29.567  43.412  62.645  0.00  0.00     0.217 HD
ENDBRANCH  17  27
ENDBRANCH   2   7
BRANCH   3  29
HETATM   29  O   UNK N   1      32.489  42.970  55.661  0.00  0.00    -0.390 OA
HETATM   30  H   UNK N   1      33.097  43.248  56.394  0.00  0.00     0.210 HD
ENDBRANCH   3  29
BRANCH   6  31
HETATM   31  C   UNK N   1      27.065  42.742  57.181  0.00  0.00     0.202 C 
BRANCH  31  32
HETATM   32  O   UNK N   1      27.202  43.036  58.554  0.00  0.00    -0.385 OA
BRANCH  32  33
HETATM   33  C   UNK N   1      26.376  42.207  59.335  0.00  0.00     0.195 C 
BRANCH  33  34
HETATM   34  C   UNK N   1      27.220  41.052  59.777  0.00  0.00    -0.000 C 
HETATM   35  C   UNK N   1      28.533  41.173  60.043  0.00  0.00     0.009 C 
BRANCH  35  36
HETATM   36  C   UNK N   1      29.363  40.015  60.472  0.00  0.00    -0.036 A 
HETATM   37  C   UNK N   1      30.227  39.414  59.541  0.00  0.00     0.014 A 
HETATM   38  C   UNK N   1      30.995  38.302  59.904  0.00  0.00     0.037 A 
HETATM   39  C   UNK N   1      30.930  37.795  61.206  0.00  0.00     0.065 A 
HETATM   40  C   UNK N   1      30.091  38.404  62.148  0.00  0.00     0.037 A 
HETATM   41  C   UNK N   1      29.307  39.500  61.785  0.00  0.00     0.014 A 
BRANCH  39  42
HETATM   42  O   UNK N   1      31.676  36.723  61.544  0.00  0.00    -0.361 OA
HETATM   43  H   UNK N   1      31.583  36.291  62.404  0.00  0.00     0.217 HD
ENDBRANCH  39  42
ENDBRANCH  35  36
ENDBRANCH  33  34
ENDBRANCH  32  33
ENDBRANCH  31  32
ENDBRANCH   6  31
BRANCH   4  44
HETATM   44  O   UNK N   1      30.868  40.762  54.748  0.00  0.00    -0.390 OA
HETATM   45  H   UNK N   1      30.200  40.347  54.143  0.00  0.00     0.210 HD
ENDBRANCH   4  44
BRANCH   5  46
HETATM   46  O   UNK N   1      28.062  41.155  54.916  0.00  0.00    -0.390 OA
HETATM   47  H   UNK N   1      27.146  41.417  55.194  0.00  0.00     0.210 HD
ENDBRANCH   5  46
TORSDOF 14
ENDMDL
MODEL 4
REMARK VINA RESULT:      -5.5      4.528      7.348
REMARK  14 active torsions:
REMARK  status: ('A' for Active; 'I' for Inactive)
REMARK    1  A    between atoms: O_1  and  C_11 
REMARK    2  A    between atoms: O_2  and  C_12 
REMARK    3  A    between atoms: O_3  and  C_13 
REMARK    4  A    between atoms: O_5  and  C_30 
REMARK    5  A    between atoms: O_6  and  C_31 
REMARK    6  A    between atoms: O_7  and  C_32 
REMARK    7  A    between atoms: O_9  and  C_37 
REMARK    8  A    between atoms: O_9  and  C_38 
REMARK    9  A    between atoms: O_10  and  C_36 
REMARK   10  A    between atoms: C_18  and  C_36 
REMARK   11  A    between atoms: C_19  and  C_39 
REMARK   12  A    between atoms: C_29  and  C_34 
REMARK   13  A    between atoms: C_33  and  C_37 
REMARK   14  A    between atoms: C_38  and  C_40 
ROOT
HETATM    1  O   UNK N   1      30.724  40.652  60.633  0.00  0.00    -0.372 OA
HETATM    2  C   UNK N   1      30.653  41.580  61.711  0.00  0.00     0.166 C 
HETATM    3  C   UNK N   1      29.268  41.456  62.408  0.00  0.00     0.179 C 
HETATM    4  C   UNK N   1      29.051  40.015  62.914  0.00  0.00     0.180 C 
HETATM    5  C   UNK N   1      29.275  39.044  61.746  0.00  0.00     0.180 C 
HETATM    6  C   UNK N   1      30.656  39.309  61.093  0.00  0.00     0.177 C 
ENDROOT
BRANCH   2   7
HETATM    7  C   UNK N   1      30.984  43.008  61.149  0.00  0.00     0.085 C 
HETATM    8  C   UNK N   1      32.406  43.380  61.569  0.00  0.00    -0.029 A 
HETATM    9  C   UNK N   1      33.489  43.403  60.649  0.00  0.00     0.055 A 
HETATM   10  C   UNK N   1      32.634  43.702  62.921  0.00  0.00     0.018 A 
HETATM   11  C   UNK N   1      34.793  43.761  61.129  0.00  0.00     0.081 A 
HETATM   12  C   UNK N   1      33.207  43.079  59.219  0.00  0.00     0.199 C 
HETATM   13  C   UNK N   1      34.968  44.101  62.470  0.00  0.00     0.046 A 
HETATM   14  C   UNK N   1      33.902  44.078  63.368  0.00  0.00    -0.032 A 
HETATM   15  O   UNK N   1      34.118  42.898  58.427  0.00  0.00    -0.286 OA
HETATM   16  C   UNK N   1      31.810  43.083  58.722  0.00  0.00     0.055 A 
HETATM   17  C   UNK N   1      31.529  43.112  57.331  0.00  0.00     0.080 A 
HETATM   18  C   UNK N   1      30.743  43.100  59.645  0.00  0.00    -0.030 A 
HETATM   19  C   UNK N   1      30.205  43.195  56.884  0.00  0.00     0.037 A 
HETATM   20  C   UNK N   1      29.160  43.257  57.798  0.00  0.00     0.003 A 
HETATM   21  C   UNK N   1      29.423  43.208  59.163  0.00  0.00     0.009 A 
BRANCH  11  22
HETATM   22  O   UNK N   1      35.897  43.823  60.347  0.00  0.00    -0.360 OA
HETATM   23  H   UNK N   1      36.132  43.229  59.630  0.00  0.00     0.217 HD
ENDBRANCH  11  22
BRANCH  14  24
HETATM   24  C   UNK N   1      34.123  44.472  64.804  0.00  0.00     0.203 C 
BRANCH  24  25
HETATM   25  O   UNK N   1      34.985  45.571  64.880  0.00  0.00    -0.396 OA
HETATM   26  H   UNK N   1      34.408  46.364  65.050  0.00  0.00     0.209 HD
ENDBRANCH  24  25
ENDBRANCH  14  24
BRANCH  17  27
HETATM   27  O   UNK N   1      32.531  43.080  56.425  0.00  0.00    -0.360 OA
HETATM   28  H   UNK N   1      33.461  43.051  56.690  0.00  0.00     0.217 HD
ENDBRANCH  17  27
ENDBRANCH   2   7
BRANCH   3  29
HETATM   29  O   UNK N   1      29.140  42.376  63.463  0.00  0.00    -0.390 OA
HETATM   30  H   UNK N   1      29.683  43.174  63.233  0.00  0.00     0.210 HD
ENDBRANCH   3  29
BRANCH   6  31
HETATM   31  C   UNK N   1      30.876  38.375  59.891  0.00  0.00     0.202 C 
BRANCH  31  32
HETATM   32  O   UNK N   1      29.631  38.125  59.277  0.00  0.00    -0.385 OA
BRANCH  32  33
HETATM   33  C   UNK N   1      29.792  37.795  57.919  0.00  0.00     0.195 C 
BRANCH  33  34
HETATM   34  C   UNK N   1      29.431  39.018  57.134  0.00  0.00    -0.000 C 
HETATM   35  C   UNK N   1      29.231  38.993  55.804  0.00  0.00     0.009 C 
BRANCH  35  36
HETATM   36  C   UNK N   1      28.882  40.217  55.033  0.00  0.00    -0.036 A 
HETATM   37  C   UNK N   1      27.566  40.705  55.087  0.00  0.00     0.014 A 
HETATM   38  C   UNK N   1      27.199  41.833  54.345  0.00  0.00     0.037 A 
HETATM   39  C   UNK N   1      28.146  42.503  53.564  0.00  0.00     0.065 A 
HETATM   40  C   UNK N   1      29.467  42.038  53.525  0.00  0.00     0.037 A 
HETATM   41  C   UNK N   1      29.833  40.901  54.246  0.00  0.00     0.014 A 
BRANCH  39  42
HETATM   42  O   UNK N   1      27.780  43.589  52.854  0.00  0.00    -0.361 OA
HETATM   43  H   UNK N   1      28.430  44.232  52.539  0.00  0.00     0.217 HD
ENDBRANCH  39  42
ENDBRANCH  35  36
ENDBRANCH  33  34
ENDBRANCH  32  33
ENDBRANCH  31  32
ENDBRANCH   6  31
BRANCH   4  44
HETATM   44  O   UNK N   1      27.744  39.849  63.401  0.00  0.00    -0.390 OA
HETATM   45  H   UNK N   1      27.800  39.258  64.195  0.00  0.00     0.210 HD
ENDBRANCH   4  44
BRANCH   5  46
HETATM   46  O   UNK N   1      29.146  37.709  62.173  0.00  0.00    -0.390 OA
HETATM   47  H   UNK N   1      29.438  37.668  63.120  0.00  0.00     0.210 HD
ENDBRANCH   5  46
TORSDOF 14
ENDMDL
MODEL 5
REMARK VINA RESULT:      -5.4      3.433      7.641
REMARK  14 active torsions:
REMARK  status: ('A' for Active; 'I' for Inactive)
REMARK    1  A    between atoms: O_1  and  C_11 
REMARK    2  A    between atoms: O_2  and  C_12 
REMARK    3  A    between atoms: O_3  and  C_13 
REMARK    4  A    between atoms: O_5  and  C_30 
REMARK    5  A    between atoms: O_6  and  C_31 
REMARK    6  A    between atoms: O_7  and  C_32 
REMARK    7  A    between atoms: O_9  and  C_37 
REMARK    8  A    between atoms: O_9  and  C_38 
REMARK    9  A    between atoms: O_10  and  C_36 
REMARK   10  A    between atoms: C_18  and  C_36 
REMARK   11  A    between atoms: C_19  and  C_39 
REMARK   12  A    between atoms: C_29  and  C_34 
REMARK   13  A    between atoms: C_33  and  C_37 
REMARK   14  A    between atoms: C_38  and  C_40 
ROOT
HETATM    1  O   UNK N   1      31.055  44.188  59.562  0.00  0.00    -0.372 OA
HETATM    2  C   UNK N   1      31.038  43.489  58.321  0.00  0.00     0.166 C 
HETATM    3  C   UNK N   1      32.491  43.375  57.775  0.00  0.00     0.179 C 
HETATM    4  C   UNK N   1      33.391  42.651  58.797  0.00  0.00     0.180 C 
HETATM    5  C   UNK N   1      33.266  43.359  60.153  0.00  0.00     0.180 C 
HETATM    6  C   UNK N   1      31.773  43.472  60.556  0.00  0.00     0.177 C 
ENDROOT
BRANCH   2   7
HETATM    7  C   UNK N   1      30.028  44.217  57.364  0.00  0.00     0.085 C 
HETATM    8  C   UNK N   1      28.862  43.272  57.078  0.00  0.00    -0.029 A 
HETATM    9  C   UNK N   1      27.571  43.467  57.639  0.00  0.00     0.055 A 
HETATM   10  C   UNK N   1      29.093  42.171  56.231  0.00  0.00     0.018 A 
HETATM   11  C   UNK N   1      26.532  42.529  57.320  0.00  0.00     0.081 A 
HETATM   12  C   UNK N   1      27.353  44.658  58.514  0.00  0.00     0.199 C 
HETATM   13  C   UNK N   1      26.799  41.469  56.454  0.00  0.00     0.046 A 
HETATM   14  C   UNK N   1      28.066  41.284  55.905  0.00  0.00    -0.032 A 
HETATM   15  O   UNK N   1      26.331  44.773  59.171  0.00  0.00    -0.286 OA
HETATM   16  C   UNK N   1      28.335  45.768  58.507  0.00  0.00     0.055 A 
HETATM   17  C   UNK N   1      28.009  47.037  59.053  0.00  0.00     0.080 A 
HETATM   18  C   UNK N   1      29.599  45.576  57.911  0.00  0.00    -0.030 A 
HETATM   19  C   UNK N   1      28.920  48.095  58.965  0.00  0.00     0.037 A 
HETATM   20  C   UNK N   1      30.147  47.912  58.337  0.00  0.00     0.003 A 
HETATM   21  C   UNK N   1      30.485  46.667  57.818  0.00  0.00     0.009 A 
BRANCH  11  22
HETATM   22  O   UNK N   1      25.264  42.614  57.790  0.00  0.00    -0.360 OA
HETATM   23  H   UNK N   1      24.472  42.254  57.386  0.00  0.00     0.217 HD
ENDBRANCH  11  22
BRANCH  14  24
HETATM   24  C   UNK N   1      28.312  40.141  54.957  0.00  0.00     0.203 C 
BRANCH  24  25
HETATM   25  O   UNK N   1      29.662  40.095  54.591  0.00  0.00    -0.396 OA
HETATM   26  H   UNK N   1      29.874  39.135  54.438  0.00  0.00     0.209 HD
ENDBRANCH  24  25
ENDBRANCH  14  24
BRANCH  17  27
HETATM   27  O   UNK N   1      26.810  47.245  59.643  0.00  0.00    -0.360 OA
HETATM   28  H   UNK N   1      26.210  47.944  59.351  0.00  0.00     0.217 HD
ENDBRANCH  17  27
ENDBRANCH   2   7
BRANCH   3  29
HETATM   29  O   UNK N   1      32.521  42.717  56.533  0.00  0.00    -0.390 OA
HETATM   30  H   UNK N   1      32.586  41.743  56.710  0.00  0.00     0.210 HD
ENDBRANCH   3  29
BRANCH   6  31
HETATM   31  C   UNK N   1      31.628  44.221  61.892  0.00  0.00     0.202 C 
BRANCH  31  32
HETATM   32  O   UNK N   1      31.928  43.332  62.945  0.00  0.00    -0.385 OA
BRANCH  32  33
HETATM   33  C   UNK N   1      32.515  44.010  64.029  0.00  0.00     0.195 C 
BRANCH  33  34
HETATM   34  C   UNK N   1      33.599  44.873  63.460  0.00  0.00    -0.000 C 
HETATM   35  C   UNK N   1      34.891  44.738  63.807  0.00  0.00     0.009 C 
BRANCH  35  36
HETATM   36  C   UNK N   1      35.957  45.609  63.243  0.00  0.00    -0.036 A 
HETATM   37  C   UNK N   1      37.214  45.050  62.957  0.00  0.00     0.014 A 
HETATM   38  C   UNK N   1      38.247  45.851  62.458  0.00  0.00     0.037 A 
HETATM   39  C   UNK N   1      38.031  47.211  62.214  0.00  0.00     0.065 A 
HETATM   40  C   UNK N   1      36.773  47.771  62.472  0.00  0.00     0.037 A 
HETATM   41  C   UNK N   1      35.746  46.981  62.989  0.00  0.00     0.014 A 
BRANCH  39  42
HETATM   42  O   UNK N   1      39.035  47.971  61.733  0.00  0.00    -0.361 OA
HETATM   43  H   UNK N   1      39.162  48.103  60.783  0.00  0.00     0.217 HD
ENDBRANCH  39  42
ENDBRANCH  35  36
ENDBRANCH  33  34
ENDBRANCH  32  33
ENDBRANCH  31  32
ENDBRANCH   6  31
BRANCH   4  44
HETATM   44  O   UNK N   1      34.734  42.682  58.387  0.00  0.00    -0.390 OA
HETATM   45  H   UNK N   1      35.262  43.053  59.141  0.00  0.00     0.210 HD
ENDBRANCH   4  44
BRANCH   5  46
HETATM   46  O   UNK N   1      34.025  42.698  61.135  0.00  0.00    -0.390 OA
HETATM   47  H   UNK N   1      33.420  42.494  61.894  0.00  0.00     0.210 HD
ENDBRANCH   5  46
TORSDOF 14
ENDMDL
MODEL 6
REMARK VINA RESULT:      -5.3      3.072      5.673
REMARK  14 active torsions:
REMARK  status: ('A' for Active; 'I' for Inactive)
REMARK    1  A    between atoms: O_1  and  C_11 
REMARK    2  A    between atoms: O_2  and  C_12 
REMARK    3  A    between atoms: O_3  and  C_13 
REMARK    4  A    between atoms: O_5  and  C_30 
REMARK    5  A    between atoms: O_6  and  C_31 
REMARK    6  A    between atoms: O_7  and  C_32 
REMARK    7  A    between atoms: O_9  and  C_37 
REMARK    8  A    between atoms: O_9  and  C_38 
REMARK    9  A    between atoms: O_10  and  C_36 
REMARK   10  A    between atoms: C_18  and  C_36 
REMARK   11  A    between atoms: C_19  and  C_39 
REMARK   12  A    between atoms: C_29  and  C_34 
REMARK   13  A    between atoms: C_33  and  C_37 
REMARK   14  A    between atoms: C_38  and  C_40 
ROOT
HETATM    1  O   UNK N   1      27.195  42.218  54.770  0.00  0.00    -0.372 OA
HETATM    2  C   UNK N   1      28.556  42.247  54.351  0.00  0.00     0.166 C 
HETATM    3  C   UNK N   1      28.617  42.214  52.796  0.00  0.00     0.179 C 
HETATM    4  C   UNK N   1      27.839  43.407  52.205  0.00  0.00     0.180 C 
HETATM    5  C   UNK N   1      26.421  43.412  52.794  0.00  0.00     0.180 C 
HETATM    6  C   UNK N   1      26.491  43.375  54.343  0.00  0.00     0.177 C 
ENDROOT
BRANCH   2   7
HETATM    7  C   UNK N   1      29.312  41.072  55.067  0.00  0.00     0.085 C 
HETATM    8  C   UNK N   1      29.743  41.544  56.455  0.00  0.00    -0.029 A 
HETATM    9  C   UNK N   1      29.110  41.087  57.643  0.00  0.00     0.055 A 
HETATM   10  C   UNK N   1      30.801  42.470  56.542  0.00  0.00     0.018 A 
HETATM   11  C   UNK N   1      29.575  41.585  58.906  0.00  0.00     0.081 A 
HETATM   12  C   UNK N   1      28.007  40.089  57.516  0.00  0.00     0.199 C 
HETATM   13  C   UNK N   1      30.645  42.479  58.947  0.00  0.00     0.046 A 
HETATM   14  C   UNK N   1      31.263  42.922  57.779  0.00  0.00    -0.032 A 
HETATM   15  O   UNK N   1      27.307  39.805  58.474  0.00  0.00    -0.286 OA
HETATM   16  C   UNK N   1      27.825  39.347  56.246  0.00  0.00     0.055 A 
HETATM   17  C   UNK N   1      27.025  38.176  56.190  0.00  0.00     0.080 A 
HETATM   18  C   UNK N   1      28.490  39.787  55.082  0.00  0.00    -0.030 A 
HETATM   19  C   UNK N   1      26.929  37.446  55.000  0.00  0.00     0.037 A 
HETATM   20  C   UNK N   1      27.622  37.859  53.868  0.00  0.00     0.003 A 
HETATM   21  C   UNK N   1      28.392  39.017  53.906  0.00  0.00     0.009 A 
BRANCH  11  22
HETATM   22  O   UNK N   1      29.055  41.219  60.102  0.00  0.00    -0.360 OA
HETATM   23  H   UNK N   1      28.531  40.437  60.290  0.00  0.00     0.217 HD
ENDBRANCH  11  22
BRANCH  14  24
HETATM   24  C   UNK N   1      32.429  43.870  57.861  0.00  0.00     0.203 C 
BRANCH  24  25
HETATM   25  O   UNK N   1      32.275  44.913  56.940  0.00  0.00    -0.396 OA
HETATM   26  H   UNK N   1      31.392  45.328  57.138  0.00  0.00     0.209 HD
ENDBRANCH  24  25
ENDBRANCH  14  24
BRANCH  17  27
HETATM   27  O   UNK N   1      26.364  37.741  57.287  0.00  0.00    -0.360 OA
HETATM   28  H   UNK N   1      26.096  36.818  57.390  0.00  0.00     0.217 HD
ENDBRANCH  17  27
ENDBRANCH   2   7
BRANCH   3  29
HETATM   29  O   UNK N   1      29.946  42.211  52.335  0.00  0.00    -0.390 OA
HETATM   30  H   UNK N   1      30.277  43.145  52.367  0.00  0.00     0.210 HD
ENDBRANCH   3  29
BRANCH   6  31
HETATM   31  C   UNK N   1      25.078  43.333  54.948  0.00  0.00     0.202 C 
BRANCH  31  32
HETATM   32  O   UNK N   1      25.113  43.932  56.225  0.00  0.00    -0.385 OA
BRANCH  32  33
HETATM   33  C   UNK N   1      25.288  42.967  57.233  0.00  0.00     0.195 C 
BRANCH  33  34
HETATM   34  C   UNK N   1      26.288  43.529  58.197  0.00  0.00    -0.000 C 
HETATM   35  C   UNK N   1      27.156  44.498  57.859  0.00  0.00     0.009 C 
BRANCH  35  36
HETATM   36  C   UNK N   1      28.152  45.041  58.822  0.00  0.00    -0.036 A 
HETATM   37  C   UNK N   1      28.049  44.689  60.179  0.00  0.00     0.014 A 
HETATM   38  C   UNK N   1      28.949  45.211  61.114  0.00  0.00     0.037 A 
HETATM   39  C   UNK N   1      29.977  46.067  60.704  0.00  0.00     0.065 A 
HETATM   40  C   UNK N   1      30.102  46.403  59.350  0.00  0.00     0.037 A 
HETATM   41  C   UNK N   1      29.194  45.902  58.416  0.00  0.00     0.014 A 
BRANCH  39  42
HETATM   42  O   UNK N   1      30.838  46.563  61.615  0.00  0.00    -0.361 OA
HETATM   43  H   UNK N   1      30.945  46.157  62.487  0.00  0.00     0.217 HD
ENDBRANCH  39  42
ENDBRANCH  35  36
ENDBRANCH  33  34
ENDBRANCH  32  33
ENDBRANCH  31  32
ENDBRANCH   6  31
BRANCH   4  44
HETATM   44  O   UNK N   1      27.752  43.301  50.807  0.00  0.00    -0.390 OA
HETATM   45  H   UNK N   1      28.189  44.105  50.425  0.00  0.00     0.210 HD
ENDBRANCH   4  44
BRANCH   5  46
HETATM   46  O   UNK N   1      25.689  44.519  52.329  0.00  0.00    -0.390 OA
HETATM   47  H   UNK N   1      26.340  45.191  51.998  0.00  0.00     0.210 HD
ENDBRANCH   5  46
TORSDOF 14
ENDMDL
MODEL 7
REMARK VINA RESULT:      -5.2     19.816     22.527
REMARK  14 active torsions:
REMARK  status: ('A' for Active; 'I' for Inactive)
REMARK    1  A    between atoms: O_1  and  C_11 
REMARK    2  A    between atoms: O_2  and  C_12 
REMARK    3  A    between atoms: O_3  and  C_13 
REMARK    4  A    between atoms: O_5  and  C_30 
REMARK    5  A    between atoms: O_6  and  C_31 
REMARK    6  A    between atoms: O_7  and  C_32 
REMARK    7  A    between atoms: O_9  and  C_37 
REMARK    8  A    between atoms: O_9  and  C_38 
REMARK    9  A    between atoms: O_10  and  C_36 
REMARK   10  A    between atoms: C_18  and  C_36 
REMARK   11  A    between atoms: C_19  and  C_39 
REMARK   12  A    between atoms: C_29  and  C_34 
REMARK   13  A    between atoms: C_33  and  C_37 
REMARK   14  A    between atoms: C_38  and  C_40 
ROOT
HETATM    1  O   UNK N   1      49.741  54.520  59.771  0.00  0.00    -0.372 OA
HETATM    2  C   UNK N   1      49.270  54.497  58.427  0.00  0.00     0.166 C 
HETATM    3  C   UNK N   1      47.723  54.663  58.421  0.00  0.00     0.179 C 
HETATM    4  C   UNK N   1      47.324  55.980  59.116  0.00  0.00     0.180 C 
HETATM    5  C   UNK N   1      47.970  56.019  60.508  0.00  0.00     0.180 C 
HETATM    6  C   UNK N   1      49.497  55.775  60.389  0.00  0.00     0.177 C 
ENDROOT
BRANCH   2   7
HETATM    7  C   UNK N   1      49.796  53.182  57.748  0.00  0.00     0.085 C 
HETATM    8  C   UNK N   1      50.693  53.568  56.572  0.00  0.00    -0.029 A 
HETATM    9  C   UNK N   1      52.106  53.420  56.614  0.00  0.00     0.055 A 
HETATM   10  C   UNK N   1      50.082  54.092  55.416  0.00  0.00     0.018 A 
HETATM   11  C   UNK N   1      52.874  53.809  55.466  0.00  0.00     0.081 A 
HETATM   12  C   UNK N   1      52.719  52.839  57.846  0.00  0.00     0.199 C 
HETATM   13  C   UNK N   1      52.224  54.297  54.332  0.00  0.00     0.046 A 
HETATM   14  C   UNK N   1      50.839  54.438  54.295  0.00  0.00    -0.032 A 
HETATM   15  O   UNK N   1      53.927  52.864  58.015  0.00  0.00    -0.286 OA
HETATM   16  C   UNK N   1      51.868  52.125  58.828  0.00  0.00     0.055 A 
HETATM   17  C   UNK N   1      52.441  51.287  59.819  0.00  0.00     0.080 A 
HETATM   18  C   UNK N   1      50.464  52.248  58.751  0.00  0.00    -0.030 A 
HETATM   19  C   UNK N   1      51.617  50.560  60.686  0.00  0.00     0.037 A 
HETATM   20  C   UNK N   1      50.234  50.650  60.578  0.00  0.00     0.003 A 
HETATM   21  C   UNK N   1      49.663  51.485  59.624  0.00  0.00     0.009 A 
BRANCH  11  22
HETATM   22  O   UNK N   1      54.222  53.710  55.388  0.00  0.00    -0.360 OA
HETATM   23  H   UNK N   1      54.757  52.933  55.565  0.00  0.00     0.217 HD
ENDBRANCH  11  22
BRANCH  14  24
HETATM   24  C   UNK N   1      50.170  54.947  53.047  0.00  0.00     0.203 C 
BRANCH  24  25
HETATM   25  O   UNK N   1      49.857  53.882  52.194  0.00  0.00    -0.396 OA
HETATM   26  H   UNK N   1      50.250  54.112  51.309  0.00  0.00     0.209 HD
ENDBRANCH  24  25
ENDBRANCH  14  24
BRANCH  17  27
HETATM   27  O   UNK N   1      53.783  51.163  59.924  0.00  0.00    -0.360 OA
HETATM   28  H   UNK N   1      54.258  50.408  59.552  0.00  0.00     0.217 HD
ENDBRANCH  17  27
ENDBRANCH   2   7
BRANCH   3  29
HETATM   29  O   UNK N   1      47.207  54.616  57.114  0.00  0.00    -0.390 OA
HETATM   30  H   UNK N   1      47.963  54.431  56.499  0.00  0.00     0.210 HD
ENDBRANCH   3  29
BRANCH   6  31
HETATM   31  C   UNK N   1      50.154  55.765  61.780  0.00  0.00     0.202 C 
BRANCH  31  32
HETATM   32  O   UNK N   1      49.171  55.456  62.744  0.00  0.00    -0.385 OA
BRANCH  32  33
HETATM   33  C   UNK N   1      49.639  54.493  63.655  0.00  0.00     0.195 C 
BRANCH  33  34
HETATM   34  C   UNK N   1      49.114  53.169  63.190  0.00  0.00    -0.000 C 
HETATM   35  C   UNK N   1      47.813  52.957  62.927  0.00  0.00     0.009 C 
BRANCH  35  36
HETATM   36  C   UNK N   1      47.303  51.634  62.475  0.00  0.00    -0.036 A 
HETATM   37  C   UNK N   1      47.649  50.484  63.205  0.00  0.00     0.014 A 
HETATM   38  C   UNK N   1      47.213  49.223  62.785  0.00  0.00     0.037 A 
HETATM   39  C   UNK N   1      46.406  49.097  61.650  0.00  0.00     0.065 A 
HETATM   40  C   UNK N   1      46.034  50.241  60.932  0.00  0.00     0.037 A 
HETATM   41  C   UNK N   1      46.484  51.499  61.334  0.00  0.00     0.014 A 
BRANCH  39  42
HETATM   42  O   UNK N   1      45.992  47.876  61.256  0.00  0.00    -0.361 OA
HETATM   43  H   UNK N   1      46.257  47.499  60.405  0.00  0.00     0.217 HD
ENDBRANCH  39  42
ENDBRANCH  35  36
ENDBRANCH  33  34
ENDBRANCH  32  33
ENDBRANCH  31  32
ENDBRANCH   6  31
BRANCH   4  44
HETATM   44  O   UNK N   1      45.929  56.065  59.259  0.00  0.00    -0.390 OA
HETATM   45  H   UNK N   1      45.526  55.604  58.478  0.00  0.00     0.210 HD
ENDBRANCH   4  44
BRANCH   5  46
HETATM   46  O   UNK N   1      47.683  57.232  61.160  0.00  0.00    -0.390 OA
HETATM   47  H   UNK N   1      47.634  57.941  60.467  0.00  0.00     0.210 HD
ENDBRANCH   5  46
TORSDOF 14
ENDMDL
MODEL 8
REMARK VINA RESULT:      -5.1      2.253      6.386
REMARK  14 active torsions:
REMARK  status: ('A' for Active; 'I' for Inactive)
REMARK    1  A    between atoms: O_1  and  C_11 
REMARK    2  A    between atoms: O_2  and  C_12 
REMARK    3  A    between atoms: O_3  and  C_13 
REMARK    4  A    between atoms: O_5  and  C_30 
REMARK    5  A    between atoms: O_6  and  C_31 
REMARK    6  A    between atoms: O_7  and  C_32 
REMARK    7  A    between atoms: O_9  and  C_37 
REMARK    8  A    between atoms: O_9  and  C_38 
REMARK    9  A    between atoms: O_10  and  C_36 
REMARK   10  A    between atoms: C_18  and  C_36 
REMARK   11  A    between atoms: C_19  and  C_39 
REMARK   12  A    between atoms: C_29  and  C_34 
REMARK   13  A    between atoms: C_33  and  C_37 
REMARK   14  A    between atoms: C_38  and  C_40 
ROOT
HETATM    1  O   UNK N   1      28.824  46.179  59.617  0.00  0.00    -0.372 OA
HETATM    2  C   UNK N   1      30.112  45.777  59.161  0.00  0.00     0.166 C 
HETATM    3  C   UNK N   1      30.367  46.372  57.746  0.00  0.00     0.179 C 
HETATM    4  C   UNK N   1      30.257  47.910  57.785  0.00  0.00     0.180 C 
HETATM    5  C   UNK N   1      28.910  48.293  58.412  0.00  0.00     0.180 C 
HETATM    6  C   UNK N   1      28.744  47.587  59.783  0.00  0.00     0.177 C 
ENDROOT
BRANCH   2   7
HETATM    7  C   UNK N   1      30.193  44.211  59.243  0.00  0.00     0.085 C 
HETATM    8  C   UNK N   1      29.739  43.629  57.905  0.00  0.00    -0.029 A 
HETATM    9  C   UNK N   1      30.649  43.046  56.982  0.00  0.00     0.055 A 
HETATM   10  C   UNK N   1      28.367  43.685  57.589  0.00  0.00     0.018 A 
HETATM   11  C   UNK N   1      30.138  42.526  55.746  0.00  0.00     0.081 A 
HETATM   12  C   UNK N   1      32.092  42.982  57.359  0.00  0.00     0.199 C 
HETATM   13  C   UNK N   1      28.768  42.577  55.487  0.00  0.00     0.046 A 
HETATM   14  C   UNK N   1      27.880  43.147  56.396  0.00  0.00    -0.032 A 
HETATM   15  O   UNK N   1      32.940  42.670  56.538  0.00  0.00    -0.286 OA
HETATM   16  C   UNK N   1      32.497  43.190  58.770  0.00  0.00     0.055 A 
HETATM   17  C   UNK N   1      33.789  42.814  59.223  0.00  0.00     0.080 A 
HETATM   18  C   UNK N   1      31.572  43.732  59.687  0.00  0.00    -0.030 A 
HETATM   19  C   UNK N   1      34.124  42.945  60.576  0.00  0.00     0.037 A 
HETATM   20  C   UNK N   1      33.193  43.438  61.483  0.00  0.00     0.003 A 
HETATM   21  C   UNK N   1      31.932  43.829  61.045  0.00  0.00     0.009 A 
BRANCH  11  22
HETATM   22  O   UNK N   1      30.906  41.945  54.794  0.00  0.00    -0.360 OA
HETATM   23  H   UNK N   1      31.690  42.312  54.379  0.00  0.00     0.217 HD
ENDBRANCH  11  22
BRANCH  14  24
HETATM   24  C   UNK N   1      26.406  43.166  56.094  0.00  0.00     0.203 C 
BRANCH  24  25
HETATM   25  O   UNK N   1      26.110  44.178  55.173  0.00  0.00    -0.396 OA
HETATM   26  H   UNK N   1      26.517  43.894  54.311  0.00  0.00     0.209 HD
ENDBRANCH  24  25
ENDBRANCH  14  24
BRANCH  17  27
HETATM   27  O   UNK N   1      34.700  42.306  58.363  0.00  0.00    -0.360 OA
HETATM   28  H   UNK N   1      34.547  41.479  57.886  0.00  0.00     0.217 HD
ENDBRANCH  17  27
ENDBRANCH   2   7
BRANCH   3  29
HETATM   29  O   UNK N   1      31.618  45.976  57.240  0.00  0.00    -0.390 OA
HETATM   30  H   UNK N   1      32.078  45.456  57.949  0.00  0.00     0.210 HD
ENDBRANCH   3  29
BRANCH   6  31
HETATM   31  C   UNK N   1      27.378  47.924  60.404  0.00  0.00     0.202 C 
BRANCH  31  32
HETATM   32  O   UNK N   1      26.602  46.747  60.459  0.00  0.00    -0.385 OA
BRANCH  32  33
HETATM   33  C   UNK N   1      26.382  46.345  61.789  0.00  0.00     0.195 C 
BRANCH  33  34
HETATM   34  C   UNK N   1      27.203  45.112  62.008  0.00  0.00    -0.000 C 
HETATM   35  C   UNK N   1      27.062  44.005  61.257  0.00  0.00     0.009 C 
BRANCH  35  36
HETATM   36  C   UNK N   1      27.877  42.782  61.491  0.00  0.00    -0.036 A 
HETATM   37  C   UNK N   1      28.711  42.723  62.621  0.00  0.00     0.014 A 
HETATM   38  C   UNK N   1      29.514  41.601  62.848  0.00  0.00     0.037 A 
HETATM   39  C   UNK N   1      29.476  40.515  61.968  0.00  0.00     0.065 A 
HETATM   40  C   UNK N   1      28.629  40.554  60.854  0.00  0.00     0.037 A 
HETATM   41  C   UNK N   1      27.840  41.680  60.610  0.00  0.00     0.014 A 
BRANCH  39  42
HETATM   42  O   UNK N   1      30.255  39.439  62.199  0.00  0.00    -0.361 OA
HETATM   43  H   UNK N   1      29.884  38.549  62.273  0.00  0.00     0.217 HD
ENDBRANCH  39  42
ENDBRANCH  35  36
ENDBRANCH  33  34
ENDBRANCH  32  33
ENDBRANCH  31  32
ENDBRANCH   6  31
BRANCH   4  44
HETATM   44  O   UNK N   1      30.326  48.447  56.489  0.00  0.00    -0.390 OA
HETATM   45  H   UNK N   1      29.830  47.830  55.889  0.00  0.00     0.210 HD
ENDBRANCH   4  44
BRANCH   5  46
HETATM   46  O   UNK N   1      28.788  49.690  58.524  0.00  0.00    -0.390 OA
HETATM   47  H   UNK N   1      29.116  49.948  59.424  0.00  0.00     0.210 HD
ENDBRANCH   5  46
TORSDOF 14
ENDMDL
MODEL 9
REMARK VINA RESULT:      -5.1      5.020      8.235
REMARK  14 active torsions:
REMARK  status: ('A' for Active; 'I' for Inactive)
REMARK    1  A    between atoms: O_1  and  C_11 
REMARK    2  A    between atoms: O_2  and  C_12 
REMARK    3  A    between atoms: O_3  and  C_13 
REMARK    4  A    between atoms: O_5  and  C_30 
REMARK    5  A    between atoms: O_6  and  C_31 
REMARK    6  A    between atoms: O_7  and  C_32 
REMARK    7  A    between atoms: O_9  and  C_37 
REMARK    8  A    between atoms: O_9  and  C_38 
REMARK    9  A    between atoms: O_10  and  C_36 
REMARK   10  A    between atoms: C_18  and  C_36 
REMARK   11  A    between atoms: C_19  and  C_39 
REMARK   12  A    between atoms: C_29  and  C_34 
REMARK   13  A    between atoms: C_33  and  C_37 
REMARK   14  A    between atoms: C_38  and  C_40 
ROOT
HETATM    1  O   UNK N   1      33.110  44.842  63.568  0.00  0.00    -0.372 OA
HETATM    2  C   UNK N   1      33.626  44.358  64.804  0.00  0.00     0.166 C 
HETATM    3  C   UNK N   1      32.446  44.024  65.761  0.00  0.00     0.179 C 
HETATM    4  C   UNK N   1      31.512  42.981  65.114  0.00  0.00     0.180 C 
HETATM    5  C   UNK N   1      31.094  43.486  63.726  0.00  0.00     0.180 C 
HETATM    6  C   UNK N   1      32.351  43.849  62.893  0.00  0.00     0.177 C 
ENDROOT
BRANCH   2   7
HETATM    7  C   UNK N   1      34.645  45.418  65.356  0.00  0.00     0.085 C 
HETATM    8  C   UNK N   1      36.057  44.989  64.959  0.00  0.00    -0.029 A 
HETATM    9  C   UNK N   1      36.799  45.659  63.950  0.00  0.00     0.055 A 
HETATM   10  C   UNK N   1      36.625  43.885  65.624  0.00  0.00     0.018 A 
HETATM   11  C   UNK N   1      38.118  45.189  63.638  0.00  0.00     0.081 A 
HETATM   12  C   UNK N   1      36.176  46.841  63.282  0.00  0.00     0.199 C 
HETATM   13  C   UNK N   1      38.653  44.109  64.341  0.00  0.00     0.046 A 
HETATM   14  C   UNK N   1      37.921  43.457  65.331  0.00  0.00    -0.032 A 
HETATM   15  O   UNK N   1      36.680  47.335  62.287  0.00  0.00    -0.286 OA
HETATM   16  C   UNK N   1      34.992  47.494  63.891  0.00  0.00     0.055 A 
HETATM   17  C   UNK N   1      34.582  48.790  63.483  0.00  0.00     0.080 A 
HETATM   18  C   UNK N   1      34.287  46.836  64.920  0.00  0.00    -0.030 A 
HETATM   19  C   UNK N   1      33.510  49.421  64.125  0.00  0.00     0.037 A 
HETATM   20  C   UNK N   1      32.847  48.787  65.169  0.00  0.00     0.003 A 
HETATM   21  C   UNK N   1      33.228  47.508  65.562  0.00  0.00     0.009 A 
BRANCH  11  22
HETATM   22  O   UNK N   1      38.920  45.749  62.700  0.00  0.00    -0.360 OA
HETATM   23  H   UNK N   1      38.930  46.667  62.421  0.00  0.00     0.217 HD
ENDBRANCH  11  22
BRANCH  14  24
HETATM   24  C   UNK N   1      38.538  42.309  66.085  0.00  0.00     0.203 C 
BRANCH  24  25
HETATM   25  O   UNK N   1      39.340  41.541  65.233  0.00  0.00    -0.396 OA
HETATM   26  H   UNK N   1      39.340  40.620  65.610  0.00  0.00     0.209 HD
ENDBRANCH  24  25
ENDBRANCH  14  24
BRANCH  17  27
HETATM   27  O   UNK N   1      35.230  49.437  62.488  0.00  0.00    -0.360 OA
HETATM   28  H   UNK N   1      36.105  49.160  62.183  0.00  0.00     0.217 HD
ENDBRANCH  17  27
ENDBRANCH   2   7
BRANCH   3  29
HETATM   29  O   UNK N   1      32.909  43.570  67.008  0.00  0.00    -0.390 OA
HETATM   30  H   UNK N   1      33.626  42.906  66.839  0.00  0.00     0.210 HD
ENDBRANCH   3  29
BRANCH   6  31
HETATM   31  C   UNK N   1      31.947  44.401  61.516  0.00  0.00     0.202 C 
BRANCH  31  32
HETATM   32  O   UNK N   1      31.831  43.324  60.612  0.00  0.00    -0.385 OA
BRANCH  32  33
HETATM   33  C   UNK N   1      30.910  43.617  59.590  0.00  0.00     0.195 C 
BRANCH  33  34
HETATM   34  C   UNK N   1      30.798  45.109  59.525  0.00  0.00    -0.000 C 
HETATM   35  C   UNK N   1      29.908  45.736  58.736  0.00  0.00     0.009 C 
BRANCH  35  36
HETATM   36  C   UNK N   1      29.814  47.220  58.673  0.00  0.00    -0.036 A 
HETATM   37  C   UNK N   1      29.398  47.926  59.815  0.00  0.00     0.014 A 
HETATM   38  C   UNK N   1      29.267  49.318  59.776  0.00  0.00     0.037 A 
HETATM   39  C   UNK N   1      29.573  50.024  58.608  0.00  0.00     0.065 A 
HETATM   40  C   UNK N   1      30.013  49.330  57.473  0.00  0.00     0.037 A 
HETATM   41  C   UNK N   1      30.126  47.939  57.500  0.00  0.00     0.014 A 
BRANCH  39  42
HETATM   42  O   UNK N   1      29.442  51.365  58.584  0.00  0.00    -0.361 OA
HETATM   43  H   UNK N   1      28.608  51.799  58.812  0.00  0.00     0.217 HD
ENDBRANCH  39  42
ENDBRANCH  35  36
ENDBRANCH  33  34
ENDBRANCH  32  33
ENDBRANCH  31  32
ENDBRANCH   6  31
BRANCH   4  44
HETATM   44  O   UNK N   1      30.361  42.790  65.896  0.00  0.00    -0.390 OA
HETATM   45  H   UNK N   1      30.623  42.230  66.671  0.00  0.00     0.210 HD
ENDBRANCH   4  44
BRANCH   5  46
HETATM   46  O   UNK N   1      30.286  42.539  63.070  0.00  0.00    -0.390 OA
HETATM   47  H   UNK N   1      30.257  41.726  63.638  0.00  0.00     0.210 HD
ENDBRANCH   5  46
TORSDOF 14
ENDMDL
