MODEL 1
REMARK VINA RESULT:      -6.5      0.000      0.000
REMARK  9 active torsions:
REMARK  status: ('A' for Active; 'I' for Inactive)
REMARK    1  A    between atoms: O_1  and  C_10 
REMARK    2  A    between atoms: O_2  and  C_11 
REMARK    3  A    between atoms: O_3  and  C_12 
REMARK    4  A    between atoms: O_5  and  C_23 
REMARK    5  A    between atoms: O_6  and  C_24 
REMARK    6  A    between atoms: O_7  and  C_25 
REMARK    7  A    between atoms: O_9  and  C_29 
REMARK    8  A    between atoms: C_22  and  C_27 
REMARK    9  A    between atoms: C_26  and  C_29 
ROOT
HETATM    1  O   UNK N   1      51.619  33.851  49.224  0.00  0.00    -0.286 OA
HETATM    2  C   UNK N   1      50.936  32.414  51.671  0.00  0.00     0.113 A 
HETATM    3  C   UNK N   1      50.391  31.741  52.784  0.00  0.00     0.099 A 
HETATM    4  C   UNK N   1      51.164  32.683  46.591  0.00  0.00     0.081 A 
HETATM    5  C   UNK N   1      49.344  31.504  47.730  0.00  0.00    -0.029 A 
HETATM    6  C   UNK N   1      49.193  31.421  50.260  0.00  0.00    -0.030 A 
HETATM    7  C   UNK N   1      50.329  32.255  50.379  0.00  0.00     0.058 A 
HETATM    8  C   UNK N   1      50.452  32.383  47.798  0.00  0.00     0.055 A 
HETATM    9  C   UNK N   1      49.709  31.185  45.345  0.00  0.00    -0.059 A 
HETATM   10  C   UNK N   1      50.766  32.091  45.387  0.00  0.00     0.044 A 
HETATM   11  C   UNK N   1      49.268  30.935  52.638  0.00  0.00     0.040 A 
HETATM   12  C   UNK N   1      49.010  30.888  46.512  0.00  0.00     0.015 A 
HETATM   13  C   UNK N   1      48.671  30.780  51.396  0.00  0.00     0.012 A 
HETATM   14  C   UNK N   1      48.461  31.245  48.940  0.00  0.00     0.085 C 
HETATM   15  C   UNK N   1      50.842  32.918  49.139  0.00  0.00     0.199 C 
HETATM   16  C   UNK N   1      49.322  30.551  44.041  0.00  0.00     0.048 C 
ENDROOT
BRANCH  14  17
HETATM   17  C   UNK N   1      47.197  32.178  48.966  0.00  0.00     0.166 C 
HETATM   18  O   UNK N   1      47.373  33.241  48.028  0.00  0.00    -0.372 OA
HETATM   19  C   UNK N   1      46.387  34.269  48.143  0.00  0.00     0.176 C 
HETATM   20  C   UNK N   1      44.946  33.720  47.984  0.00  0.00     0.180 C 
HETATM   21  C   UNK N   1      44.715  32.546  48.957  0.00  0.00     0.180 C 
HETATM   22  C   UNK N   1      45.817  31.484  48.759  0.00  0.00     0.179 C 
BRANCH  19  23
HETATM   23  C   UNK N   1      46.588  35.143  49.399  0.00  0.00     0.198 C 
BRANCH  23  24
HETATM   24  O   UNK N   1      47.427  36.229  49.113  0.00  0.00    -0.398 OA
HETATM   25  H   UNK N   1      46.874  36.900  48.635  0.00  0.00     0.209 HD
ENDBRANCH  23  24
ENDBRANCH  19  23
BRANCH  20  26
HETATM   26  O   UNK N   1      44.768  33.306  46.651  0.00  0.00    -0.390 OA
HETATM   27  H   UNK N   1      44.003  32.672  46.639  0.00  0.00     0.210 HD
ENDBRANCH  20  26
BRANCH  21  28
HETATM   28  O   UNK N   1      43.440  31.995  48.754  0.00  0.00    -0.390 OA
HETATM   29  H   UNK N   1      43.547  31.256  48.100  0.00  0.00     0.210 HD
ENDBRANCH  21  28
BRANCH  22  30
HETATM   30  O   UNK N   1      45.660  30.867  47.503  0.00  0.00    -0.390 OA
HETATM   31  H   UNK N   1      46.129  31.403  46.815  0.00  0.00     0.210 HD
ENDBRANCH  22  30
ENDBRANCH  14  17
BRANCH   4  32
HETATM   32  O   UNK N   1      52.240  33.503  46.534  0.00  0.00    -0.360 OA
HETATM   33  H   UNK N   1      52.661  33.841  45.739  0.00  0.00     0.217 HD
ENDBRANCH   4  32
BRANCH   2  34
HETATM   34  O   UNK N   1      52.043  33.165  51.883  0.00  0.00    -0.357 OA
HETATM   35  H   UNK N   1      52.145  33.863  52.535  0.00  0.00     0.218 HD
ENDBRANCH   2  34
BRANCH   3  36
HETATM   36  O   UNK N   1      50.949  31.856  54.009  0.00  0.00    -0.358 OA
HETATM   37  H   UNK N   1      51.043  32.706  54.464  0.00  0.00     0.218 HD
ENDBRANCH   3  36
TORSDOF 9
ENDMDL
MODEL 2
REMARK VINA RESULT:      -6.1      1.690      2.687
REMARK  9 active torsions:
REMARK  status: ('A' for Active; 'I' for Inactive)
REMARK    1  A    between atoms: O_1  and  C_10 
REMARK    2  A    between atoms: O_2  and  C_11 
REMARK    3  A    between atoms: O_3  and  C_12 
REMARK    4  A    between atoms: O_5  and  C_23 
REMARK    5  A    between atoms: O_6  and  C_24 
REMARK    6  A    between atoms: O_7  and  C_25 
REMARK    7  A    between atoms: O_9  and  C_29 
REMARK    8  A    between atoms: C_22  and  C_27 
REMARK    9  A    between atoms: C_26  and  C_29 
ROOT
HETATM    1  O   UNK N   1      50.585  34.039  52.758  0.00  0.00    -0.286 OA
HETATM    2  C   UNK N   1      48.750  32.490  54.418  0.00  0.00     0.113 A 
HETATM    3  C   UNK N   1      47.720  31.762  55.047  0.00  0.00     0.099 A 
HETATM    4  C   UNK N   1      51.655  32.974  50.262  0.00  0.00     0.081 A 
HETATM    5  C   UNK N   1      49.553  31.717  50.216  0.00  0.00    -0.029 A 
HETATM    6  C   UNK N   1      48.073  31.527  52.266  0.00  0.00    -0.030 A 
HETATM    7  C   UNK N   1      48.937  32.375  52.998  0.00  0.00     0.058 A 
HETATM    8  C   UNK N   1      50.418  32.612  50.891  0.00  0.00     0.055 A 
HETATM    9  C   UNK N   1      51.150  31.505  48.392  0.00  0.00    -0.059 A 
HETATM   10  C   UNK N   1      51.985  32.426  49.019  0.00  0.00     0.044 A 
HETATM   11  C   UNK N   1      46.880  30.943  54.300  0.00  0.00     0.040 A 
HETATM   12  C   UNK N   1      49.946  31.148  48.994  0.00  0.00     0.015 A 
HETATM   13  C   UNK N   1      47.048  30.831  52.928  0.00  0.00     0.012 A 
HETATM   14  C   UNK N   1      48.169  31.393  50.756  0.00  0.00     0.085 C 
HETATM   15  C   UNK N   1      50.009  33.098  52.245  0.00  0.00     0.199 C 
HETATM   16  C   UNK N   1      51.545  30.919  47.068  0.00  0.00     0.048 C 
ENDROOT
BRANCH  14  17
HETATM   17  C   UNK N   1      47.055  32.302  50.124  0.00  0.00     0.166 C 
HETATM   18  O   UNK N   1      47.609  33.043  49.034  0.00  0.00    -0.372 OA
HETATM   19  C   UNK N   1      46.740  34.067  48.544  0.00  0.00     0.176 C 
HETATM   20  C   UNK N   1      45.366  33.507  48.097  0.00  0.00     0.180 C 
HETATM   21  C   UNK N   1      44.739  32.671  49.231  0.00  0.00     0.180 C 
HETATM   22  C   UNK N   1      45.738  31.589  49.691  0.00  0.00     0.179 C 
BRANCH  19  23
HETATM   23  C   UNK N   1      46.641  35.269  49.508  0.00  0.00     0.198 C 
BRANCH  23  24
HETATM   24  O   UNK N   1      47.452  36.323  49.064  0.00  0.00    -0.398 OA
HETATM   25  H   UNK N   1      47.542  36.955  49.824  0.00  0.00     0.209 HD
ENDBRANCH  23  24
ENDBRANCH  19  23
BRANCH  20  26
HETATM   26  O   UNK N   1      45.555  32.722  46.944  0.00  0.00    -0.390 OA
HETATM   27  H   UNK N   1      46.520  32.769  46.711  0.00  0.00     0.210 HD
ENDBRANCH  20  26
BRANCH  21  28
HETATM   28  O   UNK N   1      43.535  32.094  48.796  0.00  0.00    -0.390 OA
HETATM   29  H   UNK N   1      43.761  31.495  48.037  0.00  0.00     0.210 HD
ENDBRANCH  21  28
BRANCH  22  30
HETATM   30  O   UNK N   1      45.905  30.633  48.671  0.00  0.00    -0.390 OA
HETATM   31  H   UNK N   1      46.857  30.603  48.403  0.00  0.00     0.210 HD
ENDBRANCH  22  30
ENDBRANCH  14  17
BRANCH   4  32
HETATM   32  O   UNK N   1      52.563  33.814  50.813  0.00  0.00    -0.360 OA
HETATM   33  H   UNK N   1      53.420  33.574  51.174  0.00  0.00     0.217 HD
ENDBRANCH   4  32
BRANCH   2  34
HETATM   34  O   UNK N   1      49.543  33.251  55.211  0.00  0.00    -0.357 OA
HETATM   35  H   UNK N   1      50.110  33.973  54.929  0.00  0.00     0.218 HD
ENDBRANCH   2  34
BRANCH   3  36
HETATM   36  O   UNK N   1      47.529  31.836  56.382  0.00  0.00    -0.358 OA
HETATM   37  H   UNK N   1      48.219  31.607  57.022  0.00  0.00     0.218 HD
ENDBRANCH   3  36
TORSDOF 9
ENDMDL
MODEL 3
REMARK VINA RESULT:      -5.8      2.194      6.366
REMARK  9 active torsions:
REMARK  status: ('A' for Active; 'I' for Inactive)
REMARK    1  A    between atoms: O_1  and  C_10 
REMARK    2  A    between atoms: O_2  and  C_11 
REMARK    3  A    between atoms: O_3  and  C_12 
REMARK    4  A    between atoms: O_5  and  C_23 
REMARK    5  A    between atoms: O_6  and  C_24 
REMARK    6  A    between atoms: O_7  and  C_25 
REMARK    7  A    between atoms: O_9  and  C_29 
REMARK    8  A    between atoms: C_22  and  C_27 
REMARK    9  A    between atoms: C_26  and  C_29 
ROOT
HETATM    1  O   UNK N   1      46.875  35.467  51.462  0.00  0.00    -0.286 OA
HETATM    2  C   UNK N   1      45.263  33.636  49.858  0.00  0.00     0.113 A 
HETATM    3  C   UNK N   1      44.681  32.690  48.991  0.00  0.00     0.099 A 
HETATM    4  C   UNK N   1      48.790  34.488  53.432  0.00  0.00     0.081 A 
HETATM    5  C   UNK N   1      48.923  32.552  51.937  0.00  0.00    -0.029 A 
HETATM    6  C   UNK N   1      47.204  32.159  50.115  0.00  0.00    -0.030 A 
HETATM    7  C   UNK N   1      46.551  33.373  50.437  0.00  0.00     0.058 A 
HETATM    8  C   UNK N   1      48.336  33.800  52.259  0.00  0.00     0.055 A 
HETATM    9  C   UNK N   1      50.308  32.657  53.936  0.00  0.00    -0.059 A 
HETATM   10  C   UNK N   1      49.779  33.910  54.234  0.00  0.00     0.044 A 
HETATM   11  C   UNK N   1      45.351  31.509  48.687  0.00  0.00     0.040 A 
HETATM   12  C   UNK N   1      49.874  31.981  52.798  0.00  0.00     0.015 A 
HETATM   13  C   UNK N   1      46.597  31.248  49.235  0.00  0.00     0.012 A 
HETATM   14  C   UNK N   1      48.590  31.830  50.641  0.00  0.00     0.085 C 
HETATM   15  C   UNK N   1      47.242  34.310  51.376  0.00  0.00     0.199 C 
HETATM   16  C   UNK N   1      51.351  32.055  54.831  0.00  0.00     0.048 C 
ENDROOT
BRANCH  14  17
HETATM   17  C   UNK N   1      49.623  32.147  49.500  0.00  0.00     0.166 C 
HETATM   18  O   UNK N   1      50.950  32.050  50.020  0.00  0.00    -0.372 OA
HETATM   19  C   UNK N   1      51.948  32.546  49.126  0.00  0.00     0.176 C 
HETATM   20  C   UNK N   1      51.915  31.828  47.752  0.00  0.00     0.180 C 
HETATM   21  C   UNK N   1      50.491  31.879  47.162  0.00  0.00     0.180 C 
HETATM   22  C   UNK N   1      49.483  31.318  48.187  0.00  0.00     0.179 C 
BRANCH  19  23
HETATM   23  C   UNK N   1      51.939  34.086  49.025  0.00  0.00     0.198 C 
BRANCH  23  24
HETATM   24  O   UNK N   1      53.018  34.534  48.249  0.00  0.00    -0.398 OA
HETATM   25  H   UNK N   1      53.083  35.515  48.389  0.00  0.00     0.209 HD
ENDBRANCH  23  24
ENDBRANCH  19  23
BRANCH  20  26
HETATM   26  O   UNK N   1      52.334  30.496  47.932  0.00  0.00    -0.390 OA
HETATM   27  H   UNK N   1      53.315  30.515  48.089  0.00  0.00     0.210 HD
ENDBRANCH  20  26
BRANCH  21  28
HETATM   28  O   UNK N   1      50.442  31.156  45.959  0.00  0.00    -0.390 OA
HETATM   29  H   UNK N   1      51.098  31.575  45.344  0.00  0.00     0.210 HD
ENDBRANCH  21  28
BRANCH  22  30
HETATM   30  O   UNK N   1      49.691  29.936  48.349  0.00  0.00    -0.390 OA
HETATM   31  H   UNK N   1      50.572  29.785  48.775  0.00  0.00     0.210 HD
ENDBRANCH  22  30
ENDBRANCH  14  17
BRANCH   4  32
HETATM   32  O   UNK N   1      48.300  35.682  53.842  0.00  0.00    -0.360 OA
HETATM   33  H   UNK N   1      47.995  36.400  53.281  0.00  0.00     0.217 HD
ENDBRANCH   4  32
BRANCH   2  34
HETATM   34  O   UNK N   1      44.545  34.754  50.126  0.00  0.00    -0.357 OA
HETATM   35  H   UNK N   1      44.877  35.570  50.507  0.00  0.00     0.218 HD
ENDBRANCH   2  34
BRANCH   3  36
HETATM   36  O   UNK N   1      43.463  32.901  48.444  0.00  0.00    -0.358 OA
HETATM   37  H   UNK N   1      42.670  33.053  48.977  0.00  0.00     0.218 HD
ENDBRANCH   3  36
TORSDOF 9
ENDMDL
MODEL 4
REMARK VINA RESULT:      -5.7     19.851     22.833
REMARK  9 active torsions:
REMARK  status: ('A' for Active; 'I' for Inactive)
REMARK    1  A    between atoms: O_1  and  C_10 
REMARK    2  A    between atoms: O_2  and  C_11 
REMARK    3  A    between atoms: O_3  and  C_12 
REMARK    4  A    between atoms: O_5  and  C_23 
REMARK    5  A    between atoms: O_6  and  C_24 
REMARK    6  A    between atoms: O_7  and  C_25 
REMARK    7  A    between atoms: O_9  and  C_29 
REMARK    8  A    between atoms: C_22  and  C_27 
REMARK    9  A    between atoms: C_26  and  C_29 
ROOT
HETATM    1  O   UNK N   1      31.219  41.955  53.561  0.00  0.00    -0.286 OA
HETATM    2  C   UNK N   1      28.717  41.730  52.074  0.00  0.00     0.113 A 
HETATM    3  C   UNK N   1      27.472  41.438  51.483  0.00  0.00     0.099 A 
HETATM    4  C   UNK N   1      31.249  42.531  56.420  0.00  0.00     0.081 A 
HETATM    5  C   UNK N   1      29.079  41.397  56.393  0.00  0.00    -0.029 A 
HETATM    6  C   UNK N   1      27.844  40.940  54.226  0.00  0.00    -0.030 A 
HETATM    7  C   UNK N   1      28.915  41.479  53.475  0.00  0.00     0.058 A 
HETATM    8  C   UNK N   1      30.197  41.896  55.682  0.00  0.00     0.055 A 
HETATM    9  C   UNK N   1      30.010  42.215  58.488  0.00  0.00    -0.059 A 
HETATM   10  C   UNK N   1      31.141  42.661  57.808  0.00  0.00     0.044 A 
HETATM   11  C   UNK N   1      26.440  40.901  52.245  0.00  0.00     0.040 A 
HETATM   12  C   UNK N   1      28.983  41.596  57.781  0.00  0.00     0.015 A 
HETATM   13  C   UNK N   1      26.623  40.648  53.597  0.00  0.00     0.012 A 
HETATM   14  C   UNK N   1      27.990  40.595  55.698  0.00  0.00     0.085 C 
HETATM   15  C   UNK N   1      30.196  41.768  54.192  0.00  0.00     0.199 C 
HETATM   16  C   UNK N   1      29.916  42.391  59.975  0.00  0.00     0.048 C 
ENDROOT
BRANCH  14  17
HETATM   17  C   UNK N   1      28.232  39.046  55.805  0.00  0.00     0.166 C 
HETATM   18  O   UNK N   1      29.593  38.802  56.166  0.00  0.00    -0.372 OA
HETATM   19  C   UNK N   1      29.971  37.428  56.060  0.00  0.00     0.176 C 
HETATM   20  C   UNK N   1      29.071  36.503  56.920  0.00  0.00     0.180 C 
HETATM   21  C   UNK N   1      27.585  36.752  56.588  0.00  0.00     0.180 C 
HETATM   22  C   UNK N   1      27.264  38.254  56.736  0.00  0.00     0.179 C 
BRANCH  19  23
HETATM   23  C   UNK N   1      30.120  36.967  54.594  0.00  0.00     0.198 C 
BRANCH  23  24
HETATM   24  O   UNK N   1      31.465  36.711  54.295  0.00  0.00    -0.398 OA
HETATM   25  H   UNK N   1      31.910  37.594  54.201  0.00  0.00     0.209 HD
ENDBRANCH  23  24
ENDBRANCH  19  23
BRANCH  20  26
HETATM   26  O   UNK N   1      29.329  36.763  58.278  0.00  0.00    -0.390 OA
HETATM   27  H   UNK N   1      29.023  35.970  58.793  0.00  0.00     0.210 HD
ENDBRANCH  20  26
BRANCH  21  28
HETATM   28  O   UNK N   1      26.767  35.977  57.425  0.00  0.00    -0.390 OA
HETATM   29  H   UNK N   1      27.249  35.124  57.589  0.00  0.00     0.210 HD
ENDBRANCH  21  28
BRANCH  22  30
HETATM   30  O   UNK N   1      27.334  38.623  58.092  0.00  0.00    -0.390 OA
HETATM   31  H   UNK N   1      27.398  39.608  58.161  0.00  0.00     0.210 HD
ENDBRANCH  22  30
ENDBRANCH  14  17
BRANCH   4  32
HETATM   32  O   UNK N   1      32.362  43.051  55.849  0.00  0.00    -0.360 OA
HETATM   33  H   UNK N   1      33.034  42.568  55.361  0.00  0.00     0.217 HD
ENDBRANCH   4  32
BRANCH   2  34
HETATM   34  O   UNK N   1      29.669  42.271  51.276  0.00  0.00    -0.357 OA
HETATM   35  H   UNK N   1      29.908  43.199  51.219  0.00  0.00     0.218 HD
ENDBRANCH   2  34
BRANCH   3  36
HETATM   36  O   UNK N   1      27.248  41.678  50.172  0.00  0.00    -0.358 OA
HETATM   37  H   UNK N   1      27.255  42.570  49.796  0.00  0.00     0.218 HD
ENDBRANCH   3  36
TORSDOF 9
ENDMDL
MODEL 5
REMARK VINA RESULT:      -5.1     20.996     24.322
REMARK  9 active torsions:
REMARK  status: ('A' for Active; 'I' for Inactive)
REMARK    1  A    between atoms: O_1  and  C_10 
REMARK    2  A    between atoms: O_2  and  C_11 
REMARK    3  A    between atoms: O_3  and  C_12 
REMARK    4  A    between atoms: O_5  and  C_23 
REMARK    5  A    between atoms: O_6  and  C_24 
REMARK    6  A    between atoms: O_7  and  C_25 
REMARK    7  A    between atoms: O_9  and  C_29 
REMARK    8  A    between atoms: C_22  and  C_27 
REMARK    9  A    between atoms: C_26  and  C_29 
ROOT
HETATM    1  O   UNK N   1      26.658  43.954  58.462  0.00  0.00    -0.286 OA
HETATM    2  C   UNK N   1      28.058  46.508  58.270  0.00  0.00     0.113 A 
HETATM    3  C   UNK N   1      28.911  47.630  58.262  0.00  0.00     0.099 A 
HETATM    4  C   UNK N   1      27.437  41.660  56.837  0.00  0.00     0.081 A 
HETATM    5  C   UNK N   1      29.656  42.694  56.931  0.00  0.00    -0.029 A 
HETATM    6  C   UNK N   1      29.975  45.087  57.704  0.00  0.00    -0.030 A 
HETATM    7  C   UNK N   1      28.594  45.206  57.986  0.00  0.00     0.058 A 
HETATM    8  C   UNK N   1      28.277  42.748  57.247  0.00  0.00     0.055 A 
HETATM    9  C   UNK N   1      29.336  40.578  55.772  0.00  0.00    -0.059 A 
HETATM   10  C   UNK N   1      27.988  40.591  56.124  0.00  0.00     0.044 A 
HETATM   11  C   UNK N   1      30.266  47.481  57.991  0.00  0.00     0.040 A 
HETATM   12  C   UNK N   1      30.160  41.629  56.167  0.00  0.00     0.015 A 
HETATM   13  C   UNK N   1      30.795  46.228  57.722  0.00  0.00     0.012 A 
HETATM   14  C   UNK N   1      30.630  43.741  57.449  0.00  0.00     0.085 C 
HETATM   15  C   UNK N   1      27.766  43.960  57.959  0.00  0.00     0.199 C 
HETATM   16  C   UNK N   1      29.890  39.426  54.986  0.00  0.00     0.048 C 
ENDROOT
BRANCH  14  17
HETATM   17  C   UNK N   1      31.336  43.292  58.778  0.00  0.00     0.166 C 
HETATM   18  O   UNK N   1      30.941  41.956  59.098  0.00  0.00    -0.372 OA
HETATM   19  C   UNK N   1      31.344  41.542  60.405  0.00  0.00     0.176 C 
HETATM   20  C   UNK N   1      32.876  41.654  60.611  0.00  0.00     0.180 C 
HETATM   21  C   UNK N   1      33.358  43.073  60.248  0.00  0.00     0.180 C 
HETATM   22  C   UNK N   1      32.888  43.433  58.823  0.00  0.00     0.179 C 
BRANCH  19  23
HETATM   23  C   UNK N   1      30.514  42.215  61.520  0.00  0.00     0.198 C 
BRANCH  23  24
HETATM   24  O   UNK N   1      31.063  41.933  62.779  0.00  0.00    -0.398 OA
HETATM   25  H   UNK N   1      31.244  42.807  63.214  0.00  0.00     0.209 HD
ENDBRANCH  23  24
ENDBRANCH  19  23
BRANCH  20  26
HETATM   26  O   UNK N   1      33.509  40.691  59.803  0.00  0.00    -0.390 OA
HETATM   27  H   UNK N   1      33.756  39.929  60.391  0.00  0.00     0.210 HD
ENDBRANCH  20  26
BRANCH  21  28
HETATM   28  O   UNK N   1      34.756  43.150  60.352  0.00  0.00    -0.390 OA
HETATM   29  H   UNK N   1      35.051  42.348  60.858  0.00  0.00     0.210 HD
ENDBRANCH  21  28
BRANCH  22  30
HETATM   30  O   UNK N   1      33.570  42.636  57.884  0.00  0.00    -0.390 OA
HETATM   31  H   UNK N   1      34.174  43.208  57.347  0.00  0.00     0.210 HD
ENDBRANCH  22  30
ENDBRANCH  14  17
BRANCH   4  32
HETATM   32  O   UNK N   1      26.105  41.604  57.077  0.00  0.00    -0.360 OA
HETATM   33  H   UNK N   1      25.470  42.313  56.949  0.00  0.00     0.217 HD
ENDBRANCH   4  32
BRANCH   2  34
HETATM   34  O   UNK N   1      26.745  46.731  58.521  0.00  0.00    -0.357 OA
HETATM   35  H   UNK N   1      26.124  47.193  57.954  0.00  0.00     0.218 HD
ENDBRANCH   2  34
BRANCH   3  36
HETATM   36  O   UNK N   1      28.434  48.870  58.508  0.00  0.00    -0.358 OA
HETATM   37  H   UNK N   1      28.972  49.668  58.403  0.00  0.00     0.218 HD
ENDBRANCH   3  36
TORSDOF 9
ENDMDL
MODEL 6
REMARK VINA RESULT:      -5.0     21.132     24.293
REMARK  9 active torsions:
REMARK  status: ('A' for Active; 'I' for Inactive)
REMARK    1  A    between atoms: O_1  and  C_10 
REMARK    2  A    between atoms: O_2  and  C_11 
REMARK    3  A    between atoms: O_3  and  C_12 
REMARK    4  A    between atoms: O_5  and  C_23 
REMARK    5  A    between atoms: O_6  and  C_24 
REMARK    6  A    between atoms: O_7  and  C_25 
REMARK    7  A    between atoms: O_9  and  C_29 
REMARK    8  A    between atoms: C_22  and  C_27 
REMARK    9  A    between atoms: C_26  and  C_29 
ROOT
HETATM    1  O   UNK N   1      32.527  43.044  56.454  0.00  0.00    -0.286 OA
HETATM    2  C   UNK N   1      33.527  43.059  59.196  0.00  0.00     0.113 A 
HETATM    3  C   UNK N   1      33.863  43.234  60.553  0.00  0.00     0.099 A 
HETATM    4  C   UNK N   1      29.780  42.282  55.835  0.00  0.00     0.081 A 
HETATM    5  C   UNK N   1      29.325  43.137  58.084  0.00  0.00    -0.029 A 
HETATM    6  C   UNK N   1      31.194  43.585  59.739  0.00  0.00    -0.030 A 
HETATM    7  C   UNK N   1      32.166  43.236  58.772  0.00  0.00     0.058 A 
HETATM    8  C   UNK N   1      30.263  42.830  57.069  0.00  0.00     0.055 A 
HETATM    9  C   UNK N   1      27.508  42.300  56.699  0.00  0.00    -0.059 A 
HETATM   10  C   UNK N   1      28.412  42.045  55.671  0.00  0.00     0.044 A 
HETATM   11  C   UNK N   1      32.887  43.585  61.480  0.00  0.00     0.040 A 
HETATM   12  C   UNK N   1      27.966  42.834  57.901  0.00  0.00     0.015 A 
HETATM   13  C   UNK N   1      31.572  43.765  61.080  0.00  0.00     0.012 A 
HETATM   14  C   UNK N   1      29.745  43.844  59.364  0.00  0.00     0.085 C 
HETATM   15  C   UNK N   1      31.712  43.060  57.357  0.00  0.00     0.199 C 
HETATM   16  C   UNK N   1      26.048  42.013  56.498  0.00  0.00     0.048 C 
ENDROOT
BRANCH  14  17
HETATM   17  C   UNK N   1      29.544  45.400  59.278  0.00  0.00     0.166 C 
HETATM   18  O   UNK N   1      29.039  45.743  57.986  0.00  0.00    -0.372 OA
HETATM   19  C   UNK N   1      29.044  47.148  57.729  0.00  0.00     0.176 C 
HETATM   20  C   UNK N   1      28.236  47.942  58.788  0.00  0.00     0.180 C 
HETATM   21  C   UNK N   1      28.724  47.582  60.206  0.00  0.00     0.180 C 
HETATM   22  C   UNK N   1      28.678  46.051  60.398  0.00  0.00     0.179 C 
BRANCH  19  23
HETATM   23  C   UNK N   1      30.465  47.700  57.486  0.00  0.00     0.198 C 
BRANCH  23  24
HETATM   24  O   UNK N   1      30.446  48.683  56.486  0.00  0.00    -0.398 OA
HETATM   25  H   UNK N   1      31.166  49.329  56.706  0.00  0.00     0.209 HD
ENDBRANCH  23  24
ENDBRANCH  19  23
BRANCH  20  26
HETATM   26  O   UNK N   1      26.872  47.631  58.635  0.00  0.00    -0.390 OA
HETATM   27  H   UNK N   1      26.355  48.337  59.107  0.00  0.00     0.210 HD
ENDBRANCH  20  26
BRANCH  21  28
HETATM   28  O   UNK N   1      27.936  48.235  61.167  0.00  0.00    -0.390 OA
HETATM   29  H   UNK N   1      26.988  48.098  60.904  0.00  0.00     0.210 HD
ENDBRANCH  21  28
BRANCH  22  30
HETATM   30  O   UNK N   1      27.339  45.616  60.423  0.00  0.00    -0.390 OA
HETATM   31  H   UNK N   1      27.230  44.857  59.797  0.00  0.00     0.210 HD
ENDBRANCH  22  30
ENDBRANCH  14  17
BRANCH   4  32
HETATM   32  O   UNK N   1      30.581  41.945  54.796  0.00  0.00    -0.360 OA
HETATM   33  H   UNK N   1      31.471  42.267  54.630  0.00  0.00     0.217 HD
ENDBRANCH   4  32
BRANCH   2  34
HETATM   34  O   UNK N   1      34.524  42.696  58.353  0.00  0.00    -0.357 OA
HETATM   35  H   UNK N   1      35.381  42.339  58.600  0.00  0.00     0.218 HD
ENDBRANCH   2  34
BRANCH   3  36
HETATM   36  O   UNK N   1      35.131  43.058  60.986  0.00  0.00    -0.358 OA
HETATM   37  H   UNK N   1      35.849  43.668  60.765  0.00  0.00     0.218 HD
ENDBRANCH   3  36
TORSDOF 9
ENDMDL
MODEL 7
REMARK VINA RESULT:      -4.8     20.367     23.259
REMARK  9 active torsions:
REMARK  status: ('A' for Active; 'I' for Inactive)
REMARK    1  A    between atoms: O_1  and  C_10 
REMARK    2  A    between atoms: O_2  and  C_11 
REMARK    3  A    between atoms: O_3  and  C_12 
REMARK    4  A    between atoms: O_5  and  C_23 
REMARK    5  A    between atoms: O_6  and  C_24 
REMARK    6  A    between atoms: O_7  and  C_25 
REMARK    7  A    between atoms: O_9  and  C_29 
REMARK    8  A    between atoms: C_22  and  C_27 
REMARK    9  A    between atoms: C_26  and  C_29 
ROOT
HETATM    1  O   UNK N   1      25.660  38.827  52.972  0.00  0.00    -0.286 OA
HETATM    2  C   UNK N   1      26.695  41.183  51.593  0.00  0.00     0.113 A 
HETATM    3  C   UNK N   1      27.278  42.379  51.128  0.00  0.00     0.099 A 
HETATM    4  C   UNK N   1      27.443  36.806  54.086  0.00  0.00     0.081 A 
HETATM    5  C   UNK N   1      28.992  38.690  54.313  0.00  0.00    -0.029 A 
HETATM    6  C   UNK N   1      28.589  40.892  53.123  0.00  0.00    -0.030 A 
HETATM    7  C   UNK N   1      27.358  40.418  52.611  0.00  0.00     0.058 A 
HETATM    8  C   UNK N   1      27.744  38.190  53.868  0.00  0.00     0.055 A 
HETATM    9  C   UNK N   1      29.632  36.474  55.091  0.00  0.00    -0.059 A 
HETATM   10  C   UNK N   1      28.387  35.982  54.709  0.00  0.00     0.044 A 
HETATM   11  C   UNK N   1      28.484  42.825  51.657  0.00  0.00     0.040 A 
HETATM   12  C   UNK N   1      29.933  37.818  54.885  0.00  0.00     0.015 A 
HETATM   13  C   UNK N   1      29.130  42.097  52.645  0.00  0.00     0.012 A 
HETATM   14  C   UNK N   1      29.326  40.171  54.239  0.00  0.00     0.085 C 
HETATM   15  C   UNK N   1      26.824  39.131  53.158  0.00  0.00     0.199 C 
HETATM   16  C   UNK N   1      30.631  35.558  55.736  0.00  0.00     0.048 C 
ENDROOT
BRANCH  14  17
HETATM   17  C   UNK N   1      29.010  40.921  55.583  0.00  0.00     0.166 C 
HETATM   18  O   UNK N   1      29.389  40.097  56.687  0.00  0.00    -0.372 OA
HETATM   19  C   UNK N   1      28.930  40.589  57.948  0.00  0.00     0.176 C 
HETATM   20  C   UNK N   1      29.424  42.031  58.231  0.00  0.00     0.180 C 
HETATM   21  C   UNK N   1      29.064  42.956  57.050  0.00  0.00     0.180 C 
HETATM   22  C   UNK N   1      29.605  42.354  55.736  0.00  0.00     0.179 C 
BRANCH  19  23
HETATM   23  C   UNK N   1      27.409  40.402  58.137  0.00  0.00     0.198 C 
BRANCH  23  24
HETATM   24  O   UNK N   1      27.034  39.087  57.826  0.00  0.00    -0.398 OA
HETATM   25  H   UNK N   1      27.588  38.490  58.394  0.00  0.00     0.209 HD
ENDBRANCH  23  24
ENDBRANCH  19  23
BRANCH  20  26
HETATM   26  O   UNK N   1      30.816  41.996  58.432  0.00  0.00    -0.390 OA
HETATM   27  H   UNK N   1      31.239  42.425  57.641  0.00  0.00     0.210 HD
ENDBRANCH  20  26
BRANCH  21  28
HETATM   28  O   UNK N   1      29.586  44.241  57.268  0.00  0.00    -0.390 OA
HETATM   29  H   UNK N   1      30.506  44.122  57.621  0.00  0.00     0.210 HD
ENDBRANCH  21  28
BRANCH  22  30
HETATM   30  O   UNK N   1      31.011  42.401  55.735  0.00  0.00    -0.390 OA
HETATM   31  H   UNK N   1      31.354  41.934  54.932  0.00  0.00     0.210 HD
ENDBRANCH  22  30
ENDBRANCH  14  17
BRANCH   4  32
HETATM   32  O   UNK N   1      26.287  36.215  53.700  0.00  0.00    -0.360 OA
HETATM   33  H   UNK N   1      25.676  36.536  53.032  0.00  0.00     0.217 HD
ENDBRANCH   4  32
BRANCH   2  34
HETATM   34  O   UNK N   1      25.529  40.798  51.018  0.00  0.00    -0.357 OA
HETATM   35  H   UNK N   1      25.214  41.043  50.145  0.00  0.00     0.218 HD
ENDBRANCH   2  34
BRANCH   3  36
HETATM   36  O   UNK N   1      26.687  43.112  50.159  0.00  0.00    -0.358 OA
HETATM   37  H   UNK N   1      27.133  43.342  49.332  0.00  0.00     0.218 HD
ENDBRANCH   3  36
TORSDOF 9
ENDMDL
MODEL 8
REMARK VINA RESULT:      -4.7     20.904     23.106
REMARK  9 active torsions:
REMARK  status: ('A' for Active; 'I' for Inactive)
REMARK    1  A    between atoms: O_1  and  C_10 
REMARK    2  A    between atoms: O_2  and  C_11 
REMARK    3  A    between atoms: O_3  and  C_12 
REMARK    4  A    between atoms: O_5  and  C_23 
REMARK    5  A    between atoms: O_6  and  C_24 
REMARK    6  A    between atoms: O_7  and  C_25 
REMARK    7  A    between atoms: O_9  and  C_29 
REMARK    8  A    between atoms: C_22  and  C_27 
REMARK    9  A    between atoms: C_26  and  C_29 
ROOT
HETATM    1  O   UNK N   1      28.181  39.553  58.876  0.00  0.00    -0.286 OA
HETATM    2  C   UNK N   1      28.904  37.354  57.098  0.00  0.00     0.113 A 
HETATM    3  C   UNK N   1      29.186  36.429  56.073  0.00  0.00     0.099 A 
HETATM    4  C   UNK N   1      29.637  42.080  58.848  0.00  0.00     0.081 A 
HETATM    5  C   UNK N   1      30.041  41.507  56.502  0.00  0.00    -0.029 A 
HETATM    6  C   UNK N   1      29.617  39.170  55.612  0.00  0.00    -0.030 A 
HETATM    7  C   UNK N   1      29.121  38.755  56.871  0.00  0.00     0.058 A 
HETATM    8  C   UNK N   1      29.504  41.153  57.763  0.00  0.00     0.055 A 
HETATM    9  C   UNK N   1      30.876  43.603  57.414  0.00  0.00    -0.059 A 
HETATM   10  C   UNK N   1      30.304  43.292  58.645  0.00  0.00     0.044 A 
HETATM   11  C   UNK N   1      29.664  36.867  54.843  0.00  0.00     0.040 A 
HETATM   12  C   UNK N   1      30.751  42.710  56.353  0.00  0.00     0.015 A 
HETATM   13  C   UNK N   1      29.871  38.219  54.611  0.00  0.00     0.012 A 
HETATM   14  C   UNK N   1      29.821  40.637  55.274  0.00  0.00     0.085 C 
HETATM   15  C   UNK N   1      28.862  39.809  57.901  0.00  0.00     0.199 C 
HETATM   16  C   UNK N   1      31.605  44.903  57.236  0.00  0.00     0.048 C 
ENDROOT
BRANCH  14  17
HETATM   17  C   UNK N   1      28.588  41.108  54.423  0.00  0.00     0.166 C 
HETATM   18  O   UNK N   1      28.037  42.293  55.001  0.00  0.00    -0.372 OA
HETATM   19  C   UNK N   1      26.777  42.666  54.440  0.00  0.00     0.176 C 
HETATM   20  C   UNK N   1      26.856  42.871  52.905  0.00  0.00     0.180 C 
HETATM   21  C   UNK N   1      27.474  41.627  52.235  0.00  0.00     0.180 C 
HETATM   22  C   UNK N   1      28.831  41.302  52.895  0.00  0.00     0.179 C 
BRANCH  19  23
HETATM   23  C   UNK N   1      25.631  41.734  54.887  0.00  0.00     0.198 C 
BRANCH  23  24
HETATM   24  O   UNK N   1      24.450  42.043  54.197  0.00  0.00    -0.398 OA
HETATM   25  H   UNK N   1      23.740  41.456  54.569  0.00  0.00     0.209 HD
ENDBRANCH  23  24
ENDBRANCH  19  23
BRANCH  20  26
HETATM   26  O   UNK N   1      27.631  44.016  52.644  0.00  0.00    -0.390 OA
HETATM   27  H   UNK N   1      28.493  43.707  52.259  0.00  0.00     0.210 HD
ENDBRANCH  20  26
BRANCH  21  28
HETATM   28  O   UNK N   1      27.624  41.846  50.856  0.00  0.00    -0.390 OA
HETATM   29  H   UNK N   1      27.511  42.820  50.705  0.00  0.00     0.210 HD
ENDBRANCH  21  28
BRANCH  22  30
HETATM   30  O   UNK N   1      29.764  42.308  52.580  0.00  0.00    -0.390 OA
HETATM   31  H   UNK N   1      29.596  42.633  51.660  0.00  0.00     0.210 HD
ENDBRANCH  22  30
ENDBRANCH  14  17
BRANCH   4  32
HETATM   32  O   UNK N   1      29.170  41.850  60.098  0.00  0.00    -0.360 OA
HETATM   33  H   UNK N   1      29.157  42.473  60.829  0.00  0.00     0.217 HD
ENDBRANCH   4  32
BRANCH   2  34
HETATM   34  O   UNK N   1      28.461  36.854  58.277  0.00  0.00    -0.357 OA
HETATM   35  H   UNK N   1      28.613  37.226  59.150  0.00  0.00     0.218 HD
ENDBRANCH   2  34
BRANCH   3  36
HETATM   36  O   UNK N   1      29.009  35.103  56.261  0.00  0.00    -0.358 OA
HETATM   37  H   UNK N   1      29.509  34.434  55.773  0.00  0.00     0.218 HD
ENDBRANCH   3  36
TORSDOF 9
ENDMDL
MODEL 9
REMARK VINA RESULT:      -4.6     21.020     23.025
REMARK  9 active torsions:
REMARK  status: ('A' for Active; 'I' for Inactive)
REMARK    1  A    between atoms: O_1  and  C_10 
REMARK    2  A    between atoms: O_2  and  C_11 
REMARK    3  A    between atoms: O_3  and  C_12 
REMARK    4  A    between atoms: O_5  and  C_23 
REMARK    5  A    between atoms: O_6  and  C_24 
REMARK    6  A    between atoms: O_7  and  C_25 
REMARK    7  A    between atoms: O_9  and  C_29 
REMARK    8  A    between atoms: C_22  and  C_27 
REMARK    9  A    between atoms: C_26  and  C_29 
ROOT
HETATM    1  O   UNK N   1      26.453  38.483  52.714  0.00  0.00    -0.286 OA
HETATM    2  C   UNK N   1      28.137  40.857  52.493  0.00  0.00     0.113 A 
HETATM    3  C   UNK N   1      28.953  42.000  52.612  0.00  0.00     0.099 A 
HETATM    4  C   UNK N   1      27.486  35.973  53.782  0.00  0.00     0.081 A 
HETATM    5  C   UNK N   1      28.980  37.443  55.049  0.00  0.00    -0.029 A 
HETATM    6  C   UNK N   1      29.258  39.891  54.449  0.00  0.00    -0.030 A 
HETATM    7  C   UNK N   1      28.286  39.776  53.427  0.00  0.00     0.058 A 
HETATM    8  C   UNK N   1      27.964  37.293  54.074  0.00  0.00     0.055 A 
HETATM    9  C   UNK N   1      29.079  35.031  55.360  0.00  0.00    -0.059 A 
HETATM   10  C   UNK N   1      28.041  34.873  54.443  0.00  0.00     0.044 A 
HETATM   11  C   UNK N   1      29.894  42.088  53.632  0.00  0.00     0.040 A 
HETATM   12  C   UNK N   1      29.549  36.309  55.651  0.00  0.00     0.015 A 
HETATM   13  C   UNK N   1      30.042  41.053  54.543  0.00  0.00     0.012 A 
HETATM   14  C   UNK N   1      29.441  38.818  55.508  0.00  0.00     0.085 C 
HETATM   15  C   UNK N   1      27.475  38.520  53.374  0.00  0.00     0.199 C 
HETATM   16  C   UNK N   1      29.668  33.828  56.035  0.00  0.00     0.048 C 
ENDROOT
BRANCH  14  17
HETATM   17  C   UNK N   1      28.694  39.294  56.806  0.00  0.00     0.166 C 
HETATM   18  O   UNK N   1      27.534  38.485  57.009  0.00  0.00    -0.372 OA
HETATM   19  C   UNK N   1      26.664  38.986  58.027  0.00  0.00     0.176 C 
HETATM   20  C   UNK N   1      27.386  39.144  59.390  0.00  0.00     0.180 C 
HETATM   21  C   UNK N   1      28.666  39.987  59.217  0.00  0.00     0.180 C 
HETATM   22  C   UNK N   1      29.547  39.372  58.109  0.00  0.00     0.179 C 
BRANCH  19  23
HETATM   23  C   UNK N   1      25.893  40.245  57.579  0.00  0.00     0.198 C 
BRANCH  23  24
HETATM   24  O   UNK N   1      25.289  40.033  56.331  0.00  0.00    -0.398 OA
HETATM   25  H   UNK N   1      25.725  40.656  55.693  0.00  0.00     0.209 HD
ENDBRANCH  23  24
ENDBRANCH  19  23
BRANCH  20  26
HETATM   26  O   UNK N   1      27.694  37.864  59.886  0.00  0.00    -0.390 OA
HETATM   27  H   UNK N   1      28.230  37.990  60.714  0.00  0.00     0.210 HD
ENDBRANCH  20  26
BRANCH  21  28
HETATM   28  O   UNK N   1      29.364  40.059  60.433  0.00  0.00    -0.390 OA
HETATM   29  H   UNK N   1      29.693  40.992  60.521  0.00  0.00     0.210 HD
ENDBRANCH  21  28
BRANCH  22  30
HETATM   30  O   UNK N   1      30.059  38.134  58.541  0.00  0.00    -0.390 OA
HETATM   31  H   UNK N   1      30.415  38.231  59.460  0.00  0.00     0.210 HD
ENDBRANCH  22  30
ENDBRANCH  14  17
BRANCH   4  32
HETATM   32  O   UNK N   1      26.524  35.705  52.867  0.00  0.00    -0.360 OA
HETATM   33  H   UNK N   1      25.656  35.333  53.041  0.00  0.00     0.217 HD
ENDBRANCH   4  32
BRANCH   2  34
HETATM   34  O   UNK N   1      27.257  40.830  51.463  0.00  0.00    -0.357 OA
HETATM   35  H   UNK N   1      27.469  40.744  50.531  0.00  0.00     0.218 HD
ENDBRANCH   2  34
BRANCH   3  36
HETATM   36  O   UNK N   1      28.848  43.026  51.740  0.00  0.00    -0.358 OA
HETATM   37  H   UNK N   1      29.579  43.303  51.168  0.00  0.00     0.218 HD
ENDBRANCH   3  36
TORSDOF 9
ENDMDL
