MODEL 1
REMARK VINA RESULT:      -6.7      0.000      0.000
REMARK  9 active torsions:
REMARK  status: ('A' for Active; 'I' for Inactive)
REMARK    1  A    between atoms: O_1  and  C_10 
REMARK    2  A    between atoms: O_2  and  C_11 
REMARK    3  A    between atoms: O_3  and  C_12 
REMARK    4  A    between atoms: O_5  and  C_23 
REMARK    5  A    between atoms: O_6  and  C_24 
REMARK    6  A    between atoms: O_7  and  C_25 
REMARK    7  A    between atoms: O_9  and  C_29 
REMARK    8  A    between atoms: C_22  and  C_27 
REMARK    9  A    between atoms: C_26  and  C_29 
ROOT
HETATM    1  O   UNK N   1      51.648  33.228  46.506  0.00  0.00    -0.286 OA
HETATM    2  C   UNK N   1      50.361  31.806  44.413  0.00  0.00     0.113 A 
HETATM    3  C   UNK N   1      49.619  31.075  43.448  0.00  0.00     0.099 A 
HETATM    4  C   UNK N   1      51.660  32.230  49.254  0.00  0.00     0.081 A 
HETATM    5  C   UNK N   1      49.508  31.232  48.616  0.00  0.00    -0.029 A 
HETATM    6  C   UNK N   1      48.884  30.963  46.171  0.00  0.00    -0.030 A 
HETATM    7  C   UNK N   1      49.997  31.735  45.784  0.00  0.00     0.058 A 
HETATM    8  C   UNK N   1      50.666  31.972  48.253  0.00  0.00     0.055 A 
HETATM    9  C   UNK N   1      50.346  31.012  50.896  0.00  0.00    -0.059 A 
HETATM   10  C   UNK N   1      51.481  31.740  50.549  0.00  0.00     0.044 A 
HETATM   11  C   UNK N   1      48.552  30.279  43.863  0.00  0.00     0.040 A 
HETATM   12  C   UNK N   1      49.361  30.770  49.937  0.00  0.00     0.015 A 
HETATM   13  C   UNK N   1      48.191  30.219  45.202  0.00  0.00     0.012 A 
HETATM   14  C   UNK N   1      48.392  30.945  47.611  0.00  0.00     0.085 C 
HETATM   15  C   UNK N   1      50.803  32.411  46.832  0.00  0.00     0.199 C 
HETATM   16  C   UNK N   1      50.204  30.489  52.295  0.00  0.00     0.048 C 
ENDROOT
BRANCH  14  17
HETATM   17  C   UNK N   1      47.204  31.952  47.862  0.00  0.00     0.166 C 
HETATM   18  O   UNK N   1      47.670  32.952  48.760  0.00  0.00    -0.372 OA
HETATM   19  C   UNK N   1      46.754  34.027  48.883  0.00  0.00     0.176 C 
HETATM   20  C   UNK N   1      45.460  33.530  49.566  0.00  0.00     0.180 C 
HETATM   21  C   UNK N   1      44.842  32.414  48.719  0.00  0.00     0.180 C 
HETATM   22  C   UNK N   1      45.892  31.322  48.441  0.00  0.00     0.179 C 
BRANCH  19  23
HETATM   23  C   UNK N   1      47.411  35.132  49.722  0.00  0.00     0.198 C 
BRANCH  23  24
HETATM   24  O   UNK N   1      47.453  36.336  49.005  0.00  0.00    -0.398 OA
HETATM   25  H   UNK N   1      47.117  37.044  49.614  0.00  0.00     0.209 HD
ENDBRANCH  23  24
ENDBRANCH  19  23
BRANCH  20  26
HETATM   26  O   UNK N   1      44.536  34.573  49.756  0.00  0.00    -0.390 OA
HETATM   27  H   UNK N   1      44.830  35.098  50.546  0.00  0.00     0.210 HD
ENDBRANCH  20  26
BRANCH  21  28
HETATM   28  O   UNK N   1      43.732  31.878  49.395  0.00  0.00    -0.390 OA
HETATM   29  H   UNK N   1      43.375  31.142  48.835  0.00  0.00     0.210 HD
ENDBRANCH  21  28
BRANCH  22  30
HETATM   30  O   UNK N   1      45.312  30.383  47.571  0.00  0.00    -0.390 OA
HETATM   31  H   UNK N   1      45.821  30.403  46.718  0.00  0.00     0.210 HD
ENDBRANCH  22  30
ENDBRANCH  14  17
BRANCH   4  32
HETATM   32  O   UNK N   1      52.808  32.908  49.017  0.00  0.00    -0.360 OA
HETATM   33  H   UNK N   1      52.892  33.778  48.619  0.00  0.00     0.217 HD
ENDBRANCH   4  32
BRANCH   2  34
HETATM   34  O   UNK N   1      51.431  32.556  44.053  0.00  0.00    -0.357 OA
HETATM   35  H   UNK N   1      52.276  32.566  44.516  0.00  0.00     0.218 HD
ENDBRANCH   2  34
BRANCH   3  36
HETATM   36  O   UNK N   1      49.907  31.109  42.129  0.00  0.00    -0.358 OA
HETATM   37  H   UNK N   1      49.291  30.863  41.429  0.00  0.00     0.218 HD
ENDBRANCH   3  36
TORSDOF 9
ENDMDL
MODEL 2
REMARK VINA RESULT:      -6.1      1.132      2.364
REMARK  9 active torsions:
REMARK  status: ('A' for Active; 'I' for Inactive)
REMARK    1  A    between atoms: O_1  and  C_10 
REMARK    2  A    between atoms: O_2  and  C_11 
REMARK    3  A    between atoms: O_3  and  C_12 
REMARK    4  A    between atoms: O_5  and  C_23 
REMARK    5  A    between atoms: O_6  and  C_24 
REMARK    6  A    between atoms: O_7  and  C_25 
REMARK    7  A    between atoms: O_9  and  C_29 
REMARK    8  A    between atoms: C_22  and  C_27 
REMARK    9  A    between atoms: C_26  and  C_29 
ROOT
HETATM    1  O   UNK N   1      52.172  33.018  46.444  0.00  0.00    -0.286 OA
HETATM    2  C   UNK N   1      50.156  31.790  44.866  0.00  0.00     0.113 A 
HETATM    3  C   UNK N   1      49.078  31.167  44.186  0.00  0.00     0.099 A 
HETATM    4  C   UNK N   1      52.899  31.980  49.079  0.00  0.00     0.081 A 
HETATM    5  C   UNK N   1      50.554  31.251  49.141  0.00  0.00    -0.029 A 
HETATM    6  C   UNK N   1      49.193  31.097  47.005  0.00  0.00    -0.030 A 
HETATM    7  C   UNK N   1      50.218  31.739  46.284  0.00  0.00     0.058 A 
HETATM    8  C   UNK N   1      51.626  31.857  48.431  0.00  0.00     0.055 A 
HETATM    9  C   UNK N   1      52.011  30.897  51.065  0.00  0.00    -0.059 A 
HETATM   10  C   UNK N   1      53.065  31.493  50.377  0.00  0.00     0.044 A 
HETATM   11  C   UNK N   1      48.101  30.493  44.919  0.00  0.00     0.040 A 
HETATM   12  C   UNK N   1      50.761  30.788  50.454  0.00  0.00     0.015 A 
HETATM   13  C   UNK N   1      48.157  30.454  46.307  0.00  0.00     0.012 A 
HETATM   14  C   UNK N   1      49.161  31.113  48.527  0.00  0.00     0.085 C 
HETATM   15  C   UNK N   1      51.376  32.300  47.026  0.00  0.00     0.199 C 
HETATM   16  C   UNK N   1      52.239  30.371  52.452  0.00  0.00     0.048 C 
ENDROOT
BRANCH  14  17
HETATM   17  C   UNK N   1      48.230  32.247  49.105  0.00  0.00     0.166 C 
HETATM   18  O   UNK N   1      46.886  31.790  49.009  0.00  0.00    -0.372 OA
HETATM   19  C   UNK N   1      45.984  32.638  49.699  0.00  0.00     0.176 C 
HETATM   20  C   UNK N   1      45.929  34.015  49.001  0.00  0.00     0.180 C 
HETATM   21  C   UNK N   1      47.329  34.635  49.002  0.00  0.00     0.180 C 
HETATM   22  C   UNK N   1      48.344  33.642  48.404  0.00  0.00     0.179 C 
BRANCH  19  23
HETATM   23  C   UNK N   1      44.596  31.979  49.693  0.00  0.00     0.198 C 
BRANCH  23  24
HETATM   24  O   UNK N   1      43.816  32.486  48.644  0.00  0.00    -0.398 OA
HETATM   25  H   UNK N   1      43.476  33.370  48.939  0.00  0.00     0.209 HD
ENDBRANCH  23  24
ENDBRANCH  19  23
BRANCH  20  26
HETATM   26  O   UNK N   1      45.007  34.879  49.621  0.00  0.00    -0.390 OA
HETATM   27  H   UNK N   1      45.090  35.770  49.191  0.00  0.00     0.210 HD
ENDBRANCH  20  26
BRANCH  21  28
HETATM   28  O   UNK N   1      47.308  35.831  48.265  0.00  0.00    -0.390 OA
HETATM   29  H   UNK N   1      48.229  35.988  47.933  0.00  0.00     0.210 HD
ENDBRANCH  21  28
BRANCH  22  30
HETATM   30  O   UNK N   1      49.623  34.209  48.532  0.00  0.00    -0.390 OA
HETATM   31  H   UNK N   1      49.605  34.829  49.307  0.00  0.00     0.210 HD
ENDBRANCH  22  30
ENDBRANCH  14  17
BRANCH   4  32
HETATM   32  O   UNK N   1      53.993  32.523  48.492  0.00  0.00    -0.360 OA
HETATM   33  H   UNK N   1      54.165  33.457  48.349  0.00  0.00     0.217 HD
ENDBRANCH   4  32
BRANCH   2  34
HETATM   34  O   UNK N   1      51.147  32.416  44.186  0.00  0.00    -0.357 OA
HETATM   35  H   UNK N   1      51.304  33.366  44.192  0.00  0.00     0.218 HD
ENDBRANCH   2  34
BRANCH   3  36
HETATM   36  O   UNK N   1      48.955  31.188  42.841  0.00  0.00    -0.358 OA
HETATM   37  H   UNK N   1      48.121  31.301  42.370  0.00  0.00     0.218 HD
ENDBRANCH   3  36
TORSDOF 9
ENDMDL
MODEL 3
REMARK VINA RESULT:      -5.9     21.710     24.751
REMARK  9 active torsions:
REMARK  status: ('A' for Active; 'I' for Inactive)
REMARK    1  A    between atoms: O_1  and  C_10 
REMARK    2  A    between atoms: O_2  and  C_11 
REMARK    3  A    between atoms: O_3  and  C_12 
REMARK    4  A    between atoms: O_5  and  C_23 
REMARK    5  A    between atoms: O_6  and  C_24 
REMARK    6  A    between atoms: O_7  and  C_25 
REMARK    7  A    between atoms: O_9  and  C_29 
REMARK    8  A    between atoms: C_22  and  C_27 
REMARK    9  A    between atoms: C_26  and  C_29 
ROOT
HETATM    1  O   UNK N   1      32.747  42.882  56.493  0.00  0.00    -0.286 OA
HETATM    2  C   UNK N   1      30.008  42.560  55.821  0.00  0.00     0.113 A 
HETATM    3  C   UNK N   1      28.611  42.481  55.581  0.00  0.00     0.099 A 
HETATM    4  C   UNK N   1      33.651  42.888  59.274  0.00  0.00     0.081 A 
HETATM    5  C   UNK N   1      31.417  43.810  59.716  0.00  0.00    -0.029 A 
HETATM    6  C   UNK N   1      29.565  43.587  57.996  0.00  0.00    -0.030 A 
HETATM    7  C   UNK N   1      30.483  43.103  57.044  0.00  0.00     0.058 A 
HETATM    8  C   UNK N   1      32.358  43.278  58.792  0.00  0.00     0.055 A 
HETATM    9  C   UNK N   1      33.025  43.540  61.530  0.00  0.00    -0.059 A 
HETATM   10  C   UNK N   1      33.953  43.022  60.631  0.00  0.00     0.044 A 
HETATM   11  C   UNK N   1      27.721  42.921  56.560  0.00  0.00     0.040 A 
HETATM   12  C   UNK N   1      31.770  43.942  61.072  0.00  0.00     0.015 A 
HETATM   13  C   UNK N   1      28.187  43.462  57.751  0.00  0.00     0.012 A 
HETATM   14  C   UNK N   1      30.031  44.276  59.270  0.00  0.00     0.085 C 
HETATM   15  C   UNK N   1      31.932  43.118  57.370  0.00  0.00     0.199 C 
HETATM   16  C   UNK N   1      33.386  43.649  62.983  0.00  0.00     0.048 C 
ENDROOT
BRANCH  14  17
HETATM   17  C   UNK N   1      30.033  45.849  59.148  0.00  0.00     0.166 C 
HETATM   18  O   UNK N   1      28.763  46.316  59.589  0.00  0.00    -0.372 OA
HETATM   19  C   UNK N   1      28.732  47.726  59.727  0.00  0.00     0.176 C 
HETATM   20  C   UNK N   1      28.876  48.386  58.338  0.00  0.00     0.180 C 
HETATM   21  C   UNK N   1      30.204  47.954  57.711  0.00  0.00     0.180 C 
HETATM   22  C   UNK N   1      30.313  46.418  57.716  0.00  0.00     0.179 C 
BRANCH  19  23
HETATM   23  C   UNK N   1      27.395  48.122  60.372  0.00  0.00     0.198 C 
BRANCH  23  24
HETATM   24  O   UNK N   1      26.433  48.387  59.387  0.00  0.00    -0.398 OA
HETATM   25  H   UNK N   1      26.813  49.087  58.795  0.00  0.00     0.209 HD
ENDBRANCH  23  24
ENDBRANCH  19  23
BRANCH  20  26
HETATM   26  O   UNK N   1      28.801  49.789  58.416  0.00  0.00    -0.390 OA
HETATM   27  H   UNK N   1      29.364  50.164  57.689  0.00  0.00     0.210 HD
ENDBRANCH  20  26
BRANCH  21  28
HETATM   28  O   UNK N   1      30.286  48.456  56.401  0.00  0.00    -0.390 OA
HETATM   29  H   UNK N   1      30.994  47.943  55.933  0.00  0.00     0.210 HD
ENDBRANCH  21  28
BRANCH  22  30
HETATM   30  O   UNK N   1      31.590  46.078  57.239  0.00  0.00    -0.390 OA
HETATM   31  H   UNK N   1      31.515  45.904  56.264  0.00  0.00     0.210 HD
ENDBRANCH  22  30
ENDBRANCH  14  17
BRANCH   4  32
HETATM   32  O   UNK N   1      34.617  42.354  58.489  0.00  0.00    -0.360 OA
HETATM   33  H   UNK N   1      34.624  42.317  57.530  0.00  0.00     0.217 HD
ENDBRANCH   4  32
BRANCH   2  34
HETATM   34  O   UNK N   1      30.903  42.102  54.911  0.00  0.00    -0.357 OA
HETATM   35  H   UNK N   1      30.672  41.649  54.093  0.00  0.00     0.218 HD
ENDBRANCH   2  34
BRANCH   3  36
HETATM   36  O   UNK N   1      28.096  41.985  54.435  0.00  0.00    -0.358 OA
HETATM   37  H   UNK N   1      28.578  41.919  53.602  0.00  0.00     0.218 HD
ENDBRANCH   3  36
TORSDOF 9
ENDMDL
MODEL 4
REMARK VINA RESULT:      -5.8     27.205     30.116
REMARK  9 active torsions:
REMARK  status: ('A' for Active; 'I' for Inactive)
REMARK    1  A    between atoms: O_1  and  C_10 
REMARK    2  A    between atoms: O_2  and  C_11 
REMARK    3  A    between atoms: O_3  and  C_12 
REMARK    4  A    between atoms: O_5  and  C_23 
REMARK    5  A    between atoms: O_6  and  C_24 
REMARK    6  A    between atoms: O_7  and  C_25 
REMARK    7  A    between atoms: O_9  and  C_29 
REMARK    8  A    between atoms: C_22  and  C_27 
REMARK    9  A    between atoms: C_26  and  C_29 
ROOT
HETATM    1  O   UNK N   1      29.661  56.200  42.383  0.00  0.00    -0.286 OA
HETATM    2  C   UNK N   1      29.678  56.975  39.652  0.00  0.00     0.113 A 
HETATM    3  C   UNK N   1      29.672  57.236  38.257  0.00  0.00     0.099 A 
HETATM    4  C   UNK N   1      31.153  53.869  43.324  0.00  0.00     0.081 A 
HETATM    5  C   UNK N   1      30.729  53.020  41.057  0.00  0.00    -0.029 A 
HETATM    6  C   UNK N   1      30.045  54.600  39.194  0.00  0.00    -0.030 A 
HETATM    7  C   UNK N   1      29.881  55.649  40.119  0.00  0.00     0.058 A 
HETATM    8  C   UNK N   1      30.619  54.071  42.008  0.00  0.00     0.055 A 
HETATM    9  C   UNK N   1      31.886  51.636  42.700  0.00  0.00    -0.059 A 
HETATM   10  C   UNK N   1      31.779  52.660  43.638  0.00  0.00     0.044 A 
HETATM   11  C   UNK N   1      29.887  56.189  37.361  0.00  0.00     0.040 A 
HETATM   12  C   UNK N   1      31.354  51.812  41.422  0.00  0.00     0.015 A 
HETATM   13  C   UNK N   1      30.074  54.892  37.820  0.00  0.00     0.012 A 
HETATM   14  C   UNK N   1      30.156  53.151  39.646  0.00  0.00     0.085 C 
HETATM   15  C   UNK N   1      29.985  55.350  41.570  0.00  0.00     0.199 C 
HETATM   16  C   UNK N   1      32.583  50.361  43.076  0.00  0.00     0.048 C 
ENDROOT
BRANCH  14  17
HETATM   17  C   UNK N   1      28.780  52.384  39.577  0.00  0.00     0.166 C 
HETATM   18  O   UNK N   1      27.749  53.324  39.851  0.00  0.00    -0.372 OA
HETATM   19  C   UNK N   1      26.460  52.791  39.600  0.00  0.00     0.176 C 
HETATM   20  C   UNK N   1      26.164  51.656  40.605  0.00  0.00     0.180 C 
HETATM   21  C   UNK N   1      27.220  50.558  40.449  0.00  0.00     0.180 C 
HETATM   22  C   UNK N   1      28.631  51.168  40.553  0.00  0.00     0.179 C 
BRANCH  19  23
HETATM   23  C   UNK N   1      25.429  53.920  39.749  0.00  0.00     0.198 C 
BRANCH  23  24
HETATM   24  O   UNK N   1      25.370  54.360  41.079  0.00  0.00    -0.398 OA
HETATM   25  H   UNK N   1      25.735  53.628  41.640  0.00  0.00     0.209 HD
ENDBRANCH  23  24
ENDBRANCH  19  23
BRANCH  20  26
HETATM   26  O   UNK N   1      24.873  51.125  40.429  0.00  0.00    -0.390 OA
HETATM   27  H   UNK N   1      24.601  51.294  39.489  0.00  0.00     0.210 HD
ENDBRANCH  20  26
BRANCH  21  28
HETATM   28  O   UNK N   1      27.025  49.582  41.440  0.00  0.00    -0.390 OA
HETATM   29  H   UNK N   1      27.896  49.128  41.581  0.00  0.00     0.210 HD
ENDBRANCH  21  28
BRANCH  22  30
HETATM   30  O   UNK N   1      29.559  50.146  40.291  0.00  0.00    -0.390 OA
HETATM   31  H   UNK N   1      29.259  49.664  39.476  0.00  0.00     0.210 HD
ENDBRANCH  22  30
ENDBRANCH  14  17
BRANCH   4  32
HETATM   32  O   UNK N   1      31.121  54.805  44.301  0.00  0.00    -0.360 OA
HETATM   33  H   UNK N   1      30.954  54.657  45.235  0.00  0.00     0.217 HD
ENDBRANCH   4  32
BRANCH   2  34
HETATM   34  O   UNK N   1      29.516  57.974  40.554  0.00  0.00    -0.357 OA
HETATM   35  H   UNK N   1      29.869  58.865  40.456  0.00  0.00     0.218 HD
ENDBRANCH   2  34
BRANCH   3  36
HETATM   36  O   UNK N   1      29.474  58.472  37.748  0.00  0.00    -0.358 OA
HETATM   37  H   UNK N   1      29.560  59.290  38.251  0.00  0.00     0.218 HD
ENDBRANCH   3  36
TORSDOF 9
ENDMDL
MODEL 5
REMARK VINA RESULT:      -5.6     20.007     23.299
REMARK  9 active torsions:
REMARK  status: ('A' for Active; 'I' for Inactive)
REMARK    1  A    between atoms: O_1  and  C_10 
REMARK    2  A    between atoms: O_2  and  C_11 
REMARK    3  A    between atoms: O_3  and  C_12 
REMARK    4  A    between atoms: O_5  and  C_23 
REMARK    5  A    between atoms: O_6  and  C_24 
REMARK    6  A    between atoms: O_7  and  C_25 
REMARK    7  A    between atoms: O_9  and  C_29 
REMARK    8  A    between atoms: C_22  and  C_27 
REMARK    9  A    between atoms: C_26  and  C_29 
ROOT
HETATM    1  O   UNK N   1      31.322  41.967  53.679  0.00  0.00    -0.286 OA
HETATM    2  C   UNK N   1      31.311  42.591  56.448  0.00  0.00     0.113 A 
HETATM    3  C   UNK N   1      31.206  42.820  57.844  0.00  0.00     0.099 A 
HETATM    4  C   UNK N   1      28.844  41.794  52.137  0.00  0.00     0.081 A 
HETATM    5  C   UNK N   1      27.874  41.099  54.285  0.00  0.00    -0.029 A 
HETATM    6  C   UNK N   1      29.094  41.558  56.462  0.00  0.00    -0.030 A 
HETATM    7  C   UNK N   1      30.240  41.969  55.753  0.00  0.00     0.058 A 
HETATM    8  C   UNK N   1      28.997  41.553  53.543  0.00  0.00     0.055 A 
HETATM    9  C   UNK N   1      26.503  41.151  52.268  0.00  0.00    -0.059 A 
HETATM   10  C   UNK N   1      27.601  41.593  51.534  0.00  0.00     0.044 A 
HETATM   11  C   UNK N   1      30.040  42.451  58.515  0.00  0.00     0.040 A 
HETATM   12  C   UNK N   1      26.643  40.895  53.633  0.00  0.00     0.015 A 
HETATM   13  C   UNK N   1      28.998  41.833  57.836  0.00  0.00     0.012 A 
HETATM   14  C   UNK N   1      27.970  40.791  55.780  0.00  0.00     0.085 C 
HETATM   15  C   UNK N   1      30.275  41.794  54.279  0.00  0.00     0.199 C 
HETATM   16  C   UNK N   1      25.181  40.967  51.581  0.00  0.00     0.048 C 
ENDROOT
BRANCH  14  17
HETATM   17  C   UNK N   1      28.090  39.231  55.977  0.00  0.00     0.166 C 
HETATM   18  O   UNK N   1      29.116  38.765  55.109  0.00  0.00    -0.372 OA
HETATM   19  C   UNK N   1      29.457  37.413  55.363  0.00  0.00     0.176 C 
HETATM   20  C   UNK N   1      28.262  36.501  55.002  0.00  0.00     0.180 C 
HETATM   21  C   UNK N   1      27.051  36.900  55.849  0.00  0.00     0.180 C 
HETATM   22  C   UNK N   1      26.784  38.410  55.705  0.00  0.00     0.179 C 
BRANCH  19  23
HETATM   23  C   UNK N   1      30.682  37.052  54.511  0.00  0.00     0.198 C 
BRANCH  23  24
HETATM   24  O   UNK N   1      31.358  35.953  55.061  0.00  0.00    -0.398 OA
HETATM   25  H   UNK N   1      31.107  35.913  56.020  0.00  0.00     0.209 HD
ENDBRANCH  23  24
ENDBRANCH  19  23
BRANCH  20  26
HETATM   26  O   UNK N   1      28.568  35.141  55.190  0.00  0.00    -0.390 OA
HETATM   27  H   UNK N   1      28.046  34.618  54.527  0.00  0.00     0.210 HD
ENDBRANCH  20  26
BRANCH  21  28
HETATM   28  O   UNK N   1      25.932  36.155  55.441  0.00  0.00    -0.390 OA
HETATM   29  H   UNK N   1      26.220  35.584  54.683  0.00  0.00     0.210 HD
ENDBRANCH  21  28
BRANCH  22  30
HETATM   30  O   UNK N   1      25.741  38.746  56.585  0.00  0.00    -0.390 OA
HETATM   31  H   UNK N   1      25.971  39.611  57.014  0.00  0.00     0.210 HD
ENDBRANCH  22  30
ENDBRANCH  14  17
BRANCH   4  32
HETATM   32  O   UNK N   1      29.839  42.244  51.338  0.00  0.00    -0.360 OA
HETATM   33  H   UNK N   1      30.485  42.922  51.549  0.00  0.00     0.217 HD
ENDBRANCH   4  32
BRANCH   2  34
HETATM   34  O   UNK N   1      32.410  42.976  55.755  0.00  0.00    -0.357 OA
HETATM   35  H   UNK N   1      33.302  42.648  55.911  0.00  0.00     0.218 HD
ENDBRANCH   2  34
BRANCH   3  36
HETATM   36  O   UNK N   1      32.192  43.397  58.565  0.00  0.00    -0.358 OA
HETATM   37  H   UNK N   1      32.691  44.174  58.284  0.00  0.00     0.218 HD
ENDBRANCH   3  36
TORSDOF 9
ENDMDL
MODEL 6
REMARK VINA RESULT:      -5.5     21.821     24.152
REMARK  9 active torsions:
REMARK  status: ('A' for Active; 'I' for Inactive)
REMARK    1  A    between atoms: O_1  and  C_10 
REMARK    2  A    between atoms: O_2  and  C_11 
REMARK    3  A    between atoms: O_3  and  C_12 
REMARK    4  A    between atoms: O_5  and  C_23 
REMARK    5  A    between atoms: O_6  and  C_24 
REMARK    6  A    between atoms: O_7  and  C_25 
REMARK    7  A    between atoms: O_9  and  C_29 
REMARK    8  A    between atoms: C_22  and  C_27 
REMARK    9  A    between atoms: C_26  and  C_29 
ROOT
HETATM    1  O   UNK N   1      28.069  40.974  58.264  0.00  0.00    -0.286 OA
HETATM    2  C   UNK N   1      30.531  42.337  57.887  0.00  0.00     0.113 A 
HETATM    3  C   UNK N   1      31.734  43.020  57.572  0.00  0.00     0.099 A 
HETATM    4  C   UNK N   1      27.231  38.807  56.490  0.00  0.00     0.081 A 
HETATM    5  C   UNK N   1      28.537  40.037  54.812  0.00  0.00    -0.029 A 
HETATM    6  C   UNK N   1      30.245  41.773  55.524  0.00  0.00    -0.030 A 
HETATM    7  C   UNK N   1      29.793  41.698  56.856  0.00  0.00     0.058 A 
HETATM    8  C   UNK N   1      28.092  39.904  56.155  0.00  0.00     0.055 A 
HETATM    9  C   UNK N   1      27.305  38.026  54.189  0.00  0.00    -0.059 A 
HETATM   10  C   UNK N   1      26.862  37.891  55.502  0.00  0.00     0.044 A 
HETATM   11  C   UNK N   1      32.188  43.038  56.254  0.00  0.00     0.040 A 
HETATM   12  C   UNK N   1      28.128  39.100  53.845  0.00  0.00     0.015 A 
HETATM   13  C   UNK N   1      31.459  42.422  55.244  0.00  0.00     0.012 A 
HETATM   14  C   UNK N   1      29.430  41.199  54.374  0.00  0.00     0.085 C 
HETATM   15  C   UNK N   1      28.579  40.897  57.158  0.00  0.00     0.199 C 
HETATM   16  C   UNK N   1      26.899  37.008  53.164  0.00  0.00     0.048 C 
ENDROOT
BRANCH  14  17
HETATM   17  C   UNK N   1      28.544  42.285  53.652  0.00  0.00     0.166 C 
HETATM   18  O   UNK N   1      27.255  42.257  54.252  0.00  0.00    -0.372 OA
HETATM   19  C   UNK N   1      26.446  43.341  53.829  0.00  0.00     0.176 C 
HETATM   20  C   UNK N   1      26.126  43.192  52.324  0.00  0.00     0.180 C 
HETATM   21  C   UNK N   1      27.436  43.180  51.531  0.00  0.00     0.180 C 
HETATM   22  C   UNK N   1      28.387  42.112  52.103  0.00  0.00     0.179 C 
BRANCH  19  23
HETATM   23  C   UNK N   1      25.151  43.332  54.654  0.00  0.00     0.198 C 
BRANCH  23  24
HETATM   24  O   UNK N   1      24.615  44.625  54.744  0.00  0.00    -0.398 OA
HETATM   25  H   UNK N   1      23.686  44.576  54.400  0.00  0.00     0.209 HD
ENDBRANCH  23  24
ENDBRANCH  19  23
BRANCH  20  26
HETATM   26  O   UNK N   1      25.282  44.220  51.865  0.00  0.00    -0.390 OA
HETATM   27  H   UNK N   1      24.389  44.085  52.277  0.00  0.00     0.210 HD
ENDBRANCH  20  26
BRANCH  21  28
HETATM   28  O   UNK N   1      27.157  42.926  50.178  0.00  0.00    -0.390 OA
HETATM   29  H   UNK N   1      26.600  43.677  49.846  0.00  0.00     0.210 HD
ENDBRANCH  21  28
BRANCH  22  30
HETATM   30  O   UNK N   1      29.610  42.218  51.420  0.00  0.00    -0.390 OA
HETATM   31  H   UNK N   1      29.437  42.674  50.555  0.00  0.00     0.210 HD
ENDBRANCH  22  30
ENDBRANCH  14  17
BRANCH   4  32
HETATM   32  O   UNK N   1      26.762  38.572  57.738  0.00  0.00    -0.360 OA
HETATM   33  H   UNK N   1      26.238  39.169  58.278  0.00  0.00     0.217 HD
ENDBRANCH   4  32
BRANCH   2  34
HETATM   34  O   UNK N   1      30.081  42.260  59.164  0.00  0.00    -0.357 OA
HETATM   35  H   UNK N   1      30.529  42.638  59.928  0.00  0.00     0.218 HD
ENDBRANCH   2  34
BRANCH   3  36
HETATM   36  O   UNK N   1      32.476  43.656  58.504  0.00  0.00    -0.358 OA
HETATM   37  H   UNK N   1      32.222  44.480  58.936  0.00  0.00     0.218 HD
ENDBRANCH   3  36
TORSDOF 9
ENDMDL
MODEL 7
REMARK VINA RESULT:      -4.9     20.686     23.841
REMARK  9 active torsions:
REMARK  status: ('A' for Active; 'I' for Inactive)
REMARK    1  A    between atoms: O_1  and  C_10 
REMARK    2  A    between atoms: O_2  and  C_11 
REMARK    3  A    between atoms: O_3  and  C_12 
REMARK    4  A    between atoms: O_5  and  C_23 
REMARK    5  A    between atoms: O_6  and  C_24 
REMARK    6  A    between atoms: O_7  and  C_25 
REMARK    7  A    between atoms: O_9  and  C_29 
REMARK    8  A    between atoms: C_22  and  C_27 
REMARK    9  A    between atoms: C_26  and  C_29 
ROOT
HETATM    1  O   UNK N   1      25.857  38.950  56.308  0.00  0.00    -0.286 OA
HETATM    2  C   UNK N   1      27.881  36.984  55.996  0.00  0.00     0.113 A 
HETATM    3  C   UNK N   1      28.976  36.099  55.819  0.00  0.00     0.099 A 
HETATM    4  C   UNK N   1      25.656  41.242  54.505  0.00  0.00     0.081 A 
HETATM    5  C   UNK N   1      28.090  40.968  54.321  0.00  0.00    -0.029 A 
HETATM    6  C   UNK N   1      29.201  38.795  55.016  0.00  0.00    -0.030 A 
HETATM    7  C   UNK N   1      27.993  38.336  55.576  0.00  0.00     0.058 A 
HETATM    8  C   UNK N   1      26.846  40.512  54.834  0.00  0.00     0.055 A 
HETATM    9  C   UNK N   1      26.963  42.806  53.179  0.00  0.00    -0.059 A 
HETATM   10  C   UNK N   1      25.740  42.367  53.682  0.00  0.00     0.044 A 
HETATM   11  C   UNK N   1      30.144  36.564  55.216  0.00  0.00     0.040 A 
HETATM   12  C   UNK N   1      28.131  42.116  53.508  0.00  0.00     0.015 A 
HETATM   13  C   UNK N   1      30.256  37.890  54.817  0.00  0.00     0.012 A 
HETATM   14  C   UNK N   1      29.404  40.260  54.654  0.00  0.00     0.085 C 
HETATM   15  C   UNK N   1      26.840  39.268  55.661  0.00  0.00     0.199 C 
HETATM   16  C   UNK N   1      27.004  44.009  52.284  0.00  0.00     0.048 C 
ENDROOT
BRANCH  14  17
HETATM   17  C   UNK N   1      30.152  41.069  55.782  0.00  0.00     0.166 C 
HETATM   18  O   UNK N   1      29.164  41.615  56.648  0.00  0.00    -0.372 OA
HETATM   19  C   UNK N   1      29.731  42.177  57.819  0.00  0.00     0.176 C 
HETATM   20  C   UNK N   1      30.577  43.414  57.442  0.00  0.00     0.180 C 
HETATM   21  C   UNK N   1      31.688  42.989  56.478  0.00  0.00     0.180 C 
HETATM   22  C   UNK N   1      31.084  42.225  55.284  0.00  0.00     0.179 C 
BRANCH  19  23
HETATM   23  C   UNK N   1      28.592  42.577  58.768  0.00  0.00     0.198 C 
BRANCH  23  24
HETATM   24  O   UNK N   1      29.050  42.632  60.091  0.00  0.00    -0.398 OA
HETATM   25  H   UNK N   1      28.351  42.211  60.655  0.00  0.00     0.209 HD
ENDBRANCH  23  24
ENDBRANCH  19  23
BRANCH  20  26
HETATM   26  O   UNK N   1      31.123  44.039  58.578  0.00  0.00    -0.390 OA
HETATM   27  H   UNK N   1      32.076  43.766  58.645  0.00  0.00     0.210 HD
ENDBRANCH  20  26
BRANCH  21  28
HETATM   28  O   UNK N   1      32.385  44.127  56.040  0.00  0.00    -0.390 OA
HETATM   29  H   UNK N   1      32.598  44.668  56.843  0.00  0.00     0.210 HD
ENDBRANCH  21  28
BRANCH  22  30
HETATM   30  O   UNK N   1      32.147  41.759  54.492  0.00  0.00    -0.390 OA
HETATM   31  H   UNK N   1      32.412  42.492  53.877  0.00  0.00     0.210 HD
ENDBRANCH  22  30
ENDBRANCH  14  17
BRANCH   4  32
HETATM   32  O   UNK N   1      24.417  40.889  54.922  0.00  0.00    -0.360 OA
HETATM   33  H   UNK N   1      23.611  41.404  54.833  0.00  0.00     0.217 HD
ENDBRANCH   4  32
BRANCH   2  34
HETATM   34  O   UNK N   1      26.714  36.557  56.538  0.00  0.00    -0.357 OA
HETATM   35  H   UNK N   1      26.299  35.708  56.351  0.00  0.00     0.218 HD
ENDBRANCH   2  34
BRANCH   3  36
HETATM   36  O   UNK N   1      28.937  34.805  56.206  0.00  0.00    -0.358 OA
HETATM   37  H   UNK N   1      29.547  34.124  55.897  0.00  0.00     0.218 HD
ENDBRANCH   3  36
TORSDOF 9
ENDMDL
MODEL 8
REMARK VINA RESULT:      -4.9     21.152     24.040
REMARK  9 active torsions:
REMARK  status: ('A' for Active; 'I' for Inactive)
REMARK    1  A    between atoms: O_1  and  C_10 
REMARK    2  A    between atoms: O_2  and  C_11 
REMARK    3  A    between atoms: O_3  and  C_12 
REMARK    4  A    between atoms: O_5  and  C_23 
REMARK    5  A    between atoms: O_6  and  C_24 
REMARK    6  A    between atoms: O_7  and  C_25 
REMARK    7  A    between atoms: O_9  and  C_29 
REMARK    8  A    between atoms: C_22  and  C_27 
REMARK    9  A    between atoms: C_26  and  C_29 
ROOT
HETATM    1  O   UNK N   1      31.373  40.713  54.598  0.00  0.00    -0.286 OA
HETATM    2  C   UNK N   1      29.753  38.416  54.998  0.00  0.00     0.113 A 
HETATM    3  C   UNK N   1      28.843  37.349  55.217  0.00  0.00     0.099 A 
HETATM    4  C   UNK N   1      31.163  43.057  56.334  0.00  0.00     0.081 A 
HETATM    5  C   UNK N   1      28.824  42.341  56.565  0.00  0.00    -0.029 A 
HETATM    6  C   UNK N   1      28.129  39.980  55.948  0.00  0.00    -0.030 A 
HETATM    7  C   UNK N   1      29.396  39.737  55.382  0.00  0.00     0.058 A 
HETATM    8  C   UNK N   1      30.126  42.109  56.044  0.00  0.00     0.055 A 
HETATM    9  C   UNK N   1      29.602  44.390  57.636  0.00  0.00    -0.059 A 
HETATM   10  C   UNK N   1      30.880  44.171  57.126  0.00  0.00     0.044 A 
HETATM   11  C   UNK N   1      27.616  37.608  55.826  0.00  0.00     0.040 A 
HETATM   12  C   UNK N   1      28.579  43.486  57.346  0.00  0.00     0.015 A 
HETATM   13  C   UNK N   1      27.263  38.901  56.190  0.00  0.00     0.012 A 
HETATM   14  C   UNK N   1      27.662  41.392  56.272  0.00  0.00     0.085 C 
HETATM   15  C   UNK N   1      30.354  40.863  55.253  0.00  0.00     0.199 C 
HETATM   16  C   UNK N   1      29.348  45.592  58.498  0.00  0.00     0.048 C 
ENDROOT
BRANCH  14  17
HETATM   17  C   UNK N   1      26.764  42.013  55.134  0.00  0.00     0.166 C 
HETATM   18  O   UNK N   1      27.633  42.504  54.121  0.00  0.00    -0.372 OA
HETATM   19  C   UNK N   1      26.928  42.886  52.952  0.00  0.00     0.176 C 
HETATM   20  C   UNK N   1      26.037  44.110  53.261  0.00  0.00     0.180 C 
HETATM   21  C   UNK N   1      25.047  43.744  54.370  0.00  0.00     0.180 C 
HETATM   22  C   UNK N   1      25.804  43.167  55.582  0.00  0.00     0.179 C 
BRANCH  19  23
HETATM   23  C   UNK N   1      27.949  43.230  51.858  0.00  0.00     0.198 C 
BRANCH  23  24
HETATM   24  O   UNK N   1      27.404  43.003  50.586  0.00  0.00    -0.398 OA
HETATM   25  H   UNK N   1      27.372  43.882  50.127  0.00  0.00     0.209 HD
ENDBRANCH  23  24
ENDBRANCH  19  23
BRANCH  20  26
HETATM   26  O   UNK N   1      25.351  44.559  52.118  0.00  0.00    -0.390 OA
HETATM   27  H   UNK N   1      24.769  43.819  51.803  0.00  0.00     0.210 HD
ENDBRANCH  20  26
BRANCH  21  28
HETATM   28  O   UNK N   1      24.316  44.886  54.737  0.00  0.00    -0.390 OA
HETATM   29  H   UNK N   1      24.908  45.445  55.304  0.00  0.00     0.210 HD
ENDBRANCH  21  28
BRANCH  22  30
HETATM   30  O   UNK N   1      24.849  42.743  56.520  0.00  0.00    -0.390 OA
HETATM   31  H   UNK N   1      24.027  43.283  56.385  0.00  0.00     0.210 HD
ENDBRANCH  22  30
ENDBRANCH  14  17
BRANCH   4  32
HETATM   32  O   UNK N   1      32.441  42.928  55.906  0.00  0.00    -0.360 OA
HETATM   33  H   UNK N   1      33.237  43.156  56.393  0.00  0.00     0.217 HD
ENDBRANCH   4  32
BRANCH   2  34
HETATM   34  O   UNK N   1      30.973  38.197  54.449  0.00  0.00    -0.357 OA
HETATM   35  H   UNK N   1      31.680  37.692  54.865  0.00  0.00     0.218 HD
ENDBRANCH   2  34
BRANCH   3  36
HETATM   36  O   UNK N   1      29.118  36.074  54.867  0.00  0.00    -0.358 OA
HETATM   37  H   UNK N   1      30.004  35.692  54.847  0.00  0.00     0.218 HD
ENDBRANCH   3  36
TORSDOF 9
ENDMDL
MODEL 9
REMARK VINA RESULT:      -4.9     21.804     23.724
REMARK  9 active torsions:
REMARK  status: ('A' for Active; 'I' for Inactive)
REMARK    1  A    between atoms: O_1  and  C_10 
REMARK    2  A    between atoms: O_2  and  C_11 
REMARK    3  A    between atoms: O_3  and  C_12 
REMARK    4  A    between atoms: O_5  and  C_23 
REMARK    5  A    between atoms: O_6  and  C_24 
REMARK    6  A    between atoms: O_7  and  C_25 
REMARK    7  A    between atoms: O_9  and  C_29 
REMARK    8  A    between atoms: C_22  and  C_27 
REMARK    9  A    between atoms: C_26  and  C_29 
ROOT
HETATM    1  O   UNK N   1      31.320  41.959  53.691  0.00  0.00    -0.286 OA
HETATM    2  C   UNK N   1      31.370  42.683  56.436  0.00  0.00     0.113 A 
HETATM    3  C   UNK N   1      31.287  42.974  57.822  0.00  0.00     0.099 A 
HETATM    4  C   UNK N   1      28.841  41.997  52.142  0.00  0.00     0.081 A 
HETATM    5  C   UNK N   1      27.796  41.491  54.307  0.00  0.00    -0.029 A 
HETATM    6  C   UNK N   1      29.054  41.897  56.473  0.00  0.00    -0.030 A 
HETATM    7  C   UNK N   1      30.239  42.155  55.758  0.00  0.00     0.058 A 
HETATM    8  C   UNK N   1      28.964  41.794  53.556  0.00  0.00     0.055 A 
HETATM    9  C   UNK N   1      26.444  41.617  52.281  0.00  0.00    -0.059 A 
HETATM   10  C   UNK N   1      27.585  41.910  51.538  0.00  0.00     0.044 A 
HETATM   11  C   UNK N   1      30.087  42.758  58.498  0.00  0.00     0.040 A 
HETATM   12  C   UNK N   1      26.553  41.398  53.655  0.00  0.00     0.015 A 
HETATM   13  C   UNK N   1      28.985  42.231  57.836  0.00  0.00     0.012 A 
HETATM   14  C   UNK N   1      27.856  41.231  55.813  0.00  0.00     0.085 C 
HETATM   15  C   UNK N   1      30.258  41.923  54.291  0.00  0.00     0.199 C 
HETATM   16  C   UNK N   1      25.112  41.552  51.593  0.00  0.00     0.048 C 
ENDROOT
BRANCH  14  17
HETATM   17  C   UNK N   1      27.805  39.675  56.068  0.00  0.00     0.166 C 
HETATM   18  O   UNK N   1      27.083  39.461  57.274  0.00  0.00    -0.372 OA
HETATM   19  C   UNK N   1      26.789  38.090  57.483  0.00  0.00     0.176 C 
HETATM   20  C   UNK N   1      28.100  37.310  57.726  0.00  0.00     0.180 C 
HETATM   21  C   UNK N   1      29.011  37.466  56.506  0.00  0.00     0.180 C 
HETATM   22  C   UNK N   1      29.194  38.959  56.173  0.00  0.00     0.179 C 
BRANCH  19  23
HETATM   23  C   UNK N   1      25.863  37.972  58.703  0.00  0.00     0.198 C 
BRANCH  23  24
HETATM   24  O   UNK N   1      26.609  37.741  59.867  0.00  0.00    -0.398 OA
HETATM   25  H   UNK N   1      26.048  38.034  60.631  0.00  0.00     0.209 HD
ENDBRANCH  23  24
ENDBRANCH  19  23
BRANCH  20  26
HETATM   26  O   UNK N   1      27.858  35.949  57.989  0.00  0.00    -0.390 OA
HETATM   27  H   UNK N   1      28.641  35.433  57.662  0.00  0.00     0.210 HD
ENDBRANCH  20  26
BRANCH  21  28
HETATM   28  O   UNK N   1      30.251  36.859  56.770  0.00  0.00    -0.390 OA
HETATM   29  H   UNK N   1      30.078  36.083  57.362  0.00  0.00     0.210 HD
ENDBRANCH  21  28
BRANCH  22  30
HETATM   30  O   UNK N   1      29.939  39.045  54.986  0.00  0.00    -0.390 OA
HETATM   31  H   UNK N   1      30.561  38.272  54.959  0.00  0.00     0.210 HD
ENDBRANCH  22  30
ENDBRANCH  14  17
BRANCH   4  32
HETATM   32  O   UNK N   1      29.881  42.308  51.332  0.00  0.00    -0.360 OA
HETATM   33  H   UNK N   1      30.009  43.127  50.848  0.00  0.00     0.217 HD
ENDBRANCH   4  32
BRANCH   2  34
HETATM   34  O   UNK N   1      32.506  42.921  55.736  0.00  0.00    -0.357 OA
HETATM   35  H   UNK N   1      32.581  43.544  55.005  0.00  0.00     0.218 HD
ENDBRANCH   2  34
BRANCH   3  36
HETATM   36  O   UNK N   1      32.328  43.468  58.527  0.00  0.00    -0.358 OA
HETATM   37  H   UNK N   1      32.248  43.929  59.370  0.00  0.00     0.218 HD
ENDBRANCH   3  36
TORSDOF 9
ENDMDL
