MODEL 1
REMARK VINA RESULT:      -6.0      0.000      0.000
REMARK  5 active torsions:
REMARK  status: ('A' for Active; 'I' for Inactive)
REMARK    1  A    between atoms: O_1  and  C_8 
REMARK    2  A    between atoms: O_1  and  C_15 
REMARK    3  A    between atoms: O_2  and  C_10 
REMARK    4  A    between atoms: O_2  and  C_16 
REMARK    5  A    between atoms: O_3  and  C_9 
ROOT
HETATM    1  O   UNK N   1      47.115  32.583  56.247  0.00  0.00    -0.260 OA
HETATM    2  O   UNK N   1      47.325  32.721  53.994  0.00  0.00    -0.275 OA
HETATM    3  C   UNK N   1      48.441  32.922  48.753  0.00  0.00     0.173 C 
HETATM    4  C   UNK N   1      51.011  32.766  48.879  0.00  0.00     0.075 C 
HETATM    5  C   UNK N   1      48.504  32.416  47.287  0.00  0.00     0.163 C 
HETATM    6  C   UNK N   1      49.640  32.381  49.625  0.00  0.00     0.024 C 
HETATM    7  C   UNK N   1      49.681  33.060  51.066  0.00  0.00     0.029 C 
HETATM    8  C   UNK N   1      50.921  32.546  51.911  0.00  0.00     0.002 C 
HETATM    9  C   UNK N   1      50.960  33.199  53.331  0.00  0.00     0.022 C 
HETATM   10  C   UNK N   1      47.812  32.704  55.252  0.00  0.00     0.288 A 
HETATM   11  C   UNK N   1      48.396  32.868  53.186  0.00  0.00     0.083 A 
HETATM   12  C   UNK N   1      49.613  32.970  53.969  0.00  0.00    -0.014 A 
HETATM   13  C   UNK N   1      48.373  32.908  51.852  0.00  0.00     0.017 C 
HETATM   14  C   UNK N   1      51.086  32.317  47.344  0.00  0.00    -0.013 C 
HETATM   15  C   UNK N   1      52.207  32.211  49.721  0.00  0.00     0.040 C 
HETATM   16  C   UNK N   1      49.820  32.846  46.616  0.00  0.00     0.047 C 
HETATM   17  C   UNK N   1      52.230  32.802  51.137  0.00  0.00     0.009 C 
HETATM   18  C   UNK N   1      49.390  30.846  49.855  0.00  0.00     0.022 C 
HETATM   19  C   UNK N   1      52.105  32.682  54.221  0.00  0.00     0.015 C 
HETATM   20  C   UNK N   1      49.268  32.865  55.251  0.00  0.00     0.093 A 
HETATM   21  C   UNK N   1      52.309  32.964  46.628  0.00  0.00     0.018 C 
HETATM   22  C   UNK N   1      51.251  30.792  47.105  0.00  0.00     0.018 C 
ENDROOT
BRANCH   3  23
HETATM   23  O   UNK N   1      48.431  34.312  48.733  0.00  0.00    -0.313 OA
BRANCH  23  24
HETATM   24  C   UNK N   1      47.368  35.083  49.094  0.00  0.00     0.255 C 
HETATM   25  O   UNK N   1      47.447  36.304  49.091  0.00  0.00    -0.266 OA
HETATM   26  C   UNK N   1      46.106  34.424  49.542  0.00  0.00     0.126 C 
ENDBRANCH  23  24
ENDBRANCH   3  23
BRANCH   5  27
HETATM   27  O   UNK N   1      47.444  32.964  46.581  0.00  0.00    -0.314 OA
BRANCH  27  28
HETATM   28  C   UNK N   1      46.204  32.415  46.496  0.00  0.00     0.255 C 
HETATM   29  O   UNK N   1      46.015  31.238  46.771  0.00  0.00    -0.266 OA
HETATM   30  C   UNK N   1      45.061  33.270  46.057  0.00  0.00     0.126 C 
ENDBRANCH  27  28
ENDBRANCH   5  27
BRANCH   4  31
HETATM   31  O   UNK N   1      51.074  34.185  48.882  0.00  0.00    -0.388 OA
HETATM   32  H   UNK N   1      50.992  34.534  47.955  0.00  0.00     0.210 HD
ENDBRANCH   4  31
TORSDOF 5
ENDMDL
MODEL 2
REMARK VINA RESULT:      -5.4     20.313     24.020
REMARK  5 active torsions:
REMARK  status: ('A' for Active; 'I' for Inactive)
REMARK    1  A    between atoms: O_1  and  C_8 
REMARK    2  A    between atoms: O_1  and  C_15 
REMARK    3  A    between atoms: O_2  and  C_10 
REMARK    4  A    between atoms: O_2  and  C_16 
REMARK    5  A    between atoms: O_3  and  C_9 
ROOT
HETATM    1  O   UNK N   1      29.158  41.831  50.936  0.00  0.00    -0.260 OA
HETATM    2  O   UNK N   1      29.784  42.109  53.097  0.00  0.00    -0.275 OA
HETATM    3  C   UNK N   1      30.669  42.601  58.363  0.00  0.00     0.173 C 
HETATM    4  C   UNK N   1      28.256  42.284  59.211  0.00  0.00     0.075 C 
HETATM    5  C   UNK N   1      31.192  42.193  59.766  0.00  0.00     0.163 C 
HETATM    6  C   UNK N   1      29.281  41.932  58.024  0.00  0.00     0.024 C 
HETATM    7  C   UNK N   1      28.656  42.507  56.675  0.00  0.00     0.029 C 
HETATM    8  C   UNK N   1      27.238  41.864  56.376  0.00  0.00     0.002 C 
HETATM    9  C   UNK N   1      26.625  42.415  55.048  0.00  0.00     0.022 C 
HETATM   10  C   UNK N   1      28.871  41.978  52.113  0.00  0.00     0.288 A 
HETATM   11  C   UNK N   1      29.079  42.247  54.240  0.00  0.00     0.083 A 
HETATM   12  C   UNK N   1      27.655  42.223  53.963  0.00  0.00    -0.014 A 
HETATM   13  C   UNK N   1      29.590  42.379  55.466  0.00  0.00     0.017 C 
HETATM   14  C   UNK N   1      28.788  41.938  60.680  0.00  0.00    -0.013 C 
HETATM   15  C   UNK N   1      26.882  41.604  58.900  0.00  0.00     0.040 C 
HETATM   16  C   UNK N   1      30.187  42.590  60.861  0.00  0.00     0.047 C 
HETATM   17  C   UNK N   1      26.291  42.094  57.571  0.00  0.00     0.009 C 
HETATM   18  C   UNK N   1      29.551  40.402  57.780  0.00  0.00     0.022 C 
HETATM   19  C   UNK N   1      25.278  41.772  54.671  0.00  0.00     0.015 C 
HETATM   20  C   UNK N   1      27.510  42.052  52.650  0.00  0.00     0.093 A 
HETATM   21  C   UNK N   1      27.868  42.559  61.774  0.00  0.00     0.018 C 
HETATM   22  C   UNK N   1      28.847  40.425  61.026  0.00  0.00     0.018 C 
ENDROOT
BRANCH   3  23
HETATM   23  O   UNK N   1      30.574  43.987  58.320  0.00  0.00    -0.313 OA
BRANCH  23  24
HETATM   24  C   UNK N   1      31.333  44.790  57.524  0.00  0.00     0.255 C 
HETATM   25  O   UNK N   1      32.263  44.335  56.873  0.00  0.00    -0.266 OA
HETATM   26  C   UNK N   1      31.050  46.255  57.485  0.00  0.00     0.126 C 
ENDBRANCH  23  24
ENDBRANCH   3  23
BRANCH   5  27
HETATM   27  O   UNK N   1      32.390  42.850  60.002  0.00  0.00    -0.314 OA
BRANCH  27  28
HETATM   28  C   UNK N   1      33.606  42.422  59.572  0.00  0.00     0.255 C 
HETATM   29  O   UNK N   1      34.376  43.183  59.003  0.00  0.00    -0.266 OA
HETATM   30  C   UNK N   1      33.998  40.999  59.801  0.00  0.00     0.126 C 
ENDBRANCH  27  28
ENDBRANCH   5  27
BRANCH   4  31
HETATM   31  O   UNK N   1      28.082  43.693  59.174  0.00  0.00    -0.388 OA
HETATM   32  H   UNK N   1      28.867  44.125  58.744  0.00  0.00     0.210 HD
ENDBRANCH   4  31
TORSDOF 5
ENDMDL
MODEL 3
REMARK VINA RESULT:      -5.3     20.268     23.409
REMARK  5 active torsions:
REMARK  status: ('A' for Active; 'I' for Inactive)
REMARK    1  A    between atoms: O_1  and  C_8 
REMARK    2  A    between atoms: O_1  and  C_15 
REMARK    3  A    between atoms: O_2  and  C_10 
REMARK    4  A    between atoms: O_2  and  C_16 
REMARK    5  A    between atoms: O_3  and  C_9 
ROOT
HETATM    1  O   UNK N   1      38.754  45.719  63.956  0.00  0.00    -0.260 OA
HETATM    2  O   UNK N   1      36.872  45.141  62.830  0.00  0.00    -0.275 OA
HETATM    3  C   UNK N   1      32.133  43.762  60.736  0.00  0.00     0.173 C 
HETATM    4  C   UNK N   1      30.835  43.327  62.920  0.00  0.00     0.075 C 
HETATM    5  C   UNK N   1      30.781  43.974  60.001  0.00  0.00     0.163 C 
HETATM    6  C   UNK N   1      32.050  44.150  62.264  0.00  0.00     0.024 C 
HETATM    7  C   UNK N   1      33.374  43.745  63.052  0.00  0.00     0.029 C 
HETATM    8  C   UNK N   1      33.256  44.092  64.595  0.00  0.00     0.002 C 
HETATM    9  C   UNK N   1      34.557  43.709  65.372  0.00  0.00     0.022 C 
HETATM   10  C   UNK N   1      37.622  45.264  63.945  0.00  0.00     0.288 A 
HETATM   11  C   UNK N   1      35.700  44.606  63.229  0.00  0.00     0.083 A 
HETATM   12  C   UNK N   1      35.716  44.358  64.659  0.00  0.00    -0.014 A 
HETATM   13  C   UNK N   1      34.652  44.338  62.447  0.00  0.00     0.017 C 
HETATM   14  C   UNK N   1      29.438  43.467  62.151  0.00  0.00    -0.013 C 
HETATM   15  C   UNK N   1      30.726  43.722  64.430  0.00  0.00     0.040 C 
HETATM   16  C   UNK N   1      29.669  43.133  60.651  0.00  0.00     0.047 C 
HETATM   17  C   UNK N   1      32.016  43.402  65.198  0.00  0.00     0.009 C 
HETATM   18  C   UNK N   1      31.940  45.716  62.339  0.00  0.00     0.022 C 
HETATM   19  C   UNK N   1      34.524  44.089  66.864  0.00  0.00     0.015 C 
HETATM   20  C   UNK N   1      36.898  44.765  65.118  0.00  0.00     0.093 A 
HETATM   21  C   UNK N   1      28.398  42.434  62.678  0.00  0.00     0.018 C 
HETATM   22  C   UNK N   1      28.735  44.845  62.296  0.00  0.00     0.018 C 
ENDROOT
BRANCH   3  23
HETATM   23  O   UNK N   1      32.509  42.434  60.581  0.00  0.00    -0.313 OA
BRANCH  23  24
HETATM   24  C   UNK N   1      33.610  42.015  59.899  0.00  0.00     0.255 C 
HETATM   25  O   UNK N   1      33.932  40.835  59.885  0.00  0.00    -0.266 OA
HETATM   26  C   UNK N   1      34.460  43.022  59.198  0.00  0.00     0.126 C 
ENDBRANCH  23  24
ENDBRANCH   3  23
BRANCH   5  27
HETATM   27  O   UNK N   1      30.927  43.576  58.681  0.00  0.00    -0.314 OA
BRANCH  27  28
HETATM   28  C   UNK N   1      31.410  44.362  57.684  0.00  0.00     0.255 C 
HETATM   29  O   UNK N   1      32.135  43.900  56.813  0.00  0.00    -0.266 OA
HETATM   30  C   UNK N   1      31.046  45.810  57.659  0.00  0.00     0.126 C 
ENDBRANCH  27  28
ENDBRANCH   5  27
BRANCH   4  31
HETATM   31  O   UNK N   1      31.199  41.957  62.836  0.00  0.00    -0.388 OA
HETATM   32  H   UNK N   1      32.064  41.859  62.357  0.00  0.00     0.210 HD
ENDBRANCH   4  31
TORSDOF 5
ENDMDL
MODEL 4
REMARK VINA RESULT:      -5.2     20.585     23.648
REMARK  5 active torsions:
REMARK  status: ('A' for Active; 'I' for Inactive)
REMARK    1  A    between atoms: O_1  and  C_8 
REMARK    2  A    between atoms: O_1  and  C_15 
REMARK    3  A    between atoms: O_2  and  C_10 
REMARK    4  A    between atoms: O_2  and  C_16 
REMARK    5  A    between atoms: O_3  and  C_9 
ROOT
HETATM    1  O   UNK N   1      35.191  43.499  59.113  0.00  0.00    -0.260 OA
HETATM    2  O   UNK N   1      33.252  43.165  57.986  0.00  0.00    -0.275 OA
HETATM    3  C   UNK N   1      28.387  42.333  55.890  0.00  0.00     0.173 C 
HETATM    4  C   UNK N   1      27.097  41.802  58.058  0.00  0.00     0.075 C 
HETATM    5  C   UNK N   1      27.043  42.709  55.209  0.00  0.00     0.163 C 
HETATM    6  C   UNK N   1      28.360  42.588  57.448  0.00  0.00     0.024 C 
HETATM    7  C   UNK N   1      29.663  42.017  58.167  0.00  0.00     0.029 C 
HETATM    8  C   UNK N   1      29.597  42.232  59.736  0.00  0.00     0.002 C 
HETATM    9  C   UNK N   1      30.878  41.687  60.446  0.00  0.00     0.022 C 
HETATM   10  C   UNK N   1      34.028  43.131  59.090  0.00  0.00     0.288 A 
HETATM   11  C   UNK N   1      32.050  42.684  58.364  0.00  0.00     0.083 A 
HETATM   12  C   UNK N   1      32.071  42.309  59.766  0.00  0.00    -0.014 A 
HETATM   13  C   UNK N   1      30.972  42.565  57.586  0.00  0.00     0.017 C 
HETATM   14  C   UNK N   1      25.702  42.114  57.337  0.00  0.00    -0.013 C 
HETATM   15  C   UNK N   1      27.044  42.068  59.598  0.00  0.00     0.040 C 
HETATM   16  C   UNK N   1      25.882  41.898  55.809  0.00  0.00     0.047 C 
HETATM   17  C   UNK N   1      28.319  41.585  60.305  0.00  0.00     0.009 C 
HETATM   18  C   UNK N   1      28.370  44.145  57.663  0.00  0.00     0.022 C 
HETATM   19  C   UNK N   1      30.899  41.933  61.966  0.00  0.00     0.015 C 
HETATM   20  C   UNK N   1      33.288  42.585  60.230  0.00  0.00     0.093 A 
HETATM   21  C   UNK N   1      24.596  41.117  57.796  0.00  0.00     0.018 C 
HETATM   22  C   UNK N   1      25.108  43.521  57.620  0.00  0.00     0.018 C 
ENDROOT
BRANCH   3  23
HETATM   23  O   UNK N   1      28.659  41.000  55.611  0.00  0.00    -0.313 OA
BRANCH  23  24
HETATM   24  C   UNK N   1      29.732  40.561  54.897  0.00  0.00     0.255 C 
HETATM   25  O   UNK N   1      29.994  39.368  54.821  0.00  0.00    -0.266 OA
HETATM   26  C   UNK N   1      30.625  41.558  54.236  0.00  0.00     0.126 C 
ENDBRANCH  23  24
ENDBRANCH   3  23
BRANCH   5  27
HETATM   27  O   UNK N   1      27.136  42.421  53.856  0.00  0.00    -0.314 OA
BRANCH  27  28
HETATM   28  C   UNK N   1      27.191  43.352  52.868  0.00  0.00     0.255 C 
HETATM   29  O   UNK N   1      26.303  44.183  52.736  0.00  0.00    -0.266 OA
HETATM   30  C   UNK N   1      28.356  43.351  51.934  0.00  0.00     0.126 C 
ENDBRANCH  27  28
ENDBRANCH   5  27
BRANCH   4  31
HETATM   31  O   UNK N   1      27.355  40.422  57.845  0.00  0.00    -0.388 OA
HETATM   32  H   UNK N   1      28.218  40.164  58.264  0.00  0.00     0.210 HD
ENDBRANCH   4  31
TORSDOF 5
ENDMDL
MODEL 5
REMARK VINA RESULT:      -5.0     21.361     23.984
REMARK  5 active torsions:
REMARK  status: ('A' for Active; 'I' for Inactive)
REMARK    1  A    between atoms: O_1  and  C_8 
REMARK    2  A    between atoms: O_1  and  C_15 
REMARK    3  A    between atoms: O_2  and  C_10 
REMARK    4  A    between atoms: O_2  and  C_16 
REMARK    5  A    between atoms: O_3  and  C_9 
ROOT
HETATM    1  O   UNK N   1      42.286  57.881  64.308  0.00  0.00    -0.260 OA
HETATM    2  O   UNK N   1      42.981  55.730  64.133  0.00  0.00    -0.275 OA
HETATM    3  C   UNK N   1      45.052  50.855  63.296  0.00  0.00     0.173 C 
HETATM    4  C   UNK N   1      46.631  51.416  61.336  0.00  0.00     0.075 C 
HETATM    5  C   UNK N   1      45.912  49.598  63.599  0.00  0.00     0.163 C 
HETATM    6  C   UNK N   1      45.898  52.013  62.637  0.00  0.00     0.024 C 
HETATM    7  C   UNK N   1      44.977  53.218  62.147  0.00  0.00     0.029 C 
HETATM    8  C   UNK N   1      45.834  54.349  61.440  0.00  0.00     0.002 C 
HETATM    9  C   UNK N   1      44.938  55.540  60.968  0.00  0.00     0.022 C 
HETATM   10  C   UNK N   1      42.899  57.009  63.713  0.00  0.00     0.288 A 
HETATM   11  C   UNK N   1      43.737  55.088  63.217  0.00  0.00     0.083 A 
HETATM   12  C   UNK N   1      44.134  55.998  62.158  0.00  0.00    -0.014 A 
HETATM   13  C   UNK N   1      44.094  53.802  63.255  0.00  0.00     0.017 C 
HETATM   14  C   UNK N   1      47.474  50.080  61.598  0.00  0.00    -0.013 C 
HETATM   15  C   UNK N   1      47.494  52.548  60.689  0.00  0.00     0.040 C 
HETATM   16  C   UNK N   1      46.555  49.052  62.313  0.00  0.00     0.047 C 
HETATM   17  C   UNK N   1      46.636  53.749  60.267  0.00  0.00     0.009 C 
HETATM   18  C   UNK N   1      46.842  52.591  63.753  0.00  0.00     0.022 C 
HETATM   19  C   UNK N   1      45.729  56.700  60.337  0.00  0.00     0.015 C 
HETATM   20  C   UNK N   1      43.627  57.193  62.454  0.00  0.00     0.093 A 
HETATM   21  C   UNK N   1      47.914  49.420  60.256  0.00  0.00     0.018 C 
HETATM   22  C   UNK N   1      48.794  50.273  62.394  0.00  0.00     0.018 C 
ENDROOT
BRANCH   3  23
HETATM   23  O   UNK N   1      44.003  50.475  62.468  0.00  0.00    -0.313 OA
BRANCH  23  24
HETATM   24  C   UNK N   1      42.685  50.636  62.766  0.00  0.00     0.255 C 
HETATM   25  O   UNK N   1      41.865  50.871  61.889  0.00  0.00    -0.266 OA
HETATM   26  C   UNK N   1      42.245  50.568  64.191  0.00  0.00     0.126 C 
ENDBRANCH  23  24
ENDBRANCH   3  23
BRANCH   5  27
HETATM   27  O   UNK N   1      45.092  48.619  64.138  0.00  0.00    -0.314 OA
BRANCH  27  28
HETATM   28  C   UNK N   1      44.975  48.350  65.464  0.00  0.00     0.255 C 
HETATM   29  O   UNK N   1      44.090  47.615  65.883  0.00  0.00    -0.266 OA
HETATM   30  C   UNK N   1      45.944  48.965  66.419  0.00  0.00     0.126 C 
ENDBRANCH  27  28
ENDBRANCH   5  27
BRANCH   4  31
HETATM   31  O   UNK N   1      45.595  51.061  60.432  0.00  0.00    -0.388 OA
HETATM   32  H   UNK N   1      45.087  50.281  60.779  0.00  0.00     0.210 HD
ENDBRANCH   4  31
TORSDOF 5
ENDMDL
MODEL 6
REMARK VINA RESULT:      -4.8     21.676     24.894
REMARK  5 active torsions:
REMARK  status: ('A' for Active; 'I' for Inactive)
REMARK    1  A    between atoms: O_1  and  C_8 
REMARK    2  A    between atoms: O_1  and  C_15 
REMARK    3  A    between atoms: O_2  and  C_10 
REMARK    4  A    between atoms: O_2  and  C_16 
REMARK    5  A    between atoms: O_3  and  C_9 
ROOT
HETATM    1  O   UNK N   1      30.912  50.517  56.136  0.00  0.00    -0.260 OA
HETATM    2  O   UNK N   1      30.657  48.292  56.491  0.00  0.00    -0.275 OA
HETATM    3  C   UNK N   1      29.686  43.189  57.823  0.00  0.00     0.173 C 
HETATM    4  C   UNK N   1      28.444  43.580  60.048  0.00  0.00     0.075 C 
HETATM    5  C   UNK N   1      29.020  41.790  57.723  0.00  0.00     0.163 C 
HETATM    6  C   UNK N   1      28.793  44.222  58.615  0.00  0.00     0.024 C 
HETATM    7  C   UNK N   1      29.563  45.590  58.886  0.00  0.00     0.029 C 
HETATM    8  C   UNK N   1      28.673  46.596  59.728  0.00  0.00     0.002 C 
HETATM    9  C   UNK N   1      29.417  47.946  59.986  0.00  0.00     0.022 C 
HETATM   10  C   UNK N   1      30.591  49.588  56.860  0.00  0.00     0.288 A 
HETATM   11  C   UNK N   1      30.220  47.582  57.552  0.00  0.00     0.083 A 
HETATM   12  C   UNK N   1      29.881  48.468  58.650  0.00  0.00    -0.014 A 
HETATM   13  C   UNK N   1      30.096  46.254  57.611  0.00  0.00     0.017 C 
HETATM   14  C   UNK N   1      27.817  42.109  59.988  0.00  0.00    -0.013 C 
HETATM   15  C   UNK N   1      27.536  44.583  60.833  0.00  0.00     0.040 C 
HETATM   16  C   UNK N   1      28.747  41.214  59.123  0.00  0.00     0.047 C 
HETATM   17  C   UNK N   1      28.233  45.934  61.049  0.00  0.00     0.009 C 
HETATM   18  C   UNK N   1      27.563  44.568  57.700  0.00  0.00     0.022 C 
HETATM   19  C   UNK N   1      28.571  48.988  60.741  0.00  0.00     0.015 C 
HETATM   20  C   UNK N   1      30.101  49.714  58.235  0.00  0.00     0.093 A 
HETATM   21  C   UNK N   1      27.770  41.458  61.403  0.00  0.00     0.018 C 
HETATM   22  C   UNK N   1      26.355  42.030  59.469  0.00  0.00     0.018 C 
ENDROOT
BRANCH   3  23
HETATM   23  O   UNK N   1      30.926  43.039  58.431  0.00  0.00    -0.313 OA
BRANCH  23  24
HETATM   24  C   UNK N   1      32.122  43.205  57.801  0.00  0.00     0.255 C 
HETATM   25  O   UNK N   1      32.175  43.436  56.601  0.00  0.00    -0.266 OA
HETATM   26  C   UNK N   1      33.385  43.058  58.583  0.00  0.00     0.126 C 
ENDBRANCH  23  24
ENDBRANCH   3  23
BRANCH   5  27
HETATM   27  O   UNK N   1      29.881  40.936  57.050  0.00  0.00    -0.314 OA
BRANCH  27  28
HETATM   28  C   UNK N   1      29.681  40.469  55.791  0.00  0.00     0.255 C 
HETATM   29  O   UNK N   1      29.040  39.445  55.593  0.00  0.00    -0.266 OA
HETATM   30  C   UNK N   1      30.255  41.222  54.636  0.00  0.00     0.126 C 
ENDBRANCH  27  28
ENDBRANCH   5  27
BRANCH   4  31
HETATM   31  O   UNK N   1      29.682  43.457  60.733  0.00  0.00    -0.388 OA
HETATM   32  H   UNK N   1      29.528  43.173  61.673  0.00  0.00     0.210 HD
ENDBRANCH   4  31
TORSDOF 5
ENDMDL
MODEL 7
REMARK VINA RESULT:      -4.7     19.668     22.797
REMARK  5 active torsions:
REMARK  status: ('A' for Active; 'I' for Inactive)
REMARK    1  A    between atoms: O_1  and  C_8 
REMARK    2  A    between atoms: O_1  and  C_15 
REMARK    3  A    between atoms: O_2  and  C_10 
REMARK    4  A    between atoms: O_2  and  C_16 
REMARK    5  A    between atoms: O_3  and  C_9 
ROOT
HETATM    1  O   UNK N   1      33.061  43.545  61.087  0.00  0.00    -0.260 OA
HETATM    2  O   UNK N   1      32.043  42.150  59.617  0.00  0.00    -0.275 OA
HETATM    3  C   UNK N   1      29.295  39.358  55.955  0.00  0.00     0.173 C 
HETATM    4  C   UNK N   1      27.583  41.160  55.273  0.00  0.00     0.075 C 
HETATM    5  C   UNK N   1      29.044  38.638  54.602  0.00  0.00     0.163 C 
HETATM    6  C   UNK N   1      29.060  40.916  55.857  0.00  0.00     0.024 C 
HETATM    7  C   UNK N   1      29.124  41.619  57.285  0.00  0.00     0.029 C 
HETATM    8  C   UNK N   1      28.834  43.174  57.177  0.00  0.00     0.002 C 
HETATM    9  C   UNK N   1      28.908  43.871  58.574  0.00  0.00     0.022 C 
HETATM   10  C   UNK N   1      32.140  43.294  60.325  0.00  0.00     0.288 A 
HETATM   11  C   UNK N   1      30.902  42.253  58.903  0.00  0.00     0.083 A 
HETATM   12  C   UNK N   1      30.237  43.511  59.188  0.00  0.00    -0.014 A 
HETATM   13  C   UNK N   1      30.431  41.349  58.041  0.00  0.00     0.017 C 
HETATM   14  C   UNK N   1      27.264  40.380  53.911  0.00  0.00    -0.013 C 
HETATM   15  C   UNK N   1      27.347  42.701  55.145  0.00  0.00     0.040 C 
HETATM   16  C   UNK N   1      27.605  38.878  54.115  0.00  0.00     0.047 C 
HETATM   17  C   UNK N   1      27.468  43.410  56.501  0.00  0.00     0.009 C 
HETATM   18  C   UNK N   1      30.242  41.510  55.007  0.00  0.00     0.022 C 
HETATM   19  C   UNK N   1      28.703  45.396  58.518  0.00  0.00     0.015 C 
HETATM   20  C   UNK N   1      30.994  44.169  60.064  0.00  0.00     0.093 A 
HETATM   21  C   UNK N   1      25.745  40.444  53.568  0.00  0.00     0.018 C 
HETATM   22  C   UNK N   1      27.978  40.931  52.647  0.00  0.00     0.018 C 
ENDROOT
BRANCH   3  23
HETATM   23  O   UNK N   1      28.462  38.791  56.911  0.00  0.00    -0.313 OA
BRANCH  23  24
HETATM   24  C   UNK N   1      28.844  37.834  57.801  0.00  0.00     0.255 C 
HETATM   25  O   UNK N   1      28.097  36.909  58.091  0.00  0.00    -0.266 OA
HETATM   26  C   UNK N   1      30.176  37.945  58.465  0.00  0.00     0.126 C 
ENDBRANCH  23  24
ENDBRANCH   3  23
BRANCH   5  27
HETATM   27  O   UNK N   1      29.233  37.277  54.782  0.00  0.00    -0.314 OA
BRANCH  27  28
HETATM   28  C   UNK N   1      30.442  36.657  54.793  0.00  0.00     0.255 C 
HETATM   29  O   UNK N   1      31.373  37.080  54.121  0.00  0.00    -0.266 OA
HETATM   30  C   UNK N   1      30.628  35.442  55.642  0.00  0.00     0.126 C 
ENDBRANCH  27  28
ENDBRANCH   5  27
BRANCH   4  31
HETATM   31  O   UNK N   1      26.686  40.643  56.245  0.00  0.00    -0.388 OA
HETATM   32  H   UNK N   1      26.018  41.332  56.499  0.00  0.00     0.210 HD
ENDBRANCH   4  31
TORSDOF 5
ENDMDL
MODEL 8
REMARK VINA RESULT:      -4.6     20.572     23.671
REMARK  5 active torsions:
REMARK  status: ('A' for Active; 'I' for Inactive)
REMARK    1  A    between atoms: O_1  and  C_8 
REMARK    2  A    between atoms: O_1  and  C_15 
REMARK    3  A    between atoms: O_2  and  C_10 
REMARK    4  A    between atoms: O_2  and  C_16 
REMARK    5  A    between atoms: O_3  and  C_9 
ROOT
HETATM    1  O   UNK N   1      28.694  35.632  54.372  0.00  0.00    -0.260 OA
HETATM    2  O   UNK N   1      29.397  37.553  55.350  0.00  0.00    -0.275 OA
HETATM    3  C   UNK N   1      30.448  42.206  57.800  0.00  0.00     0.173 C 
HETATM    4  C   UNK N   1      28.031  43.020  58.177  0.00  0.00     0.075 C 
HETATM    5  C   UNK N   1      30.918  43.140  58.947  0.00  0.00     0.163 C 
HETATM    6  C   UNK N   1      28.959  41.720  57.996  0.00  0.00     0.024 C 
HETATM    7  C   UNK N   1      28.418  40.928  56.723  0.00  0.00     0.029 C 
HETATM    8  C   UNK N   1      26.906  40.493  56.914  0.00  0.00     0.002 C 
HETATM    9  C   UNK N   1      26.373  39.704  55.674  0.00  0.00     0.022 C 
HETATM   10  C   UNK N   1      28.457  36.742  54.822  0.00  0.00     0.288 A 
HETATM   11  C   UNK N   1      28.747  38.672  55.732  0.00  0.00     0.083 A 
HETATM   12  C   UNK N   1      27.335  38.573  55.412  0.00  0.00    -0.014 A 
HETATM   13  C   UNK N   1      29.294  39.733  56.329  0.00  0.00     0.017 C 
HETATM   14  C   UNK N   1      28.523  44.042  59.307  0.00  0.00    -0.013 C 
HETATM   15  C   UNK N   1      26.556  42.551  58.399  0.00  0.00     0.040 C 
HETATM   16  C   UNK N   1      30.016  44.382  59.045  0.00  0.00     0.047 C 
HETATM   17  C   UNK N   1      26.034  41.729  57.212  0.00  0.00     0.009 C 
HETATM   18  C   UNK N   1      28.958  40.703  59.195  0.00  0.00     0.022 C 
HETATM   19  C   UNK N   1      24.929  39.195  55.835  0.00  0.00     0.015 C 
HETATM   20  C   UNK N   1      27.139  37.381  54.852  0.00  0.00     0.093 A 
HETATM   21  C   UNK N   1      27.743  45.388  59.228  0.00  0.00     0.018 C 
HETATM   22  C   UNK N   1      28.327  43.558  60.770  0.00  0.00     0.018 C 
ENDROOT
BRANCH   3  23
HETATM   23  O   UNK N   1      30.592  42.886  56.597  0.00  0.00    -0.313 OA
BRANCH  23  24
HETATM   24  C   UNK N   1      31.503  42.574  55.635  0.00  0.00     0.255 C 
HETATM   25  O   UNK N   1      32.669  42.936  55.730  0.00  0.00    -0.266 OA
HETATM   26  C   UNK N   1      31.060  41.818  54.427  0.00  0.00     0.126 C 
ENDBRANCH  23  24
ENDBRANCH   3  23
BRANCH   5  27
HETATM   27  O   UNK N   1      32.215  43.551  58.681  0.00  0.00    -0.314 OA
BRANCH  27  28
HETATM   28  C   UNK N   1      33.331  42.989  59.213  0.00  0.00     0.255 C 
HETATM   29  O   UNK N   1      34.445  43.291  58.807  0.00  0.00    -0.266 OA
HETATM   30  C   UNK N   1      33.186  41.986  60.311  0.00  0.00     0.126 C 
ENDBRANCH  27  28
ENDBRANCH   5  27
BRANCH   4  31
HETATM   31  O   UNK N   1      28.102  43.726  56.946  0.00  0.00    -0.388 OA
HETATM   32  H   UNK N   1      28.618  44.567  57.062  0.00  0.00     0.210 HD
ENDBRANCH   4  31
TORSDOF 5
ENDMDL
MODEL 9
REMARK VINA RESULT:      -4.6     27.478     31.274
REMARK  5 active torsions:
REMARK  status: ('A' for Active; 'I' for Inactive)
REMARK    1  A    between atoms: O_1  and  C_8 
REMARK    2  A    between atoms: O_1  and  C_15 
REMARK    3  A    between atoms: O_2  and  C_10 
REMARK    4  A    between atoms: O_2  and  C_16 
REMARK    5  A    between atoms: O_3  and  C_9 
ROOT
HETATM    1  O   UNK N   1      33.221  55.526  45.662  0.00  0.00    -0.260 OA
HETATM    2  O   UNK N   1      31.712  55.736  43.983  0.00  0.00    -0.275 OA
HETATM    3  C   UNK N   1      28.155  55.596  39.973  0.00  0.00     0.173 C 
HETATM    4  C   UNK N   1      28.286  53.085  39.402  0.00  0.00     0.075 C 
HETATM    5  C   UNK N   1      26.755  55.652  39.304  0.00  0.00     0.163 C 
HETATM    6  C   UNK N   1      28.475  54.171  40.572  0.00  0.00     0.024 C 
HETATM    7  C   UNK N   1      29.983  54.063  41.077  0.00  0.00     0.029 C 
HETATM    8  C   UNK N   1      30.305  52.611  41.627  0.00  0.00     0.002 C 
HETATM    9  C   UNK N   1      31.779  52.502  42.135  0.00  0.00     0.022 C 
HETATM   10  C   UNK N   1      32.632  55.059  44.701  0.00  0.00     0.288 A 
HETATM   11  C   UNK N   1      31.296  54.887  43.020  0.00  0.00     0.083 A 
HETATM   12  C   UNK N   1      32.000  53.622  43.120  0.00  0.00    -0.014 A 
HETATM   13  C   UNK N   1      30.365  55.141  42.098  0.00  0.00     0.017 C 
HETATM   14  C   UNK N   1      26.878  53.156  38.644  0.00  0.00    -0.013 C 
HETATM   15  C   UNK N   1      28.575  51.665  39.991  0.00  0.00     0.040 C 
HETATM   16  C   UNK N   1      26.649  54.618  38.170  0.00  0.00     0.047 C 
HETATM   17  C   UNK N   1      30.003  51.557  40.543  0.00  0.00     0.009 C 
HETATM   18  C   UNK N   1      27.561  53.985  41.837  0.00  0.00     0.022 C 
HETATM   19  C   UNK N   1      32.125  51.132  42.746  0.00  0.00     0.015 C 
HETATM   20  C   UNK N   1      32.827  53.711  44.160  0.00  0.00     0.093 A 
HETATM   21  C   UNK N   1      26.883  52.272  37.361  0.00  0.00     0.018 C 
HETATM   22  C   UNK N   1      25.657  52.655  39.463  0.00  0.00     0.018 C 
ENDROOT
BRANCH   3  23
HETATM   23  O   UNK N   1      29.105  55.959  39.025  0.00  0.00    -0.313 OA
BRANCH  23  24
HETATM   24  C   UNK N   1      29.642  57.204  38.906  0.00  0.00     0.255 C 
HETATM   25  O   UNK N   1      30.208  57.739  39.851  0.00  0.00    -0.266 OA
HETATM   26  C   UNK N   1      29.498  57.941  37.617  0.00  0.00     0.126 C 
ENDBRANCH  23  24
ENDBRANCH   3  23
BRANCH   5  27
HETATM   27  O   UNK N   1      26.568  56.918  38.772  0.00  0.00    -0.314 OA
BRANCH  27  28
HETATM   28  C   UNK N   1      25.897  57.926  39.388  0.00  0.00     0.255 C 
HETATM   29  O   UNK N   1      24.698  58.086  39.211  0.00  0.00    -0.266 OA
HETATM   30  C   UNK N   1      26.646  58.850  40.292  0.00  0.00     0.126 C 
ENDBRANCH  27  28
ENDBRANCH   5  27
BRANCH   4  31
HETATM   31  O   UNK N   1      29.276  53.383  38.428  0.00  0.00    -0.388 OA
HETATM   32  H   UNK N   1      29.291  54.358  38.239  0.00  0.00     0.210 HD
ENDBRANCH   4  31
TORSDOF 5
ENDMDL
