MODEL 1
REMARK VINA RESULT:      -6.0      0.000      0.000
REMARK  4 active torsions:
REMARK  status: ('A' for Active; 'I' for Inactive)
REMARK    1  A    between atoms: O_1  and  C_6 
REMARK    2  A    between atoms: O_2  and  C_7 
REMARK    3  A    between atoms: O_3  and  C_8 
REMARK    4  A    between atoms: O_4  and  C_9 
ROOT
HETATM    1  N   UNK N   1      50.617  32.526  46.924  0.00  0.00    -0.355 N 
HETATM    2  C   UNK N   1      47.635  33.325  48.962  0.00  0.00     0.114 A 
HETATM    3  C   UNK N   1      46.235  33.141  48.898  0.00  0.00     0.102 A 
HETATM    4  C   UNK N   1      51.404  30.731  42.446  0.00  0.00     0.102 A 
HETATM    5  C   UNK N   1      52.748  30.483  42.775  0.00  0.00     0.102 A 
HETATM    6  C   UNK N   1      50.050  31.948  45.808  0.00  0.00     0.046 A 
HETATM    7  C   UNK N   1      49.841  32.971  47.956  0.00  0.00     0.106 A 
HETATM    8  C   UNK N   1      48.445  32.852  47.909  0.00  0.00     0.026 A 
HETATM    9  C   UNK N   1      47.848  32.257  46.778  0.00  0.00    -0.020 A 
HETATM   10  C   UNK N   1      50.949  31.429  44.735  0.00  0.00    -0.000 A 
HETATM   11  C   UNK N   1      52.300  31.200  45.060  0.00  0.00    -0.041 A 
HETATM   12  C   UNK N   1      50.509  31.188  43.421  0.00  0.00     0.054 A 
HETATM   13  C   UNK N   1      53.190  30.731  44.089  0.00  0.00     0.047 A 
HETATM   14  C   UNK N   1      45.659  32.540  47.776  0.00  0.00     0.040 A 
HETATM   15  C   UNK N   1      48.652  31.815  45.727  0.00  0.00     0.043 A 
HETATM   16  C   UNK N   1      46.456  32.110  46.717  0.00  0.00     0.015 A 
HETATM   17  C   UNK N   1      52.081  32.701  46.989  0.00  0.00     0.133 C 
HETATM   18  C   UNK N   1      52.770  31.442  46.474  0.00  0.00     0.060 C 
ENDROOT
BRANCH   2  19
HETATM   19  O   UNK N   1      48.218  33.954  50.015  0.00  0.00    -0.352 OA
HETATM   20  C   UNK N   1      48.487  33.313  51.209  0.00  0.00     0.210 C 
ENDBRANCH   2  19
BRANCH   3  21
HETATM   21  O   UNK N   1      45.441  33.512  49.925  0.00  0.00    -0.353 OA
HETATM   22  C   UNK N   1      44.923  34.789  49.989  0.00  0.00     0.210 C 
ENDBRANCH   3  21
BRANCH   4  23
HETATM   23  O   UNK N   1      50.968  30.540  41.182  0.00  0.00    -0.353 OA
HETATM   24  C   UNK N   1      50.750  31.612  40.343  0.00  0.00     0.210 C 
ENDBRANCH   4  23
BRANCH   5  25
HETATM   25  O   UNK N   1      53.583  30.006  41.815  0.00  0.00    -0.353 OA
HETATM   26  C   UNK N   1      54.447  30.782  41.066  0.00  0.00     0.210 C 
ENDBRANCH   5  25
TORSDOF 4
ENDMDL
MODEL 2
REMARK VINA RESULT:      -5.7     16.046     19.033
REMARK  4 active torsions:
REMARK  status: ('A' for Active; 'I' for Inactive)
REMARK    1  A    between atoms: O_1  and  C_6 
REMARK    2  A    between atoms: O_2  and  C_7 
REMARK    3  A    between atoms: O_3  and  C_8 
REMARK    4  A    between atoms: O_4  and  C_9 
ROOT
HETATM    1  N   UNK N   1      38.970  46.249  46.945  0.00  0.00    -0.355 N 
HETATM    2  C   UNK N   1      39.057  48.817  44.284  0.00  0.00     0.114 A 
HETATM    3  C   UNK N   1      39.923  49.838  43.833  0.00  0.00     0.102 A 
HETATM    4  C   UNK N   1      41.693  45.193  50.864  0.00  0.00     0.102 A 
HETATM    5  C   UNK N   1      41.087  43.928  50.952  0.00  0.00     0.102 A 
HETATM    6  C   UNK N   1      40.132  46.519  47.636  0.00  0.00     0.046 A 
HETATM    7  C   UNK N   1      38.616  46.986  45.851  0.00  0.00     0.106 A 
HETATM    8  C   UNK N   1      39.425  48.040  45.401  0.00  0.00     0.026 A 
HETATM    9  C   UNK N   1      40.620  48.326  46.093  0.00  0.00    -0.020 A 
HETATM   10  C   UNK N   1      40.498  45.646  48.791  0.00  0.00    -0.000 A 
HETATM   11  C   UNK N   1      39.875  44.387  48.889  0.00  0.00    -0.041 A 
HETATM   12  C   UNK N   1      41.411  46.040  49.786  0.00  0.00     0.054 A 
HETATM   13  C   UNK N   1      40.168  43.536  49.959  0.00  0.00     0.047 A 
HETATM   14  C   UNK N   1      41.110  50.104  44.522  0.00  0.00     0.040 A 
HETATM   15  C   UNK N   1      40.965  47.571  47.214  0.00  0.00     0.043 A 
HETATM   16  C   UNK N   1      41.453  49.362  45.651  0.00  0.00     0.015 A 
HETATM   17  C   UNK N   1      38.077  45.171  47.414  0.00  0.00     0.133 C 
HETATM   18  C   UNK N   1      38.908  43.957  47.813  0.00  0.00     0.060 C 
ENDROOT
BRANCH   2  19
HETATM   19  O   UNK N   1      37.872  48.572  43.667  0.00  0.00    -0.352 OA
HETATM   20  C   UNK N   1      36.987  49.578  43.329  0.00  0.00     0.210 C 
ENDBRANCH   2  19
BRANCH   3  21
HETATM   21  O   UNK N   1      39.638  50.547  42.720  0.00  0.00    -0.353 OA
HETATM   22  C   UNK N   1      39.914  51.897  42.656  0.00  0.00     0.210 C 
ENDBRANCH   3  21
BRANCH   4  23
HETATM   23  O   UNK N   1      42.545  45.606  51.827  0.00  0.00    -0.353 OA
HETATM   24  C   UNK N   1      42.083  45.936  53.083  0.00  0.00     0.210 C 
ENDBRANCH   4  23
BRANCH   5  25
HETATM   25  O   UNK N   1      41.410  43.114  51.992  0.00  0.00    -0.353 OA
HETATM   26  C   UNK N   1      40.625  42.920  53.113  0.00  0.00     0.210 C 
ENDBRANCH   5  25
TORSDOF 4
ENDMDL
MODEL 3
REMARK VINA RESULT:      -5.6     16.254     18.458
REMARK  4 active torsions:
REMARK  status: ('A' for Active; 'I' for Inactive)
REMARK    1  A    between atoms: O_1  and  C_6 
REMARK    2  A    between atoms: O_2  and  C_7 
REMARK    3  A    between atoms: O_3  and  C_8 
REMARK    4  A    between atoms: O_4  and  C_9 
ROOT
HETATM    1  N   UNK N   1      41.659  47.596  47.865  0.00  0.00    -0.355 N 
HETATM    2  C   UNK N   1      41.330  44.876  50.351  0.00  0.00     0.114 A 
HETATM    3  C   UNK N   1      40.447  43.811  50.637  0.00  0.00     0.102 A 
HETATM    4  C   UNK N   1      38.860  49.415  44.294  0.00  0.00     0.102 A 
HETATM    5  C   UNK N   1      39.969  50.096  43.764  0.00  0.00     0.102 A 
HETATM    6  C   UNK N   1      40.511  47.436  47.118  0.00  0.00     0.046 A 
HETATM    7  C   UNK N   1      41.936  46.766  48.913  0.00  0.00     0.106 A 
HETATM    8  C   UNK N   1      41.060  45.727  49.259  0.00  0.00     0.026 A 
HETATM    9  C   UNK N   1      39.884  45.544  48.502  0.00  0.00    -0.020 A 
HETATM   10  C   UNK N   1      40.285  48.338  45.949  0.00  0.00    -0.000 A 
HETATM   11  C   UNK N   1      41.394  49.034  45.431  0.00  0.00    -0.041 A 
HETATM   12  C   UNK N   1      39.018  48.534  45.369  0.00  0.00     0.054 A 
HETATM   13  C   UNK N   1      41.236  49.905  44.348  0.00  0.00     0.047 A 
HETATM   14  C   UNK N   1      39.291  43.635  49.870  0.00  0.00     0.040 A 
HETATM   15  C   UNK N   1      39.609  46.406  47.439  0.00  0.00     0.043 A 
HETATM   16  C   UNK N   1      39.004  44.501  48.816  0.00  0.00     0.015 A 
HETATM   17  C   UNK N   1      42.582  48.704  47.552  0.00  0.00     0.133 C 
HETATM   18  C   UNK N   1      42.756  48.812  46.041  0.00  0.00     0.060 C 
ENDROOT
BRANCH   2  19
HETATM   19  O   UNK N   1      42.432  45.104  51.111  0.00  0.00    -0.352 OA
HETATM   20  C   UNK N   1      42.360  45.622  52.390  0.00  0.00     0.210 C 
ENDBRANCH   2  19
BRANCH   3  21
HETATM   21  O   UNK N   1      40.718  42.933  51.625  0.00  0.00    -0.353 OA
HETATM   22  C   UNK N   1      40.033  42.985  52.821  0.00  0.00     0.210 C 
ENDBRANCH   3  21
BRANCH   4  23
HETATM   23  O   UNK N   1      37.629  49.616  43.776  0.00  0.00    -0.353 OA
HETATM   24  C   UNK N   1      37.151  48.814  42.762  0.00  0.00     0.210 C 
ENDBRANCH   4  23
BRANCH   5  25
HETATM   25  O   UNK N   1      39.788  50.918  42.696  0.00  0.00    -0.353 OA
HETATM   26  C   UNK N   1      39.992  52.285  42.711  0.00  0.00     0.210 C 
ENDBRANCH   5  25
TORSDOF 4
ENDMDL
MODEL 4
REMARK VINA RESULT:      -5.3     15.756     17.692
REMARK  4 active torsions:
REMARK  status: ('A' for Active; 'I' for Inactive)
REMARK    1  A    between atoms: O_1  and  C_6 
REMARK    2  A    between atoms: O_2  and  C_7 
REMARK    3  A    between atoms: O_3  and  C_8 
REMARK    4  A    between atoms: O_4  and  C_9 
ROOT
HETATM    1  N   UNK N   1      39.703  45.101  48.583  0.00  0.00    -0.355 N 
HETATM    2  C   UNK N   1      40.780  43.832  51.887  0.00  0.00     0.114 A 
HETATM    3  C   UNK N   1      41.700  44.181  52.901  0.00  0.00     0.102 A 
HETATM    4  C   UNK N   1      41.244  48.575  45.510  0.00  0.00     0.102 A 
HETATM    5  C   UNK N   1      40.030  48.501  44.806  0.00  0.00     0.102 A 
HETATM    6  C   UNK N   1      40.555  46.170  48.400  0.00  0.00     0.046 A 
HETATM    7  C   UNK N   1      39.765  44.340  49.715  0.00  0.00     0.106 A 
HETATM    8  C   UNK N   1      40.697  44.624  50.724  0.00  0.00     0.026 A 
HETATM    9  C   UNK N   1      41.573  45.717  50.555  0.00  0.00    -0.020 A 
HETATM   10  C   UNK N   1      40.407  47.002  47.168  0.00  0.00    -0.000 A 
HETATM   11  C   UNK N   1      39.197  46.911  46.454  0.00  0.00    -0.041 A 
HETATM   12  C   UNK N   1      41.427  47.842  46.687  0.00  0.00     0.054 A 
HETATM   13  C   UNK N   1      39.011  47.654  45.284  0.00  0.00     0.047 A 
HETATM   14  C   UNK N   1      42.553  45.274  52.726  0.00  0.00     0.040 A 
HETATM   15  C   UNK N   1      41.505  46.481  49.389  0.00  0.00     0.043 A 
HETATM   16  C   UNK N   1      42.500  46.032  51.557  0.00  0.00     0.015 A 
HETATM   17  C   UNK N   1      38.736  44.752  47.525  0.00  0.00     0.133 C 
HETATM   18  C   UNK N   1      38.095  46.022  46.979  0.00  0.00     0.060 C 
ENDROOT
BRANCH   2  19
HETATM   19  O   UNK N   1      39.976  42.744  52.007  0.00  0.00    -0.352 OA
HETATM   20  C   UNK N   1      39.120  42.564  53.077  0.00  0.00     0.210 C 
ENDBRANCH   2  19
BRANCH   3  21
HETATM   21  O   UNK N   1      41.748  43.490  54.060  0.00  0.00    -0.353 OA
HETATM   22  C   UNK N   1      42.438  42.299  54.141  0.00  0.00     0.210 C 
ENDBRANCH   3  21
BRANCH   4  23
HETATM   23  O   UNK N   1      42.251  49.348  45.046  0.00  0.00    -0.353 OA
HETATM   24  C   UNK N   1      43.475  49.367  45.680  0.00  0.00     0.210 C 
ENDBRANCH   4  23
BRANCH   5  25
HETATM   25  O   UNK N   1      39.871  49.253  43.685  0.00  0.00    -0.353 OA
HETATM   26  C   UNK N   1      38.683  49.393  42.993  0.00  0.00     0.210 C 
ENDBRANCH   5  25
TORSDOF 4
ENDMDL
MODEL 5
REMARK VINA RESULT:      -5.2     26.812     30.549
REMARK  4 active torsions:
REMARK  status: ('A' for Active; 'I' for Inactive)
REMARK    1  A    between atoms: O_1  and  C_6 
REMARK    2  A    between atoms: O_2  and  C_7 
REMARK    3  A    between atoms: O_3  and  C_8 
REMARK    4  A    between atoms: O_4  and  C_9 
ROOT
HETATM    1  N   UNK N   1      30.466  55.415  42.359  0.00  0.00    -0.355 N 
HETATM    2  C   UNK N   1      28.020  57.737  40.839  0.00  0.00     0.114 A 
HETATM    3  C   UNK N   1      26.930  57.680  39.941  0.00  0.00     0.102 A 
HETATM    4  C   UNK N   1      31.671  50.719  41.736  0.00  0.00     0.102 A 
HETATM    5  C   UNK N   1      32.369  50.729  42.956  0.00  0.00     0.102 A 
HETATM    6  C   UNK N   1      30.141  54.222  41.748  0.00  0.00     0.046 A 
HETATM    7  C   UNK N   1      29.779  56.560  42.075  0.00  0.00     0.106 A 
HETATM    8  C   UNK N   1      28.722  56.555  41.152  0.00  0.00     0.026 A 
HETATM    9  C   UNK N   1      28.373  55.343  40.522  0.00  0.00    -0.020 A 
HETATM   10  C   UNK N   1      30.889  52.990  42.137  0.00  0.00    -0.000 A 
HETATM   11  C   UNK N   1      31.604  53.009  43.350  0.00  0.00    -0.041 A 
HETATM   12  C   UNK N   1      30.927  51.834  41.336  0.00  0.00     0.054 A 
HETATM   13  C   UNK N   1      32.336  51.889  43.755  0.00  0.00     0.047 A 
HETATM   14  C   UNK N   1      26.587  56.469  39.333  0.00  0.00     0.040 A 
HETATM   15  C   UNK N   1      29.089  54.181  40.815  0.00  0.00     0.043 A 
HETATM   16  C   UNK N   1      27.309  55.309  39.611  0.00  0.00     0.015 A 
HETATM   17  C   UNK N   1      31.597  55.462  43.307  0.00  0.00     0.133 C 
HETATM   18  C   UNK N   1      31.551  54.242  44.219  0.00  0.00     0.060 C 
ENDROOT
BRANCH   2  19
HETATM   19  O   UNK N   1      28.409  58.908  41.404  0.00  0.00    -0.352 OA
HETATM   20  C   UNK N   1      27.730  59.489  42.458  0.00  0.00     0.210 C 
ENDBRANCH   2  19
BRANCH   3  21
HETATM   21  O   UNK N   1      26.188  58.777  39.682  0.00  0.00    -0.353 OA
HETATM   22  C   UNK N   1      24.866  58.841  40.070  0.00  0.00     0.210 C 
ENDBRANCH   3  21
BRANCH   4  23
HETATM   23  O   UNK N   1      31.723  49.633  40.934  0.00  0.00    -0.353 OA
HETATM   24  C   UNK N   1      30.658  48.761  40.858  0.00  0.00     0.210 C 
ENDBRANCH   4  23
BRANCH   5  25
HETATM   25  O   UNK N   1      33.053  49.617  43.333  0.00  0.00    -0.353 OA
HETATM   26  C   UNK N   1      34.430  49.503  43.336  0.00  0.00     0.210 C 
ENDBRANCH   5  25
TORSDOF 4
ENDMDL
MODEL 6
REMARK VINA RESULT:      -5.2      4.865      9.249
REMARK  4 active torsions:
REMARK  status: ('A' for Active; 'I' for Inactive)
REMARK    1  A    between atoms: O_1  and  C_6 
REMARK    2  A    between atoms: O_2  and  C_7 
REMARK    3  A    between atoms: O_3  and  C_8 
REMARK    4  A    between atoms: O_4  and  C_9 
ROOT
HETATM    1  N   UNK N   1      47.702  33.449  52.712  0.00  0.00    -0.355 N 
HETATM    2  C   UNK N   1      46.677  33.908  49.187  0.00  0.00     0.114 A 
HETATM    3  C   UNK N   1      47.236  33.752  47.898  0.00  0.00     0.102 A 
HETATM    4  C   UNK N   1      51.891  32.456  55.026  0.00  0.00     0.102 A 
HETATM    5  C   UNK N   1      51.178  32.142  56.195  0.00  0.00     0.102 A 
HETATM    6  C   UNK N   1      49.023  33.080  52.576  0.00  0.00     0.046 A 
HETATM    7  C   UNK N   1      46.931  33.714  51.617  0.00  0.00     0.106 A 
HETATM    8  C   UNK N   1      47.461  33.618  50.322  0.00  0.00     0.026 A 
HETATM    9  C   UNK N   1      48.810  33.236  50.164  0.00  0.00    -0.020 A 
HETATM   10  C   UNK N   1      49.804  32.748  53.805  0.00  0.00    -0.000 A 
HETATM   11  C   UNK N   1      49.089  32.453  54.980  0.00  0.00    -0.041 A 
HETATM   12  C   UNK N   1      51.211  32.744  53.837  0.00  0.00     0.054 A 
HETATM   13  C   UNK N   1      49.770  32.152  56.165  0.00  0.00     0.047 A 
HETATM   14  C   UNK N   1      48.570  33.361  47.757  0.00  0.00     0.040 A 
HETATM   15  C   UNK N   1      49.589  32.976  51.293  0.00  0.00     0.043 A 
HETATM   16  C   UNK N   1      49.357  33.115  48.881  0.00  0.00     0.015 A 
HETATM   17  C   UNK N   1      47.122  33.596  54.061  0.00  0.00     0.133 C 
HETATM   18  C   UNK N   1      47.580  32.440  54.943  0.00  0.00     0.060 C 
ENDROOT
BRANCH   2  19
HETATM   19  O   UNK N   1      45.400  34.338  49.356  0.00  0.00    -0.352 OA
HETATM   20  C   UNK N   1      44.308  33.506  49.198  0.00  0.00     0.210 C 
ENDBRANCH   2  19
BRANCH   3  21
HETATM   21  O   UNK N   1      46.488  33.945  46.791  0.00  0.00    -0.353 OA
HETATM   22  C   UNK N   1      46.081  32.875  46.022  0.00  0.00     0.210 C 
ENDBRANCH   3  21
BRANCH   4  23
HETATM   23  O   UNK N   1      53.241  32.493  55.044  0.00  0.00    -0.353 OA
HETATM   24  C   UNK N   1      53.923  33.576  54.530  0.00  0.00     0.210 C 
ENDBRANCH   4  23
BRANCH   5  25
HETATM   25  O   UNK N   1      51.868  31.831  57.324  0.00  0.00    -0.353 OA
HETATM   26  C   UNK N   1      51.292  31.563  58.551  0.00  0.00     0.210 C 
ENDBRANCH   5  25
TORSDOF 4
ENDMDL
MODEL 7
REMARK VINA RESULT:      -5.0     24.521     27.633
REMARK  4 active torsions:
REMARK  status: ('A' for Active; 'I' for Inactive)
REMARK    1  A    between atoms: O_1  and  C_6 
REMARK    2  A    between atoms: O_2  and  C_7 
REMARK    3  A    between atoms: O_3  and  C_8 
REMARK    4  A    between atoms: O_4  and  C_9 
ROOT
HETATM    1  N   UNK N   1      30.769  45.389  58.083  0.00  0.00    -0.355 N 
HETATM    2  C   UNK N   1      29.766  48.948  57.972  0.00  0.00     0.114 A 
HETATM    3  C   UNK N   1      29.328  49.948  58.870  0.00  0.00     0.102 A 
HETATM    4  C   UNK N   1      30.693  41.847  61.450  0.00  0.00     0.102 A 
HETATM    5  C   UNK N   1      31.570  41.076  60.668  0.00  0.00     0.102 A 
HETATM    6  C   UNK N   1      30.551  45.075  59.408  0.00  0.00     0.046 A 
HETATM    7  C   UNK N   1      30.522  46.645  57.609  0.00  0.00     0.106 A 
HETATM    8  C   UNK N   1      30.040  47.653  58.457  0.00  0.00     0.026 A 
HETATM    9  C   UNK N   1      29.818  47.351  59.817  0.00  0.00    -0.020 A 
HETATM   10  C   UNK N   1      30.890  43.701  59.884  0.00  0.00    -0.000 A 
HETATM   11  C   UNK N   1      31.754  42.923  59.090  0.00  0.00    -0.041 A 
HETATM   12  C   UNK N   1      30.365  43.153  61.069  0.00  0.00     0.054 A 
HETATM   13  C   UNK N   1      32.091  41.623  59.479  0.00  0.00     0.047 A 
HETATM   14  C   UNK N   1      29.123  49.638  60.217  0.00  0.00     0.040 A 
HETATM   15  C   UNK N   1      30.065  46.060  60.286  0.00  0.00     0.043 A 
HETATM   16  C   UNK N   1      29.355  48.346  60.688  0.00  0.00     0.015 A 
HETATM   17  C   UNK N   1      31.239  44.342  57.155  0.00  0.00     0.133 C 
HETATM   18  C   UNK N   1      32.330  43.516  57.827  0.00  0.00     0.060 C 
ENDROOT
BRANCH   2  19
HETATM   19  O   UNK N   1      29.923  49.206  56.648  0.00  0.00    -0.352 OA
HETATM   20  C   UNK N   1      31.047  49.827  56.139  0.00  0.00     0.210 C 
ENDBRANCH   2  19
BRANCH   3  21
HETATM   21  O   UNK N   1      29.133  51.216  58.452  0.00  0.00    -0.353 OA
HETATM   22  C   UNK N   1      28.338  52.081  59.174  0.00  0.00     0.210 C 
ENDBRANCH   3  21
BRANCH   4  23
HETATM   23  O   UNK N   1      30.150  41.327  62.572  0.00  0.00    -0.353 OA
HETATM   24  C   UNK N   1      28.844  40.885  62.584  0.00  0.00     0.210 C 
ENDBRANCH   4  23
BRANCH   5  25
HETATM   25  O   UNK N   1      31.897  39.824  61.085  0.00  0.00    -0.353 OA
HETATM   26  C   UNK N   1      31.684  38.671  60.355  0.00  0.00     0.210 C 
ENDBRANCH   5  25
TORSDOF 4
ENDMDL
MODEL 8
REMARK VINA RESULT:      -4.9     24.108     29.510
REMARK  4 active torsions:
REMARK  status: ('A' for Active; 'I' for Inactive)
REMARK    1  A    between atoms: O_1  and  C_6 
REMARK    2  A    between atoms: O_2  and  C_7 
REMARK    3  A    between atoms: O_3  and  C_8 
REMARK    4  A    between atoms: O_4  and  C_9 
ROOT
HETATM    1  N   UNK N   1      30.267  47.599  57.902  0.00  0.00    -0.355 N 
HETATM    2  C   UNK N   1      31.605  44.203  58.504  0.00  0.00     0.114 A 
HETATM    3  C   UNK N   1      31.617  43.245  59.542  0.00  0.00     0.102 A 
HETATM    4  C   UNK N   1      28.101  51.030  60.629  0.00  0.00     0.102 A 
HETATM    5  C   UNK N   1      27.687  51.702  59.466  0.00  0.00     0.102 A 
HETATM    6  C   UNK N   1      29.705  47.902  59.124  0.00  0.00     0.046 A 
HETATM    7  C   UNK N   1      30.880  46.398  57.690  0.00  0.00     0.106 A 
HETATM    8  C   UNK N   1      30.957  45.439  58.710  0.00  0.00     0.026 A 
HETATM    9  C   UNK N   1      30.382  45.730  59.965  0.00  0.00    -0.020 A 
HETATM   10  C   UNK N   1      28.998  49.208  59.284  0.00  0.00    -0.000 A 
HETATM   11  C   UNK N   1      28.601  49.890  58.118  0.00  0.00    -0.041 A 
HETATM   12  C   UNK N   1      28.740  49.788  60.540  0.00  0.00     0.054 A 
HETATM   13  C   UNK N   1      27.952  51.125  58.208  0.00  0.00     0.047 A 
HETATM   14  C   UNK N   1      31.034  43.542  60.777  0.00  0.00     0.040 A 
HETATM   15  C   UNK N   1      29.766  46.965  60.171  0.00  0.00     0.043 A 
HETATM   16  C   UNK N   1      30.430  44.780  60.993  0.00  0.00     0.015 A 
HETATM   17  C   UNK N   1      30.237  48.601  56.819  0.00  0.00     0.133 C 
HETATM   18  C   UNK N   1      28.863  49.261  56.770  0.00  0.00     0.060 C 
ENDROOT
BRANCH   2  19
HETATM   19  O   UNK N   1      32.210  43.963  57.312  0.00  0.00    -0.352 OA
HETATM   20  C   UNK N   1      31.697  43.080  56.382  0.00  0.00     0.210 C 
ENDBRANCH   2  19
BRANCH   3  21
HETATM   21  O   UNK N   1      32.160  42.024  59.350  0.00  0.00    -0.353 OA
HETATM   22  C   UNK N   1      33.383  41.703  59.900  0.00  0.00     0.210 C 
ENDBRANCH   3  21
BRANCH   4  23
HETATM   23  O   UNK N   1      27.895  51.585  61.843  0.00  0.00    -0.353 OA
HETATM   24  C   UNK N   1      28.830  51.450  62.847  0.00  0.00     0.210 C 
ENDBRANCH   4  23
BRANCH   5  25
HETATM   25  O   UNK N   1      27.037  52.889  59.588  0.00  0.00    -0.353 OA
HETATM   26  C   UNK N   1      25.665  53.043  59.546  0.00  0.00     0.210 C 
ENDBRANCH   5  25
TORSDOF 4
ENDMDL
MODEL 9
REMARK VINA RESULT:      -4.7     24.959     25.971
REMARK  4 active torsions:
REMARK  status: ('A' for Active; 'I' for Inactive)
REMARK    1  A    between atoms: O_1  and  C_6 
REMARK    2  A    between atoms: O_2  and  C_7 
REMARK    3  A    between atoms: O_3  and  C_8 
REMARK    4  A    between atoms: O_4  and  C_9 
ROOT
HETATM    1  N   UNK N   1      28.190  40.460  55.839  0.00  0.00    -0.355 N 
HETATM    2  C   UNK N   1      27.002  40.452  52.335  0.00  0.00     0.114 A 
HETATM    3  C   UNK N   1      27.116  41.261  51.182  0.00  0.00     0.102 A 
HETATM    4  C   UNK N   1      30.528  43.640  58.722  0.00  0.00     0.102 A 
HETATM    5  C   UNK N   1      30.809  42.613  59.639  0.00  0.00     0.102 A 
HETATM    6  C   UNK N   1      28.861  41.663  55.907  0.00  0.00     0.046 A 
HETATM    7  C   UNK N   1      27.588  40.057  54.682  0.00  0.00     0.106 A 
HETATM    8  C   UNK N   1      27.636  40.854  53.529  0.00  0.00     0.026 A 
HETATM    9  C   UNK N   1      28.324  42.084  53.579  0.00  0.00    -0.020 A 
HETATM   10  C   UNK N   1      29.548  42.029  57.181  0.00  0.00    -0.000 A 
HETATM   11  C   UNK N   1      29.811  41.002  58.107  0.00  0.00    -0.041 A 
HETATM   12  C   UNK N   1      29.915  43.350  57.498  0.00  0.00     0.054 A 
HETATM   13  C   UNK N   1      30.435  41.291  59.324  0.00  0.00     0.047 A 
HETATM   14  C   UNK N   1      27.811  42.473  51.243  0.00  0.00     0.040 A 
HETATM   15  C   UNK N   1      28.927  42.489  54.770  0.00  0.00     0.043 A 
HETATM   16  C   UNK N   1      28.402  42.889  52.435  0.00  0.00     0.015 A 
HETATM   17  C   UNK N   1      28.087  39.615  57.044  0.00  0.00     0.133 C 
HETATM   18  C   UNK N   1      29.433  39.582  57.761  0.00  0.00     0.060 C 
ENDROOT
BRANCH   2  19
HETATM   19  O   UNK N   1      26.289  39.297  52.321  0.00  0.00    -0.352 OA
HETATM   20  C   UNK N   1      24.915  39.269  52.469  0.00  0.00     0.210 C 
ENDBRANCH   2  19
BRANCH   3  21
HETATM   21  O   UNK N   1      26.588  40.866  50.005  0.00  0.00    -0.353 OA
HETATM   22  C   UNK N   1      25.486  41.507  49.478  0.00  0.00     0.210 C 
ENDBRANCH   3  21
BRANCH   4  23
HETATM   23  O   UNK N   1      30.839  44.920  59.022  0.00  0.00    -0.353 OA
HETATM   24  C   UNK N   1      30.763  45.907  58.062  0.00  0.00     0.210 C 
ENDBRANCH   4  23
BRANCH   5  25
HETATM   25  O   UNK N   1      31.438  42.922  60.804  0.00  0.00    -0.353 OA
HETATM   26  C   UNK N   1      32.777  42.696  61.059  0.00  0.00     0.210 C 
ENDBRANCH   5  25
TORSDOF 4
ENDMDL
