MODEL 1
REMARK VINA RESULT:      -6.1      0.000      0.000
REMARK  8 active torsions:
REMARK  status: ('A' for Active; 'I' for Inactive)
REMARK    1  A    between atoms: O_1  and  C_5 
REMARK    2  A    between atoms: O_2  and  C_6 
REMARK    3  A    between atoms: O_4  and  C_15 
REMARK    4  A    between atoms: C_5  and  C_6 
REMARK    5  A    between atoms: C_5  and  C_15 
REMARK    6  A    between atoms: C_6  and  C_17 
REMARK    7  A    between atoms: C_9  and  C_13 
REMARK    8  A    between atoms: C_13  and  C_17 
ROOT
HETATM    1  O   UNK N   1      33.896  40.746  59.934  0.00  0.00    -0.297 OA
HETATM    2  C   UNK N   1      28.521  46.565  60.061  0.00  0.00    -0.029 C 
HETATM    3  C   UNK N   1      31.022  43.229  58.517  0.00  0.00    -0.031 C 
HETATM    4  C   UNK N   1      27.764  47.556  61.002  0.00  0.00    -0.002 C 
HETATM    5  C   UNK N   1      28.574  45.276  60.957  0.00  0.00    -0.013 C 
HETATM    6  C   UNK N   1      30.557  44.382  59.498  0.00  0.00     0.024 C 
HETATM    7  C   UNK N   1      30.676  41.812  59.104  0.00  0.00     0.013 C 
HETATM    8  C   UNK N   1      33.041  41.619  59.938  0.00  0.00     0.135 C 
HETATM    9  C   UNK N   1      29.181  44.121  60.143  0.00  0.00    -0.070 C 
HETATM   10  C   UNK N   1      31.589  41.309  60.306  0.00  0.00     0.018 C 
HETATM   11  C   UNK N   1      29.996  46.919  59.669  0.00  0.00     0.011 C 
HETATM   12  C   UNK N   1      32.555  43.308  58.233  0.00  0.00     0.017 C 
HETATM   13  C   UNK N   1      26.691  46.640  61.678  0.00  0.00     0.007 C 
HETATM   14  C   UNK N   1      27.115  45.174  61.422  0.00  0.00     0.015 C 
HETATM   15  C   UNK N   1      30.621  45.792  58.827  0.00  0.00     0.010 C 
HETATM   16  C   UNK N   1      29.145  41.717  59.355  0.00  0.00     0.034 C 
HETATM   17  C   UNK N   1      27.661  46.381  58.757  0.00  0.00     0.016 C 
HETATM   18  C   UNK N   1      30.303  43.353  57.136  0.00  0.00     0.016 C 
HETATM   19  C   UNK N   1      29.434  45.391  62.265  0.00  0.00     0.021 C 
HETATM   20  C   UNK N   1      28.551  42.923  60.043  0.00  0.00    -0.022 C 
HETATM   21  C   UNK N   1      33.405  42.997  59.471  0.00  0.00     0.080 C 
HETATM   22  C   UNK N   1      31.433  39.766  60.460  0.00  0.00     0.023 C 
HETATM   23  C   UNK N   1      31.261  41.920  61.688  0.00  0.00     0.023 C 
ENDROOT
BRANCH   4  24
HETATM   24  C   UNK N   1      27.167  48.902  60.456  0.00  0.00    -0.011 C 
HETATM   25  C   UNK N   1      25.989  49.361  61.341  0.00  0.00     0.010 C 
BRANCH  24  26
HETATM   26  C   UNK N   1      28.256  50.006  60.380  0.00  0.00     0.039 C 
BRANCH  26  27
HETATM   27  C   UNK N   1      28.435  50.743  59.034  0.00  0.00     0.150 C 
BRANCH  27  28
HETATM   28  O   UNK N   1      29.095  51.966  59.259  0.00  0.00    -0.393 OA
HETATM   29  H   UNK N   1      29.113  52.146  60.235  0.00  0.00     0.210 HD
ENDBRANCH  27  28
BRANCH  27  30
HETATM   30  C   UNK N   1      29.169  49.875  57.963  0.00  0.00     0.180 C 
BRANCH  30  31
HETATM   31  O   UNK N   1      30.552  50.144  57.938  0.00  0.00    -0.390 OA
HETATM   32  H   UNK N   1      30.950  49.695  57.152  0.00  0.00     0.210 HD
ENDBRANCH  30  31
BRANCH  30  33
HETATM   33  C   UNK N   1      28.562  49.880  56.515  0.00  0.00     0.079 C 
HETATM   34  C   UNK N   1      29.522  50.459  55.456  0.00  0.00     0.048 C 
HETATM   35  C   UNK N   1      27.249  50.691  56.472  0.00  0.00     0.048 C 
BRANCH  33  36
HETATM   36  O   UNK N   1      28.290  48.550  56.137  0.00  0.00    -0.388 OA
HETATM   37  H   UNK N   1      27.321  48.378  56.275  0.00  0.00     0.210 HD
ENDBRANCH  33  36
ENDBRANCH  30  33
ENDBRANCH  27  30
ENDBRANCH  26  27
ENDBRANCH  24  26
ENDBRANCH   4  24
TORSDOF 8
ENDMDL
MODEL 2
REMARK VINA RESULT:      -5.7      4.753      6.998
REMARK  8 active torsions:
REMARK  status: ('A' for Active; 'I' for Inactive)
REMARK    1  A    between atoms: O_1  and  C_5 
REMARK    2  A    between atoms: O_2  and  C_6 
REMARK    3  A    between atoms: O_4  and  C_15 
REMARK    4  A    between atoms: C_5  and  C_6 
REMARK    5  A    between atoms: C_5  and  C_15 
REMARK    6  A    between atoms: C_6  and  C_17 
REMARK    7  A    between atoms: C_9  and  C_13 
REMARK    8  A    between atoms: C_13  and  C_17 
ROOT
HETATM    1  O   UNK N   1      28.749  38.828  54.371  0.00  0.00    -0.297 OA
HETATM    2  C   UNK N   1      31.769  43.207  60.243  0.00  0.00    -0.029 C 
HETATM    3  C   UNK N   1      29.327  42.098  56.696  0.00  0.00    -0.031 C 
HETATM    4  C   UNK N   1      32.649  43.144  61.532  0.00  0.00    -0.002 C 
HETATM    5  C   UNK N   1      30.975  41.856  60.352  0.00  0.00    -0.013 C 
HETATM    6  C   UNK N   1      30.471  41.981  57.784  0.00  0.00     0.024 C 
HETATM    7  C   UNK N   1      28.168  41.074  56.980  0.00  0.00     0.013 C 
HETATM    8  C   UNK N   1      29.179  39.513  55.287  0.00  0.00     0.135 C 
HETATM    9  C   UNK N   1      29.938  41.787  59.218  0.00  0.00    -0.070 C 
HETATM   10  C   UNK N   1      28.481  39.550  56.647  0.00  0.00     0.018 C 
HETATM   11  C   UNK N   1      32.505  43.202  58.859  0.00  0.00     0.011 C 
HETATM   12  C   UNK N   1      29.883  41.858  55.258  0.00  0.00     0.017 C 
HETATM   13  C   UNK N   1      31.675  42.522  62.586  0.00  0.00     0.007 C 
HETATM   14  C   UNK N   1      30.486  41.912  61.806  0.00  0.00     0.015 C 
HETATM   15  C   UNK N   1      31.489  43.164  57.702  0.00  0.00     0.010 C 
HETATM   16  C   UNK N   1      27.587  41.333  58.399  0.00  0.00     0.034 C 
HETATM   17  C   UNK N   1      30.849  44.479  60.344  0.00  0.00     0.016 C 
HETATM   18  C   UNK N   1      28.701  43.529  56.702  0.00  0.00     0.016 C 
HETATM   19  C   UNK N   1      31.836  40.548  60.239  0.00  0.00     0.021 C 
HETATM   20  C   UNK N   1      28.631  41.524  59.474  0.00  0.00    -0.022 C 
HETATM   21  C   UNK N   1      30.351  40.414  55.034  0.00  0.00     0.080 C 
HETATM   22  C   UNK N   1      27.142  38.761  56.543  0.00  0.00     0.023 C 
HETATM   23  C   UNK N   1      29.343  38.807  57.694  0.00  0.00     0.023 C 
ENDROOT
BRANCH   4  24
HETATM   24  C   UNK N   1      33.401  44.415  62.065  0.00  0.00    -0.011 C 
HETATM   25  C   UNK N   1      32.843  44.825  63.445  0.00  0.00     0.010 C 
BRANCH  24  26
HETATM   26  C   UNK N   1      34.931  44.165  62.148  0.00  0.00     0.039 C 
BRANCH  26  27
HETATM   27  C   UNK N   1      35.774  45.153  62.986  0.00  0.00     0.150 C 
BRANCH  27  28
HETATM   28  O   UNK N   1      36.235  44.502  64.146  0.00  0.00    -0.393 OA
HETATM   29  H   UNK N   1      36.178  43.521  64.006  0.00  0.00     0.210 HD
ENDBRANCH  27  28
BRANCH  27  30
HETATM   30  C   UNK N   1      36.944  45.790  62.172  0.00  0.00     0.180 C 
BRANCH  30  31
HETATM   31  O   UNK N   1      38.124  45.026  62.279  0.00  0.00    -0.390 OA
HETATM   32  H   UNK N   1      38.291  44.829  63.234  0.00  0.00     0.210 HD
ENDBRANCH  30  31
BRANCH  30  33
HETATM   33  C   UNK N   1      37.229  47.314  62.420  0.00  0.00     0.079 C 
HETATM   34  C   UNK N   1      38.267  47.566  63.532  0.00  0.00     0.048 C 
HETATM   35  C   UNK N   1      35.930  48.061  62.793  0.00  0.00     0.048 C 
BRANCH  33  36
HETATM   36  O   UNK N   1      37.753  47.871  61.237  0.00  0.00    -0.388 OA
HETATM   37  H   UNK N   1      37.578  48.850  61.248  0.00  0.00     0.210 HD
ENDBRANCH  33  36
ENDBRANCH  30  33
ENDBRANCH  27  30
ENDBRANCH  26  27
ENDBRANCH  24  26
ENDBRANCH   4  24
TORSDOF 8
ENDMDL
MODEL 3
REMARK VINA RESULT:      -5.6      7.517     10.289
REMARK  8 active torsions:
REMARK  status: ('A' for Active; 'I' for Inactive)
REMARK    1  A    between atoms: O_1  and  C_5 
REMARK    2  A    between atoms: O_2  and  C_6 
REMARK    3  A    between atoms: O_4  and  C_15 
REMARK    4  A    between atoms: C_5  and  C_6 
REMARK    5  A    between atoms: C_5  and  C_15 
REMARK    6  A    between atoms: C_6  and  C_17 
REMARK    7  A    between atoms: C_9  and  C_13 
REMARK    8  A    between atoms: C_13  and  C_17 
ROOT
HETATM    1  O   UNK N   1      28.309  30.701  54.650  0.00  0.00    -0.297 OA
HETATM    2  C   UNK N   1      28.152  38.622  54.601  0.00  0.00    -0.029 C 
HETATM    3  C   UNK N   1      26.756  34.424  55.047  0.00  0.00    -0.031 C 
HETATM    4  C   UNK N   1      29.048  39.896  54.481  0.00  0.00    -0.002 C 
HETATM    5  C   UNK N   1      29.079  37.677  55.447  0.00  0.00    -0.013 C 
HETATM    6  C   UNK N   1      27.696  35.618  54.603  0.00  0.00     0.024 C 
HETATM    7  C   UNK N   1      27.366  33.647  56.270  0.00  0.00     0.013 C 
HETATM    8  C   UNK N   1      28.269  31.922  54.678  0.00  0.00     0.135 C 
HETATM    9  C   UNK N   1      28.309  36.390  55.789  0.00  0.00    -0.070 C 
HETATM   10  C   UNK N   1      28.604  32.700  55.952  0.00  0.00     0.018 C 
HETATM   11  C   UNK N   1      27.793  37.859  53.280  0.00  0.00     0.011 C 
HETATM   12  C   UNK N   1      26.512  33.425  53.873  0.00  0.00     0.017 C 
HETATM   13  C   UNK N   1      29.716  39.984  55.894  0.00  0.00     0.007 C 
HETATM   14  C   UNK N   1      29.505  38.615  56.584  0.00  0.00     0.015 C 
HETATM   15  C   UNK N   1      26.994  36.580  53.591  0.00  0.00     0.010 C 
HETATM   16  C   UNK N   1      27.577  34.631  57.454  0.00  0.00     0.034 C 
HETATM   17  C   UNK N   1      26.829  39.028  55.350  0.00  0.00     0.016 C 
HETATM   18  C   UNK N   1      25.353  34.956  55.482  0.00  0.00     0.016 C 
HETATM   19  C   UNK N   1      30.407  37.221  54.746  0.00  0.00     0.021 C 
HETATM   20  C   UNK N   1      28.220  35.943  57.067  0.00  0.00    -0.022 C 
HETATM   21  C   UNK N   1      27.781  32.663  53.469  0.00  0.00     0.080 C 
HETATM   22  C   UNK N   1      28.790  31.686  57.120  0.00  0.00     0.023 C 
HETATM   23  C   UNK N   1      29.962  33.419  55.780  0.00  0.00     0.023 C 
ENDROOT
BRANCH   4  24
HETATM   24  C   UNK N   1      28.454  41.266  53.996  0.00  0.00    -0.011 C 
HETATM   25  C   UNK N   1      28.168  42.182  55.206  0.00  0.00     0.010 C 
BRANCH  24  26
HETATM   26  C   UNK N   1      29.412  41.966  52.995  0.00  0.00     0.039 C 
BRANCH  26  27
HETATM   27  C   UNK N   1      28.843  42.353  51.611  0.00  0.00     0.150 C 
BRANCH  27  28
HETATM   28  O   UNK N   1      29.737  41.933  50.608  0.00  0.00    -0.393 OA
HETATM   29  H   UNK N   1      30.664  42.009  50.953  0.00  0.00     0.210 HD
ENDBRANCH  27  28
BRANCH  27  30
HETATM   30  C   UNK N   1      27.402  41.800  51.374  0.00  0.00     0.180 C 
BRANCH  30  31
HETATM   31  O   UNK N   1      27.286  41.183  50.113  0.00  0.00    -0.390 OA
HETATM   32  H   UNK N   1      26.580  40.491  50.160  0.00  0.00     0.210 HD
ENDBRANCH  30  31
BRANCH  30  33
HETATM   33  C   UNK N   1      26.213  42.791  51.635  0.00  0.00     0.079 C 
HETATM   34  C   UNK N   1      25.135  42.215  52.575  0.00  0.00     0.048 C 
HETATM   35  C   UNK N   1      25.533  43.194  50.309  0.00  0.00     0.048 C 
BRANCH  33  36
HETATM   36  O   UNK N   1      26.722  43.949  52.257  0.00  0.00    -0.388 OA
HETATM   37  H   UNK N   1      26.010  44.642  52.258  0.00  0.00     0.210 HD
ENDBRANCH  33  36
ENDBRANCH  30  33
ENDBRANCH  27  30
ENDBRANCH  26  27
ENDBRANCH  24  26
ENDBRANCH   4  24
TORSDOF 8
ENDMDL
MODEL 4
REMARK VINA RESULT:      -5.5      3.421      5.071
REMARK  8 active torsions:
REMARK  status: ('A' for Active; 'I' for Inactive)
REMARK    1  A    between atoms: O_1  and  C_5 
REMARK    2  A    between atoms: O_2  and  C_6 
REMARK    3  A    between atoms: O_4  and  C_15 
REMARK    4  A    between atoms: C_5  and  C_6 
REMARK    5  A    between atoms: C_5  and  C_15 
REMARK    6  A    between atoms: C_6  and  C_17 
REMARK    7  A    between atoms: C_9  and  C_13 
REMARK    8  A    between atoms: C_13  and  C_17 
ROOT
HETATM    1  O   UNK N   1      27.617  38.193  52.917  0.00  0.00    -0.297 OA
HETATM    2  C   UNK N   1      29.229  43.661  58.420  0.00  0.00    -0.029 C 
HETATM    3  C   UNK N   1      27.157  40.324  56.334  0.00  0.00    -0.031 C 
HETATM    4  C   UNK N   1      30.296  44.705  58.879  0.00  0.00    -0.002 C 
HETATM    5  C   UNK N   1      30.147  42.487  57.923  0.00  0.00    -0.013 C 
HETATM    6  C   UNK N   1      28.140  41.552  56.523  0.00  0.00     0.024 C 
HETATM    7  C   UNK N   1      27.947  38.965  56.306  0.00  0.00     0.013 C 
HETATM    8  C   UNK N   1      27.863  39.009  53.793  0.00  0.00     0.135 C 
HETATM    9  C   UNK N   1      29.267  41.285  57.542  0.00  0.00    -0.070 C 
HETATM   10  C   UNK N   1      28.765  38.657  54.977  0.00  0.00     0.018 C 
HETATM   11  C   UNK N   1      28.292  44.055  57.227  0.00  0.00     0.011 C 
HETATM   12  C   UNK N   1      26.322  40.461  55.023  0.00  0.00     0.017 C 
HETATM   13  C   UNK N   1      31.395  43.810  59.542  0.00  0.00     0.007 C 
HETATM   14  C   UNK N   1      31.124  42.352  59.099  0.00  0.00     0.015 C 
HETATM   15  C   UNK N   1      27.377  42.878  56.843  0.00  0.00     0.010 C 
HETATM   16  C   UNK N   1      28.752  38.809  57.627  0.00  0.00     0.034 C 
HETATM   17  C   UNK N   1      28.355  43.279  59.671  0.00  0.00     0.016 C 
HETATM   18  C   UNK N   1      26.134  40.248  57.512  0.00  0.00     0.016 C 
HETATM   19  C   UNK N   1      31.032  42.800  56.664  0.00  0.00     0.021 C 
HETATM   20  C   UNK N   1      29.507  40.048  58.047  0.00  0.00    -0.022 C 
HETATM   21  C   UNK N   1      27.181  40.345  53.757  0.00  0.00     0.080 C 
HETATM   22  C   UNK N   1      29.095  37.136  54.917  0.00  0.00     0.023 C 
HETATM   23  C   UNK N   1      30.114  39.400  54.842  0.00  0.00     0.023 C 
ENDROOT
BRANCH   4  24
HETATM   24  C   UNK N   1      29.898  45.942  59.760  0.00  0.00    -0.011 C 
HETATM   25  C   UNK N   1      30.610  45.874  61.128  0.00  0.00     0.010 C 
BRANCH  24  26
HETATM   26  C   UNK N   1      30.232  47.274  59.036  0.00  0.00     0.039 C 
BRANCH  26  27
HETATM   27  C   UNK N   1      29.124  48.349  58.968  0.00  0.00     0.150 C 
BRANCH  27  28
HETATM   28  O   UNK N   1      28.776  48.741  60.274  0.00  0.00    -0.393 OA
HETATM   29  H   UNK N   1      27.964  48.243  60.553  0.00  0.00     0.210 HD
ENDBRANCH  27  28
BRANCH  27  30
HETATM   30  C   UNK N   1      29.521  49.571  58.081  0.00  0.00     0.180 C 
BRANCH  30  31
HETATM   31  O   UNK N   1      29.569  50.762  58.833  0.00  0.00    -0.390 OA
HETATM   32  H   UNK N   1      28.898  51.394  58.473  0.00  0.00     0.210 HD
ENDBRANCH  30  31
BRANCH  30  33
HETATM   33  C   UNK N   1      28.712  49.771  56.750  0.00  0.00     0.079 C 
HETATM   34  C   UNK N   1      29.548  50.404  55.620  0.00  0.00     0.048 C 
HETATM   35  C   UNK N   1      27.471  50.659  56.990  0.00  0.00     0.048 C 
BRANCH  33  36
HETATM   36  O   UNK N   1      28.288  48.509  56.288  0.00  0.00    -0.388 OA
HETATM   37  H   UNK N   1      27.414  48.621  55.829  0.00  0.00     0.210 HD
ENDBRANCH  33  36
ENDBRANCH  30  33
ENDBRANCH  27  30
ENDBRANCH  26  27
ENDBRANCH  24  26
ENDBRANCH   4  24
TORSDOF 8
ENDMDL
MODEL 5
REMARK VINA RESULT:      -5.3      7.268      8.569
REMARK  8 active torsions:
REMARK  status: ('A' for Active; 'I' for Inactive)
REMARK    1  A    between atoms: O_1  and  C_5 
REMARK    2  A    between atoms: O_2  and  C_6 
REMARK    3  A    between atoms: O_4  and  C_15 
REMARK    4  A    between atoms: C_5  and  C_6 
REMARK    5  A    between atoms: C_5  and  C_15 
REMARK    6  A    between atoms: C_6  and  C_17 
REMARK    7  A    between atoms: C_9  and  C_13 
REMARK    8  A    between atoms: C_13  and  C_17 
ROOT
HETATM    1  O   UNK N   1      38.880  43.136  64.735  0.00  0.00    -0.297 OA
HETATM    2  C   UNK N   1      34.429  49.675  64.293  0.00  0.00    -0.029 C 
HETATM    3  C   UNK N   1      35.671  45.433  63.811  0.00  0.00    -0.031 C 
HETATM    4  C   UNK N   1      34.322  51.157  64.777  0.00  0.00    -0.002 C 
HETATM    5  C   UNK N   1      34.999  48.977  65.580  0.00  0.00    -0.013 C 
HETATM    6  C   UNK N   1      35.824  46.983  64.093  0.00  0.00     0.024 C 
HETATM    7  C   UNK N   1      35.740  44.604  65.145  0.00  0.00     0.013 C 
HETATM    8  C   UNK N   1      38.165  44.124  64.682  0.00  0.00     0.135 C 
HETATM    9  C   UNK N   1      35.058  47.458  65.345  0.00  0.00    -0.070 C 
HETATM   10  C   UNK N   1      37.180  44.454  65.804  0.00  0.00     0.018 C 
HETATM   11  C   UNK N   1      35.419  49.364  63.119  0.00  0.00     0.011 C 
HETATM   12  C   UNK N   1      36.773  44.922  62.831  0.00  0.00     0.017 C 
HETATM   13  C   UNK N   1      33.833  51.004  66.255  0.00  0.00     0.007 C 
HETATM   14  C   UNK N   1      34.060  49.528  66.661  0.00  0.00     0.015 C 
HETATM   15  C   UNK N   1      35.476  47.851  62.841  0.00  0.00     0.010 C 
HETATM   16  C   UNK N   1      34.620  45.086  66.110  0.00  0.00     0.034 C 
HETATM   17  C   UNK N   1      32.985  49.184  63.907  0.00  0.00     0.016 C 
HETATM   18  C   UNK N   1      34.295  45.126  63.138  0.00  0.00     0.016 C 
HETATM   19  C   UNK N   1      36.446  49.411  66.006  0.00  0.00     0.021 C 
HETATM   20  C   UNK N   1      34.500  46.588  66.224  0.00  0.00    -0.022 C 
HETATM   21  C   UNK N   1      38.180  44.969  63.442  0.00  0.00     0.080 C 
HETATM   22  C   UNK N   1      37.161  43.269  66.816  0.00  0.00     0.023 C 
HETATM   23  C   UNK N   1      37.681  45.688  66.589  0.00  0.00     0.023 C 
ENDROOT
BRANCH   4  24
HETATM   24  C   UNK N   1      33.499  52.220  63.965  0.00  0.00    -0.011 C 
HETATM   25  C   UNK N   1      32.360  52.792  64.835  0.00  0.00     0.010 C 
BRANCH  24  26
HETATM   26  C   UNK N   1      34.417  53.360  63.449  0.00  0.00     0.039 C 
BRANCH  26  27
HETATM   27  C   UNK N   1      34.292  54.743  64.128  0.00  0.00     0.150 C 
BRANCH  27  28
HETATM   28  O   UNK N   1      35.502  55.054  64.776  0.00  0.00    -0.393 OA
HETATM   29  H   UNK N   1      35.318  55.705  65.502  0.00  0.00     0.210 HD
ENDBRANCH  27  28
BRANCH  27  30
HETATM   30  C   UNK N   1      33.860  55.867  63.134  0.00  0.00     0.180 C 
BRANCH  30  31
HETATM   31  O   UNK N   1      34.756  56.954  63.162  0.00  0.00    -0.390 OA
HETATM   32  H   UNK N   1      35.374  56.877  62.393  0.00  0.00     0.210 HD
ENDBRANCH  30  31
BRANCH  30  33
HETATM   33  C   UNK N   1      32.370  56.354  63.224  0.00  0.00     0.079 C 
HETATM   34  C   UNK N   1      31.395  55.486  62.403  0.00  0.00     0.048 C 
HETATM   35  C   UNK N   1      32.240  57.815  62.740  0.00  0.00     0.048 C 
BRANCH  33  36
HETATM   36  O   UNK N   1      31.952  56.280  64.567  0.00  0.00    -0.388 OA
HETATM   37  H   UNK N   1      31.001  56.562  64.616  0.00  0.00     0.210 HD
ENDBRANCH  33  36
ENDBRANCH  30  33
ENDBRANCH  27  30
ENDBRANCH  26  27
ENDBRANCH  24  26
ENDBRANCH   4  24
TORSDOF 8
ENDMDL
MODEL 6
REMARK VINA RESULT:      -5.3      6.786      9.808
REMARK  8 active torsions:
REMARK  status: ('A' for Active; 'I' for Inactive)
REMARK    1  A    between atoms: O_1  and  C_5 
REMARK    2  A    between atoms: O_2  and  C_6 
REMARK    3  A    between atoms: O_4  and  C_15 
REMARK    4  A    between atoms: C_5  and  C_6 
REMARK    5  A    between atoms: C_5  and  C_15 
REMARK    6  A    between atoms: C_6  and  C_17 
REMARK    7  A    between atoms: C_9  and  C_13 
REMARK    8  A    between atoms: C_13  and  C_17 
ROOT
HETATM    1  O   UNK N   1      25.889  31.456  55.450  0.00  0.00    -0.297 OA
HETATM    2  C   UNK N   1      28.411  38.920  56.287  0.00  0.00    -0.029 C 
HETATM    3  C   UNK N   1      27.628  34.648  57.243  0.00  0.00    -0.031 C 
HETATM    4  C   UNK N   1      28.612  40.271  55.529  0.00  0.00    -0.002 C 
HETATM    5  C   UNK N   1      28.803  37.885  55.173  0.00  0.00    -0.013 C 
HETATM    6  C   UNK N   1      27.494  36.030  56.480  0.00  0.00     0.024 C 
HETATM    7  C   UNK N   1      28.462  33.615  56.402  0.00  0.00     0.013 C 
HETATM    8  C   UNK N   1      26.313  32.593  55.589  0.00  0.00     0.135 C 
HETATM    9  C   UNK N   1      28.793  36.469  55.773  0.00  0.00    -0.070 C 
HETATM   10  C   UNK N   1      27.725  32.976  55.145  0.00  0.00     0.018 C 
HETATM   11  C   UNK N   1      26.961  38.563  56.763  0.00  0.00     0.011 C 
HETATM   12  C   UNK N   1      26.227  34.039  57.564  0.00  0.00     0.017 C 
HETATM   13  C   UNK N   1      29.898  40.002  54.678  0.00  0.00     0.007 C 
HETATM   14  C   UNK N   1      30.129  38.472  54.671  0.00  0.00     0.015 C 
HETATM   15  C   UNK N   1      26.926  37.161  57.397  0.00  0.00     0.010 C 
HETATM   16  C   UNK N   1      29.871  34.204  56.111  0.00  0.00     0.034 C 
HETATM   17  C   UNK N   1      29.387  38.905  57.520  0.00  0.00     0.016 C 
HETATM   18  C   UNK N   1      28.358  34.840  58.611  0.00  0.00     0.016 C 
HETATM   19  C   UNK N   1      27.855  37.838  53.922  0.00  0.00     0.021 C 
HETATM   20  C   UNK N   1      29.860  35.641  55.643  0.00  0.00    -0.022 C 
HETATM   21  C   UNK N   1      25.466  33.604  56.305  0.00  0.00     0.080 C 
HETATM   22  C   UNK N   1      28.479  31.683  54.710  0.00  0.00     0.023 C 
HETATM   23  C   UNK N   1      27.650  33.878  53.892  0.00  0.00     0.023 C 
ENDROOT
BRANCH   4  24
HETATM   24  C   UNK N   1      28.661  41.637  56.300  0.00  0.00    -0.011 C 
HETATM   25  C   UNK N   1      30.031  42.318  56.093  0.00  0.00     0.010 C 
BRANCH  24  26
HETATM   26  C   UNK N   1      27.510  42.576  55.846  0.00  0.00     0.039 C 
BRANCH  26  27
HETATM   27  C   UNK N   1      26.851  42.289  54.478  0.00  0.00     0.150 C 
BRANCH  27  28
HETATM   28  O   UNK N   1      25.457  42.450  54.591  0.00  0.00    -0.393 OA
HETATM   29  H   UNK N   1      25.028  42.123  53.758  0.00  0.00     0.210 HD
ENDBRANCH  27  28
BRANCH  27  30
HETATM   30  C   UNK N   1      27.444  43.161  53.326  0.00  0.00     0.180 C 
BRANCH  30  31
HETATM   31  O   UNK N   1      26.567  44.201  52.961  0.00  0.00    -0.390 OA
HETATM   32  H   UNK N   1      26.867  45.039  53.394  0.00  0.00     0.210 HD
ENDBRANCH  30  31
BRANCH  30  33
HETATM   33  C   UNK N   1      27.977  42.396  52.064  0.00  0.00     0.079 C 
HETATM   34  C   UNK N   1      27.425  40.960  51.945  0.00  0.00     0.048 C 
HETATM   35  C   UNK N   1      29.520  42.320  52.077  0.00  0.00     0.048 C 
BRANCH  33  36
HETATM   36  O   UNK N   1      27.565  43.090  50.909  0.00  0.00    -0.388 OA
HETATM   37  H   UNK N   1      28.065  42.728  50.131  0.00  0.00     0.210 HD
ENDBRANCH  33  36
ENDBRANCH  30  33
ENDBRANCH  27  30
ENDBRANCH  26  27
ENDBRANCH  24  26
ENDBRANCH   4  24
TORSDOF 8
ENDMDL
MODEL 7
REMARK VINA RESULT:      -5.3     19.109     22.043
REMARK  8 active torsions:
REMARK  status: ('A' for Active; 'I' for Inactive)
REMARK    1  A    between atoms: O_1  and  C_5 
REMARK    2  A    between atoms: O_2  and  C_6 
REMARK    3  A    between atoms: O_4  and  C_15 
REMARK    4  A    between atoms: C_5  and  C_6 
REMARK    5  A    between atoms: C_5  and  C_15 
REMARK    6  A    between atoms: C_6  and  C_17 
REMARK    7  A    between atoms: C_9  and  C_13 
REMARK    8  A    between atoms: C_13  and  C_17 
ROOT
HETATM    1  O   UNK N   1      49.983  56.700  53.024  0.00  0.00    -0.297 OA
HETATM    2  C   UNK N   1      49.676  53.085  60.068  0.00  0.00    -0.029 C 
HETATM    3  C   UNK N   1      51.366  55.101  56.482  0.00  0.00    -0.031 C 
HETATM    4  C   UNK N   1      48.701  52.572  61.175  0.00  0.00    -0.002 C 
HETATM    5  C   UNK N   1      48.966  54.416  59.631  0.00  0.00    -0.013 C 
HETATM    6  C   UNK N   1      50.296  54.348  57.375  0.00  0.00     0.024 C 
HETATM    7  C   UNK N   1      51.024  56.630  56.356  0.00  0.00     0.013 C 
HETATM    8  C   UNK N   1      49.957  56.171  54.125  0.00  0.00     0.135 C 
HETATM    9  C   UNK N   1      49.856  55.152  58.615  0.00  0.00    -0.070 C 
HETATM   10  C   UNK N   1      49.805  56.999  55.402  0.00  0.00     0.018 C 
HETATM   11  C   UNK N   1      49.843  52.204  58.782  0.00  0.00     0.011 C 
HETATM   12  C   UNK N   1      51.458  54.475  55.056  0.00  0.00     0.017 C 
HETATM   13  C   UNK N   1      48.286  53.891  61.908  0.00  0.00     0.007 C 
HETATM   14  C   UNK N   1      48.691  55.070  60.992  0.00  0.00     0.015 C 
HETATM   15  C   UNK N   1      50.755  52.904  57.758  0.00  0.00     0.010 C 
HETATM   16  C   UNK N   1      50.966  57.265  57.774  0.00  0.00     0.034 C 
HETATM   17  C   UNK N   1      51.083  53.319  60.730  0.00  0.00     0.016 C 
HETATM   18  C   UNK N   1      52.791  54.989  57.114  0.00  0.00     0.016 C 
HETATM   19  C   UNK N   1      47.564  54.247  58.945  0.00  0.00     0.021 C 
HETATM   20  C   UNK N   1      50.192  56.456  58.788  0.00  0.00    -0.022 C 
HETATM   21  C   UNK N   1      50.185  54.691  54.228  0.00  0.00     0.080 C 
HETATM   22  C   UNK N   1      49.884  58.510  55.029  0.00  0.00     0.023 C 
HETATM   23  C   UNK N   1      48.400  56.773  56.004  0.00  0.00     0.023 C 
ENDROOT
BRANCH   4  24
HETATM   24  C   UNK N   1      49.122  51.427  62.163  0.00  0.00    -0.011 C 
HETATM   25  C   UNK N   1      48.360  51.568  63.499  0.00  0.00     0.010 C 
BRANCH  24  26
HETATM   26  C   UNK N   1      48.871  50.029  61.536  0.00  0.00     0.039 C 
BRANCH  26  27
HETATM   27  C   UNK N   1      47.608  49.852  60.664  0.00  0.00     0.150 C 
BRANCH  27  28
HETATM   28  O   UNK N   1      47.922  49.054  59.548  0.00  0.00    -0.393 OA
HETATM   29  H   UNK N   1      48.241  49.642  58.814  0.00  0.00     0.210 HD
ENDBRANCH  27  28
BRANCH  27  30
HETATM   30  C   UNK N   1      46.396  49.279  61.465  0.00  0.00     0.180 C 
BRANCH  30  31
HETATM   31  O   UNK N   1      46.085  47.965  61.061  0.00  0.00    -0.390 OA
HETATM   32  H   UNK N   1      46.395  47.835  60.131  0.00  0.00     0.210 HD
ENDBRANCH  30  31
BRANCH  30  33
HETATM   33  C   UNK N   1      45.108  50.174  61.534  0.00  0.00     0.079 C 
HETATM   34  C   UNK N   1      45.341  51.614  61.034  0.00  0.00     0.048 C 
HETATM   35  C   UNK N   1      44.565  50.245  62.978  0.00  0.00     0.048 C 
BRANCH  33  36
HETATM   36  O   UNK N   1      44.122  49.607  60.703  0.00  0.00    -0.388 OA
HETATM   37  H   UNK N   1      43.284  50.131  60.809  0.00  0.00     0.210 HD
ENDBRANCH  33  36
ENDBRANCH  30  33
ENDBRANCH  27  30
ENDBRANCH  26  27
ENDBRANCH  24  26
ENDBRANCH   4  24
TORSDOF 8
ENDMDL
MODEL 8
REMARK VINA RESULT:      -5.3      2.665      4.194
REMARK  8 active torsions:
REMARK  status: ('A' for Active; 'I' for Inactive)
REMARK    1  A    between atoms: O_1  and  C_5 
REMARK    2  A    between atoms: O_2  and  C_6 
REMARK    3  A    between atoms: O_4  and  C_15 
REMARK    4  A    between atoms: C_5  and  C_6 
REMARK    5  A    between atoms: C_5  and  C_15 
REMARK    6  A    between atoms: C_6  and  C_17 
REMARK    7  A    between atoms: C_9  and  C_13 
REMARK    8  A    between atoms: C_13  and  C_17 
ROOT
HETATM    1  O   UNK N   1      28.384  40.791  52.912  0.00  0.00    -0.297 OA
HETATM    2  C   UNK N   1      28.989  45.282  59.411  0.00  0.00    -0.029 C 
HETATM    3  C   UNK N   1      27.475  42.176  56.611  0.00  0.00    -0.031 C 
HETATM    4  C   UNK N   1      29.888  46.340  60.127  0.00  0.00    -0.002 C 
HETATM    5  C   UNK N   1      30.075  44.337  58.781  0.00  0.00    -0.013 C 
HETATM    6  C   UNK N   1      28.281  43.453  57.090  0.00  0.00     0.024 C 
HETATM    7  C   UNK N   1      28.434  40.948  56.399  0.00  0.00     0.013 C 
HETATM    8  C   UNK N   1      28.477  41.451  53.935  0.00  0.00     0.135 C 
HETATM    9  C   UNK N   1      29.378  43.133  58.126  0.00  0.00    -0.070 C 
HETATM   10  C   UNK N   1      29.353  40.992  55.101  0.00  0.00     0.018 C 
HETATM   11  C   UNK N   1      28.073  45.780  58.240  0.00  0.00     0.011 C 
HETATM   12  C   UNK N   1      26.700  42.458  55.286  0.00  0.00     0.017 C 
HETATM   13  C   UNK N   1      31.056  45.470  60.700  0.00  0.00     0.007 C 
HETATM   14  C   UNK N   1      30.999  44.100  59.984  0.00  0.00     0.015 C 
HETATM   15  C   UNK N   1      27.338  44.597  57.584  0.00  0.00     0.010 C 
HETATM   16  C   UNK N   1      29.182  40.642  57.727  0.00  0.00     0.034 C 
HETATM   17  C   UNK N   1      28.107  44.574  60.503  0.00  0.00     0.016 C 
HETATM   18  C   UNK N   1      26.410  41.762  57.676  0.00  0.00     0.016 C 
HETATM   19  C   UNK N   1      30.977  44.982  57.669  0.00  0.00     0.021 C 
HETATM   20  C   UNK N   1      29.749  41.861  58.418  0.00  0.00    -0.022 C 
HETATM   21  C   UNK N   1      27.631  42.681  54.088  0.00  0.00     0.080 C 
HETATM   22  C   UNK N   1      29.879  39.557  54.795  0.00  0.00     0.023 C 
HETATM   23  C   UNK N   1      30.601  41.899  55.203  0.00  0.00     0.023 C 
ENDROOT
BRANCH   4  24
HETATM   24  C   UNK N   1      29.288  47.335  61.183  0.00  0.00    -0.011 C 
HETATM   25  C   UNK N   1      29.980  47.143  62.550  0.00  0.00     0.010 C 
BRANCH  24  26
HETATM   26  C   UNK N   1      29.422  48.805  60.704  0.00  0.00     0.039 C 
BRANCH  26  27
HETATM   27  C   UNK N   1      28.636  49.221  59.441  0.00  0.00     0.150 C 
BRANCH  27  28
HETATM   28  O   UNK N   1      27.480  49.927  59.825  0.00  0.00    -0.393 OA
HETATM   29  H   UNK N   1      27.741  50.845  60.096  0.00  0.00     0.210 HD
ENDBRANCH  27  28
BRANCH  27  30
HETATM   30  C   UNK N   1      29.504  50.034  58.429  0.00  0.00     0.180 C 
BRANCH  30  31
HETATM   31  O   UNK N   1      29.137  51.395  58.410  0.00  0.00    -0.390 OA
HETATM   32  H   UNK N   1      29.129  51.710  57.472  0.00  0.00     0.210 HD
ENDBRANCH  30  31
BRANCH  30  33
HETATM   33  C   UNK N   1      29.621  49.456  56.975  0.00  0.00     0.079 C 
HETATM   34  C   UNK N   1      30.631  48.296  56.861  0.00  0.00     0.048 C 
HETATM   35  C   UNK N   1      30.036  50.558  55.977  0.00  0.00     0.048 C 
BRANCH  33  36
HETATM   36  O   UNK N   1      28.365  48.944  56.592  0.00  0.00    -0.388 OA
HETATM   37  H   UNK N   1      28.128  48.202  57.210  0.00  0.00     0.210 HD
ENDBRANCH  33  36
ENDBRANCH  30  33
ENDBRANCH  27  30
ENDBRANCH  26  27
ENDBRANCH  24  26
ENDBRANCH   4  24
TORSDOF 8
ENDMDL
MODEL 9
REMARK VINA RESULT:      -5.3     18.630     20.766
REMARK  8 active torsions:
REMARK  status: ('A' for Active; 'I' for Inactive)
REMARK    1  A    between atoms: O_1  and  C_5 
REMARK    2  A    between atoms: O_2  and  C_6 
REMARK    3  A    between atoms: O_4  and  C_15 
REMARK    4  A    between atoms: C_5  and  C_6 
REMARK    5  A    between atoms: C_5  and  C_15 
REMARK    6  A    between atoms: C_6  and  C_17 
REMARK    7  A    between atoms: C_9  and  C_13 
REMARK    8  A    between atoms: C_13  and  C_17 
ROOT
HETATM    1  O   UNK N   1      46.046  48.089  62.044  0.00  0.00    -0.297 OA
HETATM    2  C   UNK N   1      48.221  55.408  59.929  0.00  0.00    -0.029 C 
HETATM    3  C   UNK N   1      45.915  52.136  61.866  0.00  0.00    -0.031 C 
HETATM    4  C   UNK N   1      49.344  56.228  59.217  0.00  0.00    -0.002 C 
HETATM    5  C   UNK N   1      49.071  54.326  60.688  0.00  0.00    -0.013 C 
HETATM    6  C   UNK N   1      46.935  52.819  60.866  0.00  0.00     0.024 C 
HETATM    7  C   UNK N   1      46.672  51.382  63.020  0.00  0.00     0.013 C 
HETATM    8  C   UNK N   1      46.381  49.227  61.755  0.00  0.00     0.135 C 
HETATM    9  C   UNK N   1      48.137  53.480  61.570  0.00  0.00    -0.070 C 
HETATM   10  C   UNK N   1      47.370  50.009  62.620  0.00  0.00     0.018 C 
HETATM   11  C   UNK N   1      47.197  54.641  59.023  0.00  0.00     0.011 C 
HETATM   12  C   UNK N   1      44.977  51.133  61.125  0.00  0.00     0.017 C 
HETATM   13  C   UNK N   1      50.475  56.275  60.297  0.00  0.00     0.007 C 
HETATM   14  C   UNK N   1      50.139  55.201  61.359  0.00  0.00     0.015 C 
HETATM   15  C   UNK N   1      46.228  53.808  59.883  0.00  0.00     0.010 C 
HETATM   16  C   UNK N   1      47.581  52.386  63.783  0.00  0.00     0.034 C 
HETATM   17  C   UNK N   1      47.446  56.379  60.893  0.00  0.00     0.016 C 
HETATM   18  C   UNK N   1      44.992  53.206  62.532  0.00  0.00     0.016 C 
HETATM   19  C   UNK N   1      49.853  53.313  59.780  0.00  0.00     0.021 C 
HETATM   20  C   UNK N   1      48.393  53.294  62.890  0.00  0.00    -0.022 C 
HETATM   21  C   UNK N   1      45.725  49.905  60.588  0.00  0.00     0.080 C 
HETATM   22  C   UNK N   1      47.663  49.187  63.910  0.00  0.00     0.023 C 
HETATM   23  C   UNK N   1      48.718  50.144  61.875  0.00  0.00     0.023 C 
ENDROOT
BRANCH   4  24
HETATM   24  C   UNK N   1      49.045  57.631  58.578  0.00  0.00    -0.011 C 
HETATM   25  C   UNK N   1      49.802  58.738  59.344  0.00  0.00     0.010 C 
BRANCH  24  26
HETATM   26  C   UNK N   1      49.425  57.651  57.073  0.00  0.00     0.039 C 
BRANCH  26  27
HETATM   27  C   UNK N   1      48.772  56.592  56.156  0.00  0.00     0.150 C 
BRANCH  27  28
HETATM   28  O   UNK N   1      47.614  57.136  55.569  0.00  0.00    -0.393 OA
HETATM   29  H   UNK N   1      46.939  56.416  55.467  0.00  0.00     0.210 HD
ENDBRANCH  27  28
BRANCH  27  30
HETATM   30  C   UNK N   1      49.759  56.031  55.084  0.00  0.00     0.180 C 
BRANCH  30  31
HETATM   31  O   UNK N   1      49.237  56.163  53.782  0.00  0.00    -0.390 OA
HETATM   32  H   UNK N   1      49.456  55.347  53.266  0.00  0.00     0.210 HD
ENDBRANCH  30  31
BRANCH  30  33
HETATM   33  C   UNK N   1      50.320  54.585  55.328  0.00  0.00     0.079 C 
HETATM   34  C   UNK N   1      51.259  54.495  56.548  0.00  0.00     0.048 C 
HETATM   35  C   UNK N   1      51.088  54.077  54.089  0.00  0.00     0.048 C 
BRANCH  33  36
HETATM   36  O   UNK N   1      49.237  53.719  55.581  0.00  0.00    -0.388 OA
HETATM   37  H   UNK N   1      49.037  53.216  54.748  0.00  0.00     0.210 HD
ENDBRANCH  33  36
ENDBRANCH  30  33
ENDBRANCH  27  30
ENDBRANCH  26  27
ENDBRANCH  24  26
ENDBRANCH   4  24
TORSDOF 8
ENDMDL
