MODEL 1
REMARK VINA RESULT:      -6.4      0.000      0.000
REMARK  5 active torsions:
REMARK  status: ('A' for Active; 'I' for Inactive)
REMARK    1  A    between atoms: O_3  and  C_8 
REMARK    2  A    between atoms: O_4  and  C_9 
REMARK    3  A    between atoms: C_10  and  C_18 
REMARK    4  A    between atoms: C_13  and  C_22 
REMARK    5  A    between atoms: C_22  and  C_26 
ROOT
HETATM    1  O   UNK N   1      32.331  43.766  59.788  0.00  0.00    -0.336 OA
HETATM    2  C   UNK N   1      31.492  43.258  58.851  0.00  0.00     0.087 A 
HETATM    3  C   UNK N   1      29.715  42.207  56.947  0.00  0.00    -0.027 A 
HETATM    4  C   UNK N   1      30.989  41.958  58.996  0.00  0.00    -0.002 A 
HETATM    5  C   UNK N   1      31.113  44.041  57.742  0.00  0.00    -0.020 A 
HETATM    6  C   UNK N   1      30.106  41.432  58.049  0.00  0.00     0.024 A 
HETATM    7  C   UNK N   1      30.219  43.508  56.801  0.00  0.00     0.020 A 
HETATM    8  C   UNK N   1      32.739  43.119  60.953  0.00  0.00     0.078 A 
HETATM    9  C   UNK N   1      31.401  41.163  60.156  0.00  0.00     0.013 A 
HETATM   10  C   UNK N   1      32.213  41.693  61.074  0.00  0.00     0.011 A 
HETATM   11  C   UNK N   1      34.271  43.082  60.973  0.00  0.00     0.051 C 
HETATM   12  C   UNK N   1      32.215  43.930  62.143  0.00  0.00     0.051 C 
ENDROOT
BRANCH   3  13
HETATM   13  C   UNK N   1      28.764  41.662  55.915  0.00  0.00     0.169 C 
HETATM   14  O   UNK N   1      28.986  42.231  54.669  0.00  0.00    -0.340 OA
HETATM   15  C   UNK N   1      28.272  41.831  53.586  0.00  0.00     0.089 A 
HETATM   16  C   UNK N   1      27.649  40.565  53.582  0.00  0.00     0.076 A 
HETATM   17  C   UNK N   1      28.140  42.687  52.490  0.00  0.00     0.074 A 
HETATM   18  C   UNK N   1      26.850  40.187  52.482  0.00  0.00     0.085 A 
HETATM   19  C   UNK N   1      27.879  39.679  54.756  0.00  0.00     0.167 C 
HETATM   20  C   UNK N   1      26.705  41.068  51.398  0.00  0.00     0.074 A 
HETATM   21  C   UNK N   1      27.355  42.310  51.397  0.00  0.00     0.071 A 
HETATM   22  O   UNK N   1      27.352  38.580  54.838  0.00  0.00    -0.292 OA
HETATM   23  C   UNK N   1      28.839  40.133  55.824  0.00  0.00     0.121 C 
BRANCH  18  24
HETATM   24  O   UNK N   1      26.225  38.992  52.468  0.00  0.00    -0.360 OA
HETATM   25  H   UNK N   1      26.608  38.212  52.894  0.00  0.00     0.217 HD
ENDBRANCH  18  24
BRANCH  21  26
HETATM   26  O   UNK N   1      27.220  43.154  50.354  0.00  0.00    -0.361 OA
HETATM   27  H   UNK N   1      27.754  43.957  50.280  0.00  0.00     0.217 HD
ENDBRANCH  21  26
ENDBRANCH   3  13
BRANCH   5  28
HETATM   28  C   UNK N   1      31.657  45.434  57.541  0.00  0.00     0.068 C 
BRANCH  28  29
HETATM   29  C   UNK N   1      30.539  46.451  57.562  0.00  0.00    -0.020 C 
HETATM   30  C   UNK N   1      29.908  46.935  58.664  0.00  0.00    -0.091 C 
HETATM   31  C   UNK N   1      28.804  47.948  58.493  0.00  0.00     0.042 C 
HETATM   32  C   UNK N   1      30.231  46.527  60.085  0.00  0.00     0.042 C 
ENDBRANCH  28  29
ENDBRANCH   5  28
TORSDOF 5
ENDMDL
MODEL 2
REMARK VINA RESULT:      -6.3      3.128      9.281
REMARK  5 active torsions:
REMARK  status: ('A' for Active; 'I' for Inactive)
REMARK    1  A    between atoms: O_3  and  C_8 
REMARK    2  A    between atoms: O_4  and  C_9 
REMARK    3  A    between atoms: C_10  and  C_18 
REMARK    4  A    between atoms: C_13  and  C_22 
REMARK    5  A    between atoms: C_22  and  C_26 
ROOT
HETATM    1  O   UNK N   1      29.878  41.913  57.347  0.00  0.00    -0.336 OA
HETATM    2  C   UNK N   1      30.683  42.197  58.401  0.00  0.00     0.087 A 
HETATM    3  C   UNK N   1      32.380  42.740  60.572  0.00  0.00    -0.027 A 
HETATM    4  C   UNK N   1      30.678  41.364  59.528  0.00  0.00    -0.002 A 
HETATM    5  C   UNK N   1      31.536  43.319  58.358  0.00  0.00    -0.020 A 
HETATM    6  C   UNK N   1      31.520  41.632  60.610  0.00  0.00     0.024 A 
HETATM    7  C   UNK N   1      32.384  43.576  59.445  0.00  0.00     0.020 A 
HETATM    8  C   UNK N   1      29.031  40.811  57.242  0.00  0.00     0.078 A 
HETATM    9  C   UNK N   1      29.780  40.206  59.550  0.00  0.00     0.013 A 
HETATM   10  C   UNK N   1      29.010  39.938  58.491  0.00  0.00     0.011 A 
HETATM   11  C   UNK N   1      27.610  41.317  56.973  0.00  0.00     0.051 C 
HETATM   12  C   UNK N   1      29.521  39.959  56.065  0.00  0.00     0.051 C 
ENDROOT
BRANCH   3  13
HETATM   13  C   UNK N   1      33.297  43.049  61.725  0.00  0.00     0.169 C 
HETATM   14  O   UNK N   1      34.384  43.811  61.320  0.00  0.00    -0.340 OA
HETATM   15  C   UNK N   1      35.301  44.247  62.221  0.00  0.00     0.089 A 
HETATM   16  C   UNK N   1      34.954  44.347  63.585  0.00  0.00     0.076 A 
HETATM   17  C   UNK N   1      36.590  44.573  61.794  0.00  0.00     0.074 A 
HETATM   18  C   UNK N   1      35.933  44.733  64.525  0.00  0.00     0.085 A 
HETATM   19  C   UNK N   1      33.547  44.042  63.964  0.00  0.00     0.167 C 
HETATM   20  C   UNK N   1      37.233  45.034  64.085  0.00  0.00     0.074 A 
HETATM   21  C   UNK N   1      37.559  44.963  62.724  0.00  0.00     0.071 A 
HETATM   22  O   UNK N   1      33.178  44.080  65.128  0.00  0.00    -0.292 OA
HETATM   23  C   UNK N   1      32.553  43.749  62.870  0.00  0.00     0.121 C 
BRANCH  18  24
HETATM   24  O   UNK N   1      35.630  44.813  65.837  0.00  0.00    -0.360 OA
HETATM   25  H   UNK N   1      35.478  44.023  66.374  0.00  0.00     0.217 HD
ENDBRANCH  18  24
BRANCH  21  26
HETATM   26  O   UNK N   1      38.805  45.257  62.300  0.00  0.00    -0.361 OA
HETATM   27  H   UNK N   1      39.586  44.869  62.718  0.00  0.00     0.217 HD
ENDBRANCH  21  26
ENDBRANCH   3  13
BRANCH   5  28
HETATM   28  C   UNK N   1      31.547  44.252  57.172  0.00  0.00     0.068 C 
BRANCH  28  29
HETATM   29  C   UNK N   1      31.298  45.676  57.612  0.00  0.00    -0.020 C 
HETATM   30  C   UNK N   1      30.108  46.203  58.006  0.00  0.00    -0.091 C 
HETATM   31  C   UNK N   1      30.046  47.655  58.409  0.00  0.00     0.042 C 
HETATM   32  C   UNK N   1      28.808  45.431  58.073  0.00  0.00     0.042 C 
ENDBRANCH  28  29
ENDBRANCH   5  28
TORSDOF 5
ENDMDL
MODEL 3
REMARK VINA RESULT:      -6.1      1.918      2.784
REMARK  5 active torsions:
REMARK  status: ('A' for Active; 'I' for Inactive)
REMARK    1  A    between atoms: O_3  and  C_8 
REMARK    2  A    between atoms: O_4  and  C_9 
REMARK    3  A    between atoms: C_10  and  C_18 
REMARK    4  A    between atoms: C_13  and  C_22 
REMARK    5  A    between atoms: C_22  and  C_26 
ROOT
HETATM    1  O   UNK N   1      31.303  41.841  59.268  0.00  0.00    -0.336 OA
HETATM    2  C   UNK N   1      30.612  41.860  58.100  0.00  0.00     0.087 A 
HETATM    3  C   UNK N   1      29.138  41.912  55.711  0.00  0.00    -0.027 A 
HETATM    4  C   UNK N   1      29.632  40.889  57.853  0.00  0.00    -0.002 A 
HETATM    5  C   UNK N   1      30.868  42.863  57.144  0.00  0.00    -0.020 A 
HETATM    6  C   UNK N   1      28.898  40.912  56.664  0.00  0.00     0.024 A 
HETATM    7  C   UNK N   1      30.121  42.884  55.957  0.00  0.00     0.020 A 
HETATM    8  C   UNK N   1      31.110  40.939  60.314  0.00  0.00     0.078 A 
HETATM    9  C   UNK N   1      29.388  39.854  58.862  0.00  0.00     0.013 A 
HETATM   10  C   UNK N   1      30.068  39.869  60.011  0.00  0.00     0.011 A 
HETATM   11  C   UNK N   1      32.448  40.253  60.612  0.00  0.00     0.051 C 
HETATM   12  C   UNK N   1      30.642  41.738  61.535  0.00  0.00     0.051 C 
ENDROOT
BRANCH   3  13
HETATM   13  C   UNK N   1      28.360  41.959  54.423  0.00  0.00     0.169 C 
HETATM   14  O   UNK N   1      27.370  42.931  54.462  0.00  0.00    -0.340 OA
HETATM   15  C   UNK N   1      26.593  43.174  53.376  0.00  0.00     0.089 A 
HETATM   16  C   UNK N   1      27.045  42.809  52.090  0.00  0.00     0.076 A 
HETATM   17  C   UNK N   1      25.338  43.765  53.542  0.00  0.00     0.074 A 
HETATM   18  C   UNK N   1      26.201  43.001  50.976  0.00  0.00     0.085 A 
HETATM   19  C   UNK N   1      28.416  42.238  51.977  0.00  0.00     0.167 C 
HETATM   20  C   UNK N   1      24.932  43.573  51.160  0.00  0.00     0.074 A 
HETATM   21  C   UNK N   1      24.504  43.963  52.437  0.00  0.00     0.071 A 
HETATM   22  O   UNK N   1      28.867  41.873  50.903  0.00  0.00    -0.292 OA
HETATM   23  C   UNK N   1      29.276  42.180  53.213  0.00  0.00     0.121 C 
BRANCH  18  24
HETATM   24  O   UNK N   1      26.604  42.637  49.741  0.00  0.00    -0.360 OA
HETATM   25  H   UNK N   1      26.918  41.742  49.550  0.00  0.00     0.217 HD
ENDBRANCH  18  24
BRANCH  21  26
HETATM   26  O   UNK N   1      23.288  44.517  52.614  0.00  0.00    -0.361 OA
HETATM   27  H   UNK N   1      22.932  45.166  51.992  0.00  0.00     0.217 HD
ENDBRANCH  21  26
ENDBRANCH   3  13
BRANCH   5  28
HETATM   28  C   UNK N   1      31.935  43.907  57.367  0.00  0.00     0.068 C 
BRANCH  28  29
HETATM   29  C   UNK N   1      31.344  45.297  57.294  0.00  0.00    -0.020 C 
HETATM   30  C   UNK N   1      30.645  45.929  58.273  0.00  0.00    -0.091 C 
HETATM   31  C   UNK N   1      30.124  47.321  58.021  0.00  0.00     0.042 C 
HETATM   32  C   UNK N   1      30.338  45.332  59.630  0.00  0.00     0.042 C 
ENDBRANCH  28  29
ENDBRANCH   5  28
TORSDOF 5
ENDMDL
MODEL 4
REMARK VINA RESULT:      -6.0      2.392      4.535
REMARK  5 active torsions:
REMARK  status: ('A' for Active; 'I' for Inactive)
REMARK    1  A    between atoms: O_3  and  C_8 
REMARK    2  A    between atoms: O_4  and  C_9 
REMARK    3  A    between atoms: C_10  and  C_18 
REMARK    4  A    between atoms: C_13  and  C_22 
REMARK    5  A    between atoms: C_22  and  C_26 
ROOT
HETATM    1  O   UNK N   1      31.049  41.819  59.512  0.00  0.00    -0.336 OA
HETATM    2  C   UNK N   1      30.378  41.870  58.334  0.00  0.00     0.087 A 
HETATM    3  C   UNK N   1      29.029  41.947  55.872  0.00  0.00    -0.027 A 
HETATM    4  C   UNK N   1      30.884  42.635  57.275  0.00  0.00    -0.002 A 
HETATM    5  C   UNK N   1      29.182  41.142  58.169  0.00  0.00    -0.020 A 
HETATM    6  C   UNK N   1      30.214  42.676  56.049  0.00  0.00     0.024 A 
HETATM    7  C   UNK N   1      28.520  41.182  56.933  0.00  0.00     0.020 A 
HETATM    8  C   UNK N   1      32.263  42.446  59.786  0.00  0.00     0.078 A 
HETATM    9  C   UNK N   1      32.127  43.386  57.472  0.00  0.00     0.013 A 
HETATM   10  C   UNK N   1      32.778  43.304  58.636  0.00  0.00     0.011 A 
HETATM   11  C   UNK N   1      32.080  43.336  61.019  0.00  0.00     0.051 C 
HETATM   12  C   UNK N   1      33.297  41.351  60.073  0.00  0.00     0.051 C 
ENDROOT
BRANCH   3  13
HETATM   13  C   UNK N   1      28.290  41.975  54.561  0.00  0.00     0.169 C 
HETATM   14  O   UNK N   1      27.300  42.948  54.556  0.00  0.00    -0.340 OA
HETATM   15  C   UNK N   1      26.557  43.177  53.443  0.00  0.00     0.089 A 
HETATM   16  C   UNK N   1      27.048  42.792  52.177  0.00  0.00     0.076 A 
HETATM   17  C   UNK N   1      25.299  43.770  53.562  0.00  0.00     0.074 A 
HETATM   18  C   UNK N   1      26.239  42.968  51.035  0.00  0.00     0.085 A 
HETATM   19  C   UNK N   1      28.421  42.219  52.115  0.00  0.00     0.167 C 
HETATM   20  C   UNK N   1      24.966  43.544  51.172  0.00  0.00     0.074 A 
HETATM   21  C   UNK N   1      24.500  43.953  52.429  0.00  0.00     0.071 A 
HETATM   22  O   UNK N   1      28.905  41.838  51.060  0.00  0.00    -0.292 OA
HETATM   23  C   UNK N   1      29.243  42.178  53.376  0.00  0.00     0.121 C 
BRANCH  18  24
HETATM   24  O   UNK N   1      26.679  42.587  49.818  0.00  0.00    -0.360 OA
HETATM   25  H   UNK N   1      27.332  43.104  49.327  0.00  0.00     0.217 HD
ENDBRANCH  18  24
BRANCH  21  26
HETATM   26  O   UNK N   1      23.279  44.510  52.561  0.00  0.00    -0.361 OA
HETATM   27  H   UNK N   1      23.104  45.197  53.220  0.00  0.00     0.217 HD
ENDBRANCH  21  26
ENDBRANCH   3  13
BRANCH   5  28
HETATM   28  C   UNK N   1      28.595  40.330  59.298  0.00  0.00     0.068 C 
BRANCH  28  29
HETATM   29  C   UNK N   1      28.542  38.865  58.930  0.00  0.00    -0.020 C 
HETATM   30  C   UNK N   1      29.521  37.944  59.136  0.00  0.00    -0.091 C 
HETATM   31  C   UNK N   1      29.294  36.520  58.696  0.00  0.00     0.042 C 
HETATM   32  C   UNK N   1      30.854  38.242  59.787  0.00  0.00     0.042 C 
ENDBRANCH  28  29
ENDBRANCH   5  28
TORSDOF 5
ENDMDL
MODEL 5
REMARK VINA RESULT:      -6.0      2.626      5.646
REMARK  5 active torsions:
REMARK  status: ('A' for Active; 'I' for Inactive)
REMARK    1  A    between atoms: O_3  and  C_8 
REMARK    2  A    between atoms: O_4  and  C_9 
REMARK    3  A    between atoms: C_10  and  C_18 
REMARK    4  A    between atoms: C_13  and  C_22 
REMARK    5  A    between atoms: C_22  and  C_26 
ROOT
HETATM    1  O   UNK N   1      31.746  46.488  63.626  0.00  0.00    -0.336 OA
HETATM    2  C   UNK N   1      31.595  45.722  62.517  0.00  0.00     0.087 A 
HETATM    3  C   UNK N   1      31.301  44.176  60.191  0.00  0.00    -0.027 A 
HETATM    4  C   UNK N   1      30.656  46.085  61.541  0.00  0.00    -0.002 A 
HETATM    5  C   UNK N   1      32.389  44.572  62.338  0.00  0.00    -0.020 A 
HETATM    6  C   UNK N   1      30.508  45.316  60.384  0.00  0.00     0.024 A 
HETATM    7  C   UNK N   1      32.240  43.811  61.169  0.00  0.00     0.020 A 
HETATM    8  C   UNK N   1      31.064  47.673  63.898  0.00  0.00     0.078 A 
HETATM    9  C   UNK N   1      29.839  47.283  61.753  0.00  0.00     0.013 A 
HETATM   10  C   UNK N   1      30.021  48.031  62.845  0.00  0.00     0.011 A 
HETATM   11  C   UNK N   1      30.363  47.527  65.253  0.00  0.00     0.051 C 
HETATM   12  C   UNK N   1      32.098  48.802  63.957  0.00  0.00     0.051 C 
ENDROOT
BRANCH   3  13
HETATM   13  C   UNK N   1      31.160  43.333  58.952  0.00  0.00     0.169 C 
HETATM   14  O   UNK N   1      29.827  43.144  58.615  0.00  0.00    -0.340 OA
HETATM   15  C   UNK N   1      29.484  42.460  57.494  0.00  0.00     0.089 A 
HETATM   16  C   UNK N   1      30.409  42.335  56.436  0.00  0.00     0.076 A 
HETATM   17  C   UNK N   1      28.224  41.865  57.405  0.00  0.00     0.074 A 
HETATM   18  C   UNK N   1      30.071  41.563  55.305  0.00  0.00     0.085 A 
HETATM   19  C   UNK N   1      31.712  43.044  56.570  0.00  0.00     0.167 C 
HETATM   20  C   UNK N   1      28.809  40.949  55.239  0.00  0.00     0.074 A 
HETATM   21  C   UNK N   1      27.885  41.106  56.281  0.00  0.00     0.071 A 
HETATM   22  O   UNK N   1      32.574  42.961  55.709  0.00  0.00    -0.292 OA
HETATM   23  C   UNK N   1      31.928  43.932  57.767  0.00  0.00     0.121 C 
BRANCH  18  24
HETATM   24  O   UNK N   1      30.949  41.410  54.292  0.00  0.00    -0.360 OA
HETATM   25  H   UNK N   1      31.809  40.988  54.422  0.00  0.00     0.217 HD
ENDBRANCH  18  24
BRANCH  21  26
HETATM   26  O   UNK N   1      26.672  40.521  56.216  0.00  0.00    -0.361 OA
HETATM   27  H   UNK N   1      26.386  39.874  56.877  0.00  0.00     0.217 HD
ENDBRANCH  21  26
ENDBRANCH   3  13
BRANCH   5  28
HETATM   28  C   UNK N   1      33.390  44.138  63.382  0.00  0.00     0.068 C 
BRANCH  28  29
HETATM   29  C   UNK N   1      34.794  44.176  62.823  0.00  0.00    -0.020 C 
HETATM   30  C   UNK N   1      35.612  45.260  62.766  0.00  0.00    -0.091 C 
HETATM   31  C   UNK N   1      36.987  45.112  62.166  0.00  0.00     0.042 C 
HETATM   32  C   UNK N   1      35.243  46.640  63.268  0.00  0.00     0.042 C 
ENDBRANCH  28  29
ENDBRANCH   5  28
TORSDOF 5
ENDMDL
MODEL 6
REMARK VINA RESULT:      -5.9      4.034      7.089
REMARK  5 active torsions:
REMARK  status: ('A' for Active; 'I' for Inactive)
REMARK    1  A    between atoms: O_3  and  C_8 
REMARK    2  A    between atoms: O_4  and  C_9 
REMARK    3  A    between atoms: C_10  and  C_18 
REMARK    4  A    between atoms: C_13  and  C_22 
REMARK    5  A    between atoms: C_22  and  C_26 
ROOT
HETATM    1  O   UNK N   1      36.552  46.689  63.956  0.00  0.00    -0.336 OA
HETATM    2  C   UNK N   1      35.617  45.944  63.316  0.00  0.00     0.087 A 
HETATM    3  C   UNK N   1      33.697  44.357  62.018  0.00  0.00    -0.027 A 
HETATM    4  C   UNK N   1      36.014  44.971  62.389  0.00  0.00    -0.002 A 
HETATM    5  C   UNK N   1      34.248  46.136  63.594  0.00  0.00    -0.020 A 
HETATM    6  C   UNK N   1      35.061  44.181  61.741  0.00  0.00     0.024 A 
HETATM    7  C   UNK N   1      33.299  45.333  62.945  0.00  0.00     0.020 A 
HETATM    8  C   UNK N   1      37.933  46.562  63.813  0.00  0.00     0.078 A 
HETATM    9  C   UNK N   1      37.443  44.793  62.116  0.00  0.00     0.013 A 
HETATM   10  C   UNK N   1      38.345  45.526  62.773  0.00  0.00     0.011 A 
HETATM   11  C   UNK N   1      38.503  47.924  63.402  0.00  0.00     0.051 C 
HETATM   12  C   UNK N   1      38.505  46.138  65.170  0.00  0.00     0.051 C 
ENDROOT
BRANCH   3  13
HETATM   13  C   UNK N   1      32.652  43.518  61.333  0.00  0.00     0.169 C 
HETATM   14  O   UNK N   1      32.096  44.183  60.250  0.00  0.00    -0.340 OA
HETATM   15  C   UNK N   1      31.174  43.575  59.460  0.00  0.00     0.089 A 
HETATM   16  C   UNK N   1      31.101  42.166  59.421  0.00  0.00     0.076 A 
HETATM   17  C   UNK N   1      30.288  44.350  58.710  0.00  0.00     0.074 A 
HETATM   18  C   UNK N   1      30.094  41.544  58.653  0.00  0.00     0.085 A 
HETATM   19  C   UNK N   1      32.113  41.400  60.199  0.00  0.00     0.167 C 
HETATM   20  C   UNK N   1      29.193  42.336  57.922  0.00  0.00     0.074 A 
HETATM   21  C   UNK N   1      29.294  43.734  57.942  0.00  0.00     0.071 A 
HETATM   22  O   UNK N   1      32.098  40.180  60.236  0.00  0.00    -0.292 OA
HETATM   23  C   UNK N   1      33.213  42.160  60.894  0.00  0.00     0.121 C 
BRANCH  18  24
HETATM   24  O   UNK N   1      29.991  40.199  58.620  0.00  0.00    -0.360 OA
HETATM   25  H   UNK N   1      30.762  39.626  58.728  0.00  0.00     0.217 HD
ENDBRANCH  18  24
BRANCH  21  26
HETATM   26  O   UNK N   1      28.433  44.494  57.237  0.00  0.00    -0.361 OA
HETATM   27  H   UNK N   1      28.614  44.747  56.321  0.00  0.00     0.217 HD
ENDBRANCH  21  26
ENDBRANCH   3  13
BRANCH   5  28
HETATM   28  C   UNK N   1      33.785  47.193  64.566  0.00  0.00     0.068 C 
BRANCH  28  29
HETATM   29  C   UNK N   1      33.585  48.515  63.861  0.00  0.00    -0.020 C 
HETATM   30  C   UNK N   1      34.327  49.641  64.030  0.00  0.00    -0.091 C 
HETATM   31  C   UNK N   1      33.978  50.877  63.240  0.00  0.00     0.042 C 
HETATM   32  C   UNK N   1      35.505  49.758  64.973  0.00  0.00     0.042 C 
ENDBRANCH  28  29
ENDBRANCH   5  28
TORSDOF 5
ENDMDL
MODEL 7
REMARK VINA RESULT:      -5.9      7.839     12.731
REMARK  5 active torsions:
REMARK  status: ('A' for Active; 'I' for Inactive)
REMARK    1  A    between atoms: O_3  and  C_8 
REMARK    2  A    between atoms: O_4  and  C_9 
REMARK    3  A    between atoms: C_10  and  C_18 
REMARK    4  A    between atoms: C_13  and  C_22 
REMARK    5  A    between atoms: C_22  and  C_26 
ROOT
HETATM    1  O   UNK N   1      35.638  45.725  63.260  0.00  0.00    -0.336 OA
HETATM    2  C   UNK N   1      35.125  46.958  63.498  0.00  0.00     0.087 A 
HETATM    3  C   UNK N   1      34.059  49.519  63.937  0.00  0.00    -0.027 A 
HETATM    4  C   UNK N   1      35.880  48.099  63.194  0.00  0.00    -0.002 A 
HETATM    5  C   UNK N   1      33.828  47.093  64.034  0.00  0.00    -0.020 A 
HETATM    6  C   UNK N   1      35.352  49.375  63.413  0.00  0.00     0.024 A 
HETATM    7  C   UNK N   1      33.304  48.377  64.243  0.00  0.00     0.020 A 
HETATM    8  C   UNK N   1      36.880  45.456  62.685  0.00  0.00     0.078 A 
HETATM    9  C   UNK N   1      37.227  47.933  62.640  0.00  0.00     0.013 A 
HETATM   10  C   UNK N   1      37.702  46.708  62.398  0.00  0.00     0.011 A 
HETATM   11  C   UNK N   1      37.670  44.559  63.643  0.00  0.00     0.051 C 
HETATM   12  C   UNK N   1      36.631  44.727  61.361  0.00  0.00     0.051 C 
ENDROOT
BRANCH   3  13
HETATM   13  C   UNK N   1      33.470  50.883  64.181  0.00  0.00     0.169 C 
HETATM   14  O   UNK N   1      34.215  51.877  63.563  0.00  0.00    -0.340 OA
HETATM   15  C   UNK N   1      33.818  53.174  63.611  0.00  0.00     0.089 A 
HETATM   16  C   UNK N   1      32.466  53.487  63.864  0.00  0.00     0.076 A 
HETATM   17  C   UNK N   1      34.758  54.192  63.432  0.00  0.00     0.074 A 
HETATM   18  C   UNK N   1      32.076  54.838  63.984  0.00  0.00     0.085 A 
HETATM   19  C   UNK N   1      31.506  52.355  63.986  0.00  0.00     0.167 C 
HETATM   20  C   UNK N   1      33.035  55.851  63.826  0.00  0.00     0.074 A 
HETATM   21  C   UNK N   1      34.370  55.531  63.543  0.00  0.00     0.071 A 
HETATM   22  O   UNK N   1      30.325  52.544  64.232  0.00  0.00    -0.292 OA
HETATM   23  C   UNK N   1      32.005  50.957  63.730  0.00  0.00     0.121 C 
BRANCH  18  24
HETATM   24  O   UNK N   1      30.793  55.159  64.249  0.00  0.00    -0.360 OA
HETATM   25  H   UNK N   1      30.504  56.079  64.333  0.00  0.00     0.217 HD
ENDBRANCH  18  24
BRANCH  21  26
HETATM   26  O   UNK N   1      35.291  56.503  63.386  0.00  0.00    -0.361 OA
HETATM   27  H   UNK N   1      35.042  57.398  63.114  0.00  0.00     0.217 HD
ENDBRANCH  21  26
ENDBRANCH   3  13
BRANCH   5  28
HETATM   28  C   UNK N   1      32.999  45.885  64.397  0.00  0.00     0.068 C 
BRANCH  28  29
HETATM   29  C   UNK N   1      31.926  45.644  63.361  0.00  0.00    -0.020 C 
HETATM   30  C   UNK N   1      31.964  44.727  62.358  0.00  0.00    -0.091 C 
HETATM   31  C   UNK N   1      30.797  44.629  61.408  0.00  0.00     0.042 C 
HETATM   32  C   UNK N   1      33.113  43.773  62.111  0.00  0.00     0.042 C 
ENDBRANCH  28  29
ENDBRANCH   5  28
TORSDOF 5
ENDMDL
MODEL 8
REMARK VINA RESULT:      -5.8      5.099      7.339
REMARK  5 active torsions:
REMARK  status: ('A' for Active; 'I' for Inactive)
REMARK    1  A    between atoms: O_3  and  C_8 
REMARK    2  A    between atoms: O_4  and  C_9 
REMARK    3  A    between atoms: C_10  and  C_18 
REMARK    4  A    between atoms: C_13  and  C_22 
REMARK    5  A    between atoms: C_22  and  C_26 
ROOT
HETATM    1  O   UNK N   1      32.050  43.667  60.522  0.00  0.00    -0.336 OA
HETATM    2  C   UNK N   1      31.242  44.571  59.913  0.00  0.00     0.087 A 
HETATM    3  C   UNK N   1      29.540  46.403  58.636  0.00  0.00    -0.027 A 
HETATM    4  C   UNK N   1      31.186  44.626  58.514  0.00  0.00    -0.002 A 
HETATM    5  C   UNK N   1      30.450  45.444  60.685  0.00  0.00    -0.020 A 
HETATM    6  C   UNK N   1      30.341  45.537  57.876  0.00  0.00     0.024 A 
HETATM    7  C   UNK N   1      29.597  46.350  60.037  0.00  0.00     0.020 A 
HETATM    8  C   UNK N   1      32.840  42.716  59.878  0.00  0.00     0.078 A 
HETATM    9  C   UNK N   1      32.023  43.710  57.734  0.00  0.00     0.013 A 
HETATM   10  C   UNK N   1      32.795  42.816  58.357  0.00  0.00     0.011 A 
HETATM   11  C   UNK N   1      34.290  42.900  60.340  0.00  0.00     0.051 C 
HETATM   12  C   UNK N   1      32.327  41.331  60.286  0.00  0.00     0.051 C 
ENDROOT
BRANCH   3  13
HETATM   13  C   UNK N   1      28.621  47.393  57.970  0.00  0.00     0.169 C 
HETATM   14  O   UNK N   1      27.675  47.884  58.859  0.00  0.00    -0.340 OA
HETATM   15  C   UNK N   1      26.787  48.835  58.472  0.00  0.00     0.089 A 
HETATM   16  C   UNK N   1      27.076  49.659  57.364  0.00  0.00     0.076 A 
HETATM   17  C   UNK N   1      25.580  48.976  59.161  0.00  0.00     0.074 A 
HETATM   18  C   UNK N   1      26.117  50.596  56.925  0.00  0.00     0.085 A 
HETATM   19  C   UNK N   1      28.405  49.497  56.712  0.00  0.00     0.167 C 
HETATM   20  C   UNK N   1      24.898  50.710  57.611  0.00  0.00     0.074 A 
HETATM   21  C   UNK N   1      24.632  49.910  58.731  0.00  0.00     0.071 A 
HETATM   22  O   UNK N   1      28.718  50.154  55.731  0.00  0.00    -0.292 OA
HETATM   23  C   UNK N   1      29.399  48.547  57.328  0.00  0.00     0.121 C 
BRANCH  18  24
HETATM   24  O   UNK N   1      26.364  51.378  55.853  0.00  0.00    -0.360 OA
HETATM   25  H   UNK N   1      26.729  51.018  55.033  0.00  0.00     0.217 HD
ENDBRANCH  18  24
BRANCH  21  26
HETATM   26  O   UNK N   1      23.464  50.022  59.394  0.00  0.00    -0.361 OA
HETATM   27  H   UNK N   1      22.616  49.866  58.955  0.00  0.00     0.217 HD
ENDBRANCH  21  26
ENDBRANCH   3  13
BRANCH   5  28
HETATM   28  C   UNK N   1      30.507  45.430  62.194  0.00  0.00     0.068 C 
BRANCH  28  29
HETATM   29  C   UNK N   1      31.450  46.496  62.702  0.00  0.00    -0.020 C 
HETATM   30  C   UNK N   1      32.684  46.296  63.235  0.00  0.00    -0.091 C 
HETATM   31  C   UNK N   1      33.487  47.486  63.696  0.00  0.00     0.042 C 
HETATM   32  C   UNK N   1      33.332  44.939  63.410  0.00  0.00     0.042 C 
ENDBRANCH  28  29
ENDBRANCH   5  28
TORSDOF 5
ENDMDL
MODEL 9
REMARK VINA RESULT:      -5.8      4.657     10.965
REMARK  5 active torsions:
REMARK  status: ('A' for Active; 'I' for Inactive)
REMARK    1  A    between atoms: O_3  and  C_8 
REMARK    2  A    between atoms: O_4  and  C_9 
REMARK    3  A    between atoms: C_10  and  C_18 
REMARK    4  A    between atoms: C_13  and  C_22 
REMARK    5  A    between atoms: C_22  and  C_26 
ROOT
HETATM    1  O   UNK N   1      30.559  43.121  60.325  0.00  0.00    -0.336 OA
HETATM    2  C   UNK N   1      31.470  43.745  61.115  0.00  0.00     0.087 A 
HETATM    3  C   UNK N   1      33.384  45.046  62.705  0.00  0.00    -0.027 A 
HETATM    4  C   UNK N   1      32.737  43.177  61.302  0.00  0.00    -0.002 A 
HETATM    5  C   UNK N   1      31.148  44.970  61.733  0.00  0.00    -0.020 A 
HETATM    6  C   UNK N   1      33.691  43.822  62.093  0.00  0.00     0.024 A 
HETATM    7  C   UNK N   1      32.114  45.615  62.520  0.00  0.00     0.020 A 
HETATM    8  C   UNK N   1      30.769  41.939  59.617  0.00  0.00     0.078 A 
HETATM    9  C   UNK N   1      33.046  41.901  60.650  0.00  0.00     0.013 A 
HETATM   10  C   UNK N   1      32.139  41.316  59.863  0.00  0.00     0.011 A 
HETATM   11  C   UNK N   1      29.690  40.932  60.029  0.00  0.00     0.051 C 
HETATM   12  C   UNK N   1      30.646  42.264  58.124  0.00  0.00     0.051 C 
ENDROOT
BRANCH   3  13
HETATM   13  C   UNK N   1      34.395  45.760  63.561  0.00  0.00     0.169 C 
HETATM   14  O   UNK N   1      35.693  45.415  63.210  0.00  0.00    -0.340 OA
HETATM   15  C   UNK N   1      36.756  45.995  63.824  0.00  0.00     0.089 A 
HETATM   16  C   UNK N   1      36.604  47.242  64.466  0.00  0.00     0.076 A 
HETATM   17  C   UNK N   1      37.989  45.340  63.835  0.00  0.00     0.074 A 
HETATM   18  C   UNK N   1      37.695  47.804  65.161  0.00  0.00     0.085 A 
HETATM   19  C   UNK N   1      35.278  47.913  64.365  0.00  0.00     0.167 C 
HETATM   20  C   UNK N   1      38.923  47.123  65.186  0.00  0.00     0.074 A 
HETATM   21  C   UNK N   1      39.073  45.900  64.518  0.00  0.00     0.071 A 
HETATM   22  O   UNK N   1      35.061  48.981  64.916  0.00  0.00    -0.292 OA
HETATM   23  C   UNK N   1      34.214  47.282  63.504  0.00  0.00     0.121 C 
BRANCH  18  24
HETATM   24  O   UNK N   1      37.565  48.984  65.802  0.00  0.00    -0.360 OA
HETATM   25  H   UNK N   1      37.773  49.824  65.370  0.00  0.00     0.217 HD
ENDBRANCH  18  24
BRANCH  21  26
HETATM   26  O   UNK N   1      40.254  45.248  64.537  0.00  0.00    -0.361 OA
HETATM   27  H   UNK N   1      40.810  45.186  63.748  0.00  0.00     0.217 HD
ENDBRANCH  21  26
ENDBRANCH   3  13
BRANCH   5  28
HETATM   28  C   UNK N   1      29.783  45.595  61.575  0.00  0.00     0.068 C 
BRANCH  28  29
HETATM   29  C   UNK N   1      29.871  46.871  60.768  0.00  0.00    -0.020 C 
HETATM   30  C   UNK N   1      29.757  46.982  59.418  0.00  0.00    -0.091 C 
HETATM   31  C   UNK N   1      29.878  48.343  58.781  0.00  0.00     0.042 C 
HETATM   32  C   UNK N   1      29.514  45.820  58.480  0.00  0.00     0.042 C 
ENDBRANCH  28  29
ENDBRANCH   5  28
TORSDOF 5
ENDMDL
