MODEL 1
REMARK VINA RESULT:      -6.7      0.000      0.000
REMARK  9 active torsions:
REMARK  status: ('A' for Active; 'I' for Inactive)
REMARK    1  A    between atoms: O_2  and  C_8 
REMARK    2  A    between atoms: O_3  and  C_9 
REMARK    3  A    between atoms: O_4  and  C_10 
REMARK    4  A    between atoms: O_5  and  C_11 
REMARK    5  A    between atoms: C_12  and  C_19 
REMARK    6  A    between atoms: C_14  and  C_21 
REMARK    7  A    between atoms: C_15  and  C_22 
REMARK    8  A    between atoms: C_21  and  C_26 
REMARK    9  A    between atoms: C_22  and  C_27 
ROOT
HETATM    1  C   UNK N   1      47.952  31.864  45.581  0.00  0.00     0.106 A 
HETATM    2  C   UNK N   1      46.817  32.433  46.217  0.00  0.00     0.106 A 
HETATM    3  C   UNK N   1      49.283  32.294  47.597  0.00  0.00    -0.018 A 
HETATM    4  C   UNK N   1      49.189  31.784  46.269  0.00  0.00    -0.010 A 
HETATM    5  C   UNK N   1      46.934  32.959  47.516  0.00  0.00    -0.018 A 
HETATM    6  C   UNK N   1      48.158  32.893  48.186  0.00  0.00     0.020 A 
ENDROOT
BRANCH   3   7
HETATM    7  C   UNK N   1      50.563  32.227  48.412  0.00  0.00     0.169 C 
HETATM    8  O   UNK N   1      51.129  33.488  48.529  0.00  0.00    -0.340 OA
HETATM    9  C   UNK N   1      52.247  33.686  49.277  0.00  0.00     0.089 A 
HETATM   10  C   UNK N   1      52.585  32.773  50.296  0.00  0.00     0.076 A 
HETATM   11  C   UNK N   1      53.067  34.789  49.018  0.00  0.00     0.074 A 
HETATM   12  C   UNK N   1      53.775  32.957  51.032  0.00  0.00     0.085 A 
HETATM   13  C   UNK N   1      51.644  31.648  50.556  0.00  0.00     0.167 C 
HETATM   14  C   UNK N   1      54.599  34.059  50.748  0.00  0.00     0.074 A 
HETATM   15  C   UNK N   1      54.244  34.975  49.748  0.00  0.00     0.071 A 
HETATM   16  O   UNK N   1      51.881  30.802  51.403  0.00  0.00    -0.292 OA
HETATM   17  C   UNK N   1      50.339  31.614  49.805  0.00  0.00     0.121 C 
BRANCH  12  18
HETATM   18  O   UNK N   1      54.123  32.086  52.001  0.00  0.00    -0.360 OA
HETATM   19  H   UNK N   1      54.736  32.328  52.710  0.00  0.00     0.217 HD
ENDBRANCH  12  18
BRANCH  15  20
HETATM   20  O   UNK N   1      55.033  36.035  49.476  0.00  0.00    -0.361 OA
HETATM   21  H   UNK N   1      54.795  36.684  48.799  0.00  0.00     0.217 HD
ENDBRANCH  15  20
ENDBRANCH   3   7
BRANCH   4  22
HETATM   22  C   UNK N   1      50.385  31.152  45.559  0.00  0.00     0.069 C 
BRANCH  22  23
HETATM   23  C   UNK N   1      51.195  32.214  44.846  0.00  0.00    -0.020 C 
HETATM   24  C   UNK N   1      51.545  32.232  43.534  0.00  0.00    -0.091 C 
HETATM   25  C   UNK N   1      52.380  33.377  43.017  0.00  0.00     0.042 C 
HETATM   26  C   UNK N   1      51.163  31.168  42.532  0.00  0.00     0.042 C 
ENDBRANCH  22  23
ENDBRANCH   4  22
BRANCH   1  27
HETATM   27  O   UNK N   1      47.882  31.384  44.316  0.00  0.00    -0.357 OA
HETATM   28  H   UNK N   1      47.451  30.560  44.061  0.00  0.00     0.218 HD
ENDBRANCH   1  27
BRANCH   5  29
HETATM   29  C   UNK N   1      45.749  33.589  48.212  0.00  0.00     0.068 C 
BRANCH  29  30
HETATM   30  C   UNK N   1      45.971  33.579  49.708  0.00  0.00    -0.020 C 
HETATM   31  C   UNK N   1      46.503  34.579  50.455  0.00  0.00    -0.091 C 
HETATM   32  C   UNK N   1      46.656  34.378  51.943  0.00  0.00     0.042 C 
HETATM   33  C   UNK N   1      46.966  35.906  49.901  0.00  0.00     0.042 C 
ENDBRANCH  29  30
ENDBRANCH   5  29
BRANCH   2  34
HETATM   34  O   UNK N   1      45.610  32.488  45.604  0.00  0.00    -0.357 OA
HETATM   35  H   UNK N   1      44.939  31.799  45.650  0.00  0.00     0.218 HD
ENDBRANCH   2  34
TORSDOF 9
ENDMDL
MODEL 2
REMARK VINA RESULT:      -6.3     22.109     25.349
REMARK  9 active torsions:
REMARK  status: ('A' for Active; 'I' for Inactive)
REMARK    1  A    between atoms: O_2  and  C_8 
REMARK    2  A    between atoms: O_3  and  C_9 
REMARK    3  A    between atoms: O_4  and  C_10 
REMARK    4  A    between atoms: O_5  and  C_11 
REMARK    5  A    between atoms: C_12  and  C_19 
REMARK    6  A    between atoms: C_14  and  C_21 
REMARK    7  A    between atoms: C_15  and  C_22 
REMARK    8  A    between atoms: C_21  and  C_26 
REMARK    9  A    between atoms: C_22  and  C_27 
ROOT
HETATM    1  C   UNK N   1      30.165  40.905  58.352  0.00  0.00     0.106 A 
HETATM    2  C   UNK N   1      31.013  42.010  58.626  0.00  0.00     0.106 A 
HETATM    3  C   UNK N   1      29.542  41.929  56.211  0.00  0.00    -0.018 A 
HETATM    4  C   UNK N   1      29.431  40.854  57.141  0.00  0.00    -0.010 A 
HETATM    5  C   UNK N   1      31.089  43.077  57.713  0.00  0.00    -0.018 A 
HETATM    6  C   UNK N   1      30.352  43.031  56.528  0.00  0.00     0.020 A 
ENDROOT
BRANCH   3   7
HETATM    7  C   UNK N   1      28.807  41.943  54.882  0.00  0.00     0.169 C 
HETATM    8  O   UNK N   1      27.737  42.824  54.929  0.00  0.00    -0.340 OA
HETATM    9  C   UNK N   1      26.973  43.056  53.828  0.00  0.00     0.089 A 
HETATM   10  C   UNK N   1      27.493  42.800  52.543  0.00  0.00     0.076 A 
HETATM   11  C   UNK N   1      25.668  43.532  53.979  0.00  0.00     0.074 A 
HETATM   12  C   UNK N   1      26.675  42.994  51.408  0.00  0.00     0.085 A 
HETATM   13  C   UNK N   1      28.907  42.343  52.447  0.00  0.00     0.167 C 
HETATM   14  C   UNK N   1      25.359  43.454  51.577  0.00  0.00     0.074 A 
HETATM   15  C   UNK N   1      24.857  43.727  52.857  0.00  0.00     0.071 A 
HETATM   16  O   UNK N   1      29.419  42.076  51.371  0.00  0.00    -0.292 OA
HETATM   17  C   UNK N   1      29.733  42.293  53.705  0.00  0.00     0.121 C 
BRANCH  12  18
HETATM   18  O   UNK N   1      27.149  42.740  50.172  0.00  0.00    -0.360 OA
HETATM   19  H   UNK N   1      26.561  42.645  49.409  0.00  0.00     0.217 HD
ENDBRANCH  12  18
BRANCH  15  20
HETATM   20  O   UNK N   1      23.595  44.172  53.020  0.00  0.00    -0.361 OA
HETATM   21  H   UNK N   1      22.834  43.577  52.954  0.00  0.00     0.217 HD
ENDBRANCH  15  20
ENDBRANCH   3   7
BRANCH   4  22
HETATM   22  C   UNK N   1      28.539  39.642  56.873  0.00  0.00     0.069 C 
BRANCH  22  23
HETATM   23  C   UNK N   1      29.340  38.534  56.221  0.00  0.00    -0.020 C 
HETATM   24  C   UNK N   1      29.174  38.034  54.970  0.00  0.00    -0.091 C 
HETATM   25  C   UNK N   1      30.066  36.907  54.510  0.00  0.00     0.042 C 
HETATM   26  C   UNK N   1      28.139  38.521  53.984  0.00  0.00     0.042 C 
ENDBRANCH  22  23
ENDBRANCH   4  22
BRANCH   1  27
HETATM   27  O   UNK N   1      30.041  39.880  59.229  0.00  0.00    -0.357 OA
HETATM   28  H   UNK N   1      30.556  39.779  60.038  0.00  0.00     0.218 HD
ENDBRANCH   1  27
BRANCH   5  29
HETATM   29  C   UNK N   1      31.968  44.276  57.986  0.00  0.00     0.068 C 
BRANCH  29  30
HETATM   30  C   UNK N   1      31.279  45.534  57.505  0.00  0.00    -0.020 C 
HETATM   31  C   UNK N   1      30.495  46.361  58.243  0.00  0.00    -0.091 C 
HETATM   32  C   UNK N   1      29.881  47.570  57.581  0.00  0.00     0.042 C 
HETATM   33  C   UNK N   1      30.180  46.159  59.707  0.00  0.00     0.042 C 
ENDBRANCH  29  30
ENDBRANCH   5  29
BRANCH   2  34
HETATM   34  O   UNK N   1      31.761  42.072  59.755  0.00  0.00    -0.357 OA
HETATM   35  H   UNK N   1      31.941  41.326  60.336  0.00  0.00     0.218 HD
ENDBRANCH   2  34
TORSDOF 9
ENDMDL
MODEL 3
REMARK VINA RESULT:      -6.1     22.383     26.181
REMARK  9 active torsions:
REMARK  status: ('A' for Active; 'I' for Inactive)
REMARK    1  A    between atoms: O_2  and  C_8 
REMARK    2  A    between atoms: O_3  and  C_9 
REMARK    3  A    between atoms: O_4  and  C_10 
REMARK    4  A    between atoms: O_5  and  C_11 
REMARK    5  A    between atoms: C_12  and  C_19 
REMARK    6  A    between atoms: C_14  and  C_21 
REMARK    7  A    between atoms: C_15  and  C_22 
REMARK    8  A    between atoms: C_21  and  C_26 
REMARK    9  A    between atoms: C_22  and  C_27 
ROOT
HETATM    1  C   UNK N   1      30.128  46.281  61.697  0.00  0.00     0.106 A 
HETATM    2  C   UNK N   1      29.757  47.551  61.181  0.00  0.00     0.106 A 
HETATM    3  C   UNK N   1      30.105  45.363  59.422  0.00  0.00    -0.018 A 
HETATM    4  C   UNK N   1      30.312  45.183  60.821  0.00  0.00    -0.010 A 
HETATM    5  C   UNK N   1      29.527  47.706  59.803  0.00  0.00    -0.018 A 
HETATM    6  C   UNK N   1      29.694  46.618  58.943  0.00  0.00     0.020 A 
ENDROOT
BRANCH   3   7
HETATM    7  C   UNK N   1      30.302  44.245  58.413  0.00  0.00     0.169 C 
HETATM    8  O   UNK N   1      29.160  44.081  57.643  0.00  0.00    -0.340 OA
HETATM    9  C   UNK N   1      29.127  43.182  56.624  0.00  0.00     0.089 A 
HETATM   10  C   UNK N   1      30.329  42.748  56.028  0.00  0.00     0.076 A 
HETATM   11  C   UNK N   1      27.900  42.678  56.183  0.00  0.00     0.074 A 
HETATM   12  C   UNK N   1      30.289  41.774  55.005  0.00  0.00     0.085 A 
HETATM   13  C   UNK N   1      31.599  43.359  56.507  0.00  0.00     0.167 C 
HETATM   14  C   UNK N   1      29.050  41.263  54.587  0.00  0.00     0.074 A 
HETATM   15  C   UNK N   1      27.858  41.717  55.169  0.00  0.00     0.071 A 
HETATM   16  O   UNK N   1      32.681  43.015  56.059  0.00  0.00    -0.292 OA
HETATM   17  C   UNK N   1      31.524  44.481  57.508  0.00  0.00     0.121 C 
BRANCH  12  18
HETATM   18  O   UNK N   1      31.429  41.335  54.434  0.00  0.00    -0.360 OA
HETATM   19  H   UNK N   1      31.837  40.495  54.687  0.00  0.00     0.217 HD
ENDBRANCH  12  18
BRANCH  15  20
HETATM   20  O   UNK N   1      26.667  41.230  54.766  0.00  0.00    -0.361 OA
HETATM   21  H   UNK N   1      25.853  41.403  55.261  0.00  0.00     0.217 HD
ENDBRANCH  15  20
ENDBRANCH   3   7
BRANCH   4  22
HETATM   22  C   UNK N   1      30.726  43.835  61.410  0.00  0.00     0.069 C 
BRANCH  22  23
HETATM   23  C   UNK N   1      32.166  43.527  61.058  0.00  0.00    -0.020 C 
HETATM   24  C   UNK N   1      32.633  42.429  60.411  0.00  0.00    -0.091 C 
HETATM   25  C   UNK N   1      34.117  42.298  60.172  0.00  0.00     0.042 C 
HETATM   26  C   UNK N   1      31.765  41.299  59.908  0.00  0.00     0.042 C 
ENDBRANCH  22  23
ENDBRANCH   4  22
BRANCH   1  27
HETATM   27  O   UNK N   1      30.319  46.091  63.025  0.00  0.00    -0.357 OA
HETATM   28  H   UNK N   1      29.841  45.452  63.566  0.00  0.00     0.218 HD
ENDBRANCH   1  27
BRANCH   5  29
HETATM   29  C   UNK N   1      29.112  49.040  59.226  0.00  0.00     0.068 C 
BRANCH  29  30
HETATM   30  C   UNK N   1      30.096  49.463  58.157  0.00  0.00    -0.020 C 
HETATM   31  C   UNK N   1      29.808  49.766  56.866  0.00  0.00    -0.091 C 
HETATM   32  C   UNK N   1      30.933  50.159  55.940  0.00  0.00     0.042 C 
HETATM   33  C   UNK N   1      28.420  49.738  56.270  0.00  0.00     0.042 C 
ENDBRANCH  29  30
ENDBRANCH   5  29
BRANCH   2  34
HETATM   34  O   UNK N   1      29.613  48.633  61.985  0.00  0.00    -0.357 OA
HETATM   35  H   UNK N   1      29.988  48.714  62.868  0.00  0.00     0.218 HD
ENDBRANCH   2  34
TORSDOF 9
ENDMDL
MODEL 4
REMARK VINA RESULT:      -5.7      2.506      3.826
REMARK  9 active torsions:
REMARK  status: ('A' for Active; 'I' for Inactive)
REMARK    1  A    between atoms: O_2  and  C_8 
REMARK    2  A    between atoms: O_3  and  C_9 
REMARK    3  A    between atoms: O_4  and  C_10 
REMARK    4  A    between atoms: O_5  and  C_11 
REMARK    5  A    between atoms: C_12  and  C_19 
REMARK    6  A    between atoms: C_14  and  C_21 
REMARK    7  A    between atoms: C_15  and  C_22 
REMARK    8  A    between atoms: C_21  and  C_26 
REMARK    9  A    between atoms: C_22  and  C_27 
ROOT
HETATM    1  C   UNK N   1      49.866  31.393  47.162  0.00  0.00     0.106 A 
HETATM    2  C   UNK N   1      48.788  32.234  46.780  0.00  0.00     0.106 A 
HETATM    3  C   UNK N   1      49.799  32.354  49.419  0.00  0.00    -0.018 A 
HETATM    4  C   UNK N   1      50.373  31.442  48.485  0.00  0.00    -0.010 A 
HETATM    5  C   UNK N   1      48.253  33.148  47.703  0.00  0.00    -0.018 A 
HETATM    6  C   UNK N   1      48.764  33.206  49.002  0.00  0.00     0.020 A 
ENDROOT
BRANCH   3   7
HETATM    7  C   UNK N   1      50.267  32.454  50.860  0.00  0.00     0.169 C 
HETATM    8  O   UNK N   1      51.355  33.310  50.957  0.00  0.00    -0.340 OA
HETATM    9  C   UNK N   1      51.903  33.610  52.166  0.00  0.00     0.089 A 
HETATM   10  C   UNK N   1      51.140  33.462  53.342  0.00  0.00     0.076 A 
HETATM   11  C   UNK N   1      53.228  34.049  52.235  0.00  0.00     0.074 A 
HETATM   12  C   UNK N   1      51.733  33.725  54.596  0.00  0.00     0.085 A 
HETATM   13  C   UNK N   1      49.720  33.039  53.197  0.00  0.00     0.167 C 
HETATM   14  C   UNK N   1      53.071  34.147  54.652  0.00  0.00     0.074 A 
HETATM   15  C   UNK N   1      53.816  34.314  53.476  0.00  0.00     0.071 A 
HETATM   16  O   UNK N   1      49.004  32.864  54.170  0.00  0.00    -0.292 OA
HETATM   17  C   UNK N   1      49.146  32.910  51.810  0.00  0.00     0.121 C 
BRANCH  12  18
HETATM   18  O   UNK N   1      51.024  33.574  55.733  0.00  0.00    -0.360 OA
HETATM   19  H   UNK N   1      51.254  32.904  56.393  0.00  0.00     0.217 HD
ENDBRANCH  12  18
BRANCH  15  20
HETATM   20  O   UNK N   1      55.100  34.722  53.527  0.00  0.00    -0.361 OA
HETATM   21  H   UNK N   1      55.809  34.224  53.095  0.00  0.00     0.217 HD
ENDBRANCH  15  20
ENDBRANCH   3   7
BRANCH   4  22
HETATM   22  C   UNK N   1      51.525  30.513  48.866  0.00  0.00     0.069 C 
BRANCH  22  23
HETATM   23  C   UNK N   1      52.852  31.216  48.681  0.00  0.00    -0.020 C 
HETATM   24  C   UNK N   1      53.875  31.280  49.572  0.00  0.00    -0.091 C 
HETATM   25  C   UNK N   1      55.117  32.054  49.204  0.00  0.00     0.042 C 
HETATM   26  C   UNK N   1      53.863  30.630  50.935  0.00  0.00     0.042 C 
ENDBRANCH  22  23
ENDBRANCH   4  22
BRANCH   1  27
HETATM   27  O   UNK N   1      50.429  30.528  46.284  0.00  0.00    -0.357 OA
HETATM   28  H   UNK N   1      51.302  30.132  46.381  0.00  0.00     0.218 HD
ENDBRANCH   1  27
BRANCH   5  29
HETATM   29  C   UNK N   1      47.117  34.071  47.320  0.00  0.00     0.068 C 
BRANCH  29  30
HETATM   30  C   UNK N   1      45.795  33.431  47.683  0.00  0.00    -0.020 C 
HETATM   31  C   UNK N   1      45.051  33.683  48.790  0.00  0.00    -0.091 C 
HETATM   32  C   UNK N   1      43.756  32.933  48.986  0.00  0.00     0.042 C 
HETATM   33  C   UNK N   1      45.426  34.676  49.865  0.00  0.00     0.042 C 
ENDBRANCH  29  30
ENDBRANCH   5  29
BRANCH   2  34
HETATM   34  O   UNK N   1      48.252  32.183  45.536  0.00  0.00    -0.357 OA
HETATM   35  H   UNK N   1      47.344  32.419  45.319  0.00  0.00     0.218 HD
ENDBRANCH   2  34
TORSDOF 9
ENDMDL
MODEL 5
REMARK VINA RESULT:      -5.7     22.608     25.885
REMARK  9 active torsions:
REMARK  status: ('A' for Active; 'I' for Inactive)
REMARK    1  A    between atoms: O_2  and  C_8 
REMARK    2  A    between atoms: O_3  and  C_9 
REMARK    3  A    between atoms: O_4  and  C_10 
REMARK    4  A    between atoms: O_5  and  C_11 
REMARK    5  A    between atoms: C_12  and  C_19 
REMARK    6  A    between atoms: C_14  and  C_21 
REMARK    7  A    between atoms: C_15  and  C_22 
REMARK    8  A    between atoms: C_21  and  C_26 
REMARK    9  A    between atoms: C_22  and  C_27 
ROOT
HETATM    1  C   UNK N   1      30.567  46.201  61.530  0.00  0.00     0.106 A 
HETATM    2  C   UNK N   1      31.448  45.775  62.558  0.00  0.00     0.106 A 
HETATM    3  C   UNK N   1      31.221  44.259  60.181  0.00  0.00    -0.018 A 
HETATM    4  C   UNK N   1      30.442  45.443  60.339  0.00  0.00    -0.010 A 
HETATM    5  C   UNK N   1      32.232  44.623  62.374  0.00  0.00    -0.018 A 
HETATM    6  C   UNK N   1      32.119  43.886  61.194  0.00  0.00     0.020 A 
ENDROOT
BRANCH   3   7
HETATM    7  C   UNK N   1      31.131  43.378  58.948  0.00  0.00     0.169 C 
HETATM    8  O   UNK N   1      29.805  43.166  58.599  0.00  0.00    -0.340 OA
HETATM    9  C   UNK N   1      29.479  42.462  57.482  0.00  0.00     0.089 A 
HETATM   10  C   UNK N   1      30.410  42.336  56.432  0.00  0.00     0.076 A 
HETATM   11  C   UNK N   1      28.225  41.851  57.391  0.00  0.00     0.074 A 
HETATM   12  C   UNK N   1      30.083  41.559  55.299  0.00  0.00     0.085 A 
HETATM   13  C   UNK N   1      31.708  43.052  56.568  0.00  0.00     0.167 C 
HETATM   14  C   UNK N   1      28.827  40.935  55.229  0.00  0.00     0.074 A 
HETATM   15  C   UNK N   1      27.898  41.085  56.268  0.00  0.00     0.071 A 
HETATM   16  O   UNK N   1      32.575  42.970  55.713  0.00  0.00    -0.292 OA
HETATM   17  C   UNK N   1      31.908  43.959  57.754  0.00  0.00     0.121 C 
BRANCH  12  18
HETATM   18  O   UNK N   1      30.966  41.415  54.290  0.00  0.00    -0.360 OA
HETATM   19  H   UNK N   1      31.529  42.145  53.995  0.00  0.00     0.217 HD
ENDBRANCH  12  18
BRANCH  15  20
HETATM   20  O   UNK N   1      26.690  40.488  56.201  0.00  0.00    -0.361 OA
HETATM   21  H   UNK N   1      26.121  40.404  56.980  0.00  0.00     0.217 HD
ENDBRANCH  15  20
ENDBRANCH   3   7
BRANCH   4  22
HETATM   22  C   UNK N   1      29.472  45.923  59.261  0.00  0.00     0.069 C 
BRANCH  22  23
HETATM   23  C   UNK N   1      30.116  47.002  58.417  0.00  0.00    -0.020 C 
HETATM   24  C   UNK N   1      29.484  47.915  57.634  0.00  0.00    -0.091 C 
HETATM   25  C   UNK N   1      30.313  48.901  56.849  0.00  0.00     0.042 C 
HETATM   26  C   UNK N   1      27.985  48.016  57.479  0.00  0.00     0.042 C 
ENDBRANCH  22  23
ENDBRANCH   4  22
BRANCH   1  27
HETATM   27  O   UNK N   1      29.826  47.328  61.661  0.00  0.00    -0.357 OA
HETATM   28  H   UNK N   1      29.962  48.002  62.336  0.00  0.00     0.218 HD
ENDBRANCH   1  27
BRANCH   5  29
HETATM   29  C   UNK N   1      33.195  44.155  63.443  0.00  0.00     0.068 C 
BRANCH  29  30
HETATM   30  C   UNK N   1      34.606  44.163  62.897  0.00  0.00    -0.020 C 
HETATM   31  C   UNK N   1      35.449  45.225  62.849  0.00  0.00    -0.091 C 
HETATM   32  C   UNK N   1      36.824  45.039  62.255  0.00  0.00     0.042 C 
HETATM   33  C   UNK N   1      35.112  46.608  63.352  0.00  0.00     0.042 C 
ENDBRANCH  29  30
ENDBRANCH   5  29
BRANCH   2  34
HETATM   34  O   UNK N   1      31.562  46.454  63.726  0.00  0.00    -0.357 OA
HETATM   35  H   UNK N   1      31.755  46.050  64.579  0.00  0.00     0.218 HD
ENDBRANCH   2  34
TORSDOF 9
ENDMDL
MODEL 6
REMARK VINA RESULT:      -5.6     21.109     24.436
REMARK  9 active torsions:
REMARK  status: ('A' for Active; 'I' for Inactive)
REMARK    1  A    between atoms: O_2  and  C_8 
REMARK    2  A    between atoms: O_3  and  C_9 
REMARK    3  A    between atoms: O_4  and  C_10 
REMARK    4  A    between atoms: O_5  and  C_11 
REMARK    5  A    between atoms: C_12  and  C_19 
REMARK    6  A    between atoms: C_14  and  C_21 
REMARK    7  A    between atoms: C_15  and  C_22 
REMARK    8  A    between atoms: C_21  and  C_26 
REMARK    9  A    between atoms: C_22  and  C_27 
ROOT
HETATM    1  C   UNK N   1      27.637  39.752  53.314  0.00  0.00     0.106 A 
HETATM    2  C   UNK N   1      27.507  40.856  52.431  0.00  0.00     0.106 A 
HETATM    3  C   UNK N   1      28.489  41.258  55.054  0.00  0.00    -0.018 A 
HETATM    4  C   UNK N   1      28.121  39.946  54.632  0.00  0.00    -0.010 A 
HETATM    5  C   UNK N   1      27.902  42.138  52.852  0.00  0.00    -0.018 A 
HETATM    6  C   UNK N   1      28.393  42.325  54.146  0.00  0.00     0.020 A 
ENDROOT
BRANCH   3   7
HETATM    7  C   UNK N   1      28.995  41.557  56.454  0.00  0.00     0.169 C 
HETATM    8  O   UNK N   1      30.219  42.207  56.398  0.00  0.00    -0.340 OA
HETATM    9  C   UNK N   1      30.834  42.638  57.532  0.00  0.00     0.089 A 
HETATM   10  C   UNK N   1      30.080  42.864  58.701  0.00  0.00     0.076 A 
HETATM   11  C   UNK N   1      32.218  42.839  57.536  0.00  0.00     0.074 A 
HETATM   12  C   UNK N   1      30.734  43.261  59.888  0.00  0.00     0.085 A 
HETATM   13  C   UNK N   1      28.605  42.681  58.619  0.00  0.00     0.167 C 
HETATM   14  C   UNK N   1      32.127  43.440  59.882  0.00  0.00     0.074 A 
HETATM   15  C   UNK N   1      32.867  43.235  58.709  0.00  0.00     0.071 A 
HETATM   16  O   UNK N   1      27.888  42.832  59.595  0.00  0.00    -0.292 OA
HETATM   17  C   UNK N   1      27.991  42.384  57.276  0.00  0.00     0.121 C 
BRANCH  12  18
HETATM   18  O   UNK N   1      30.031  43.467  61.020  0.00  0.00    -0.360 OA
HETATM   19  H   UNK N   1      30.125  44.278  61.540  0.00  0.00     0.217 HD
ENDBRANCH  12  18
BRANCH  15  20
HETATM   20  O   UNK N   1      34.204  43.410  58.700  0.00  0.00    -0.361 OA
HETATM   21  H   UNK N   1      34.782  42.937  59.316  0.00  0.00     0.217 HD
ENDBRANCH  15  20
ENDBRANCH   3   7
BRANCH   4  22
HETATM   22  C   UNK N   1      28.234  38.737  55.559  0.00  0.00     0.069 C 
BRANCH  22  23
HETATM   23  C   UNK N   1      29.568  38.047  55.363  0.00  0.00    -0.020 C 
HETATM   24  C   UNK N   1      29.775  36.736  55.075  0.00  0.00    -0.091 C 
HETATM   25  C   UNK N   1      31.191  36.234  54.939  0.00  0.00     0.042 C 
HETATM   26  C   UNK N   1      28.675  35.718  54.884  0.00  0.00     0.042 C 
ENDBRANCH  22  23
ENDBRANCH   4  22
BRANCH   1  27
HETATM   27  O   UNK N   1      27.301  38.498  52.926  0.00  0.00    -0.357 OA
HETATM   28  H   UNK N   1      27.018  37.793  53.518  0.00  0.00     0.218 HD
ENDBRANCH   1  27
BRANCH   5  29
HETATM   29  C   UNK N   1      27.794  43.330  51.929  0.00  0.00     0.068 C 
BRANCH  29  30
HETATM   30  C   UNK N   1      26.523  44.095  52.229  0.00  0.00    -0.020 C 
HETATM   31  C   UNK N   1      25.397  44.124  51.472  0.00  0.00    -0.091 C 
HETATM   32  C   UNK N   1      24.228  44.959  51.934  0.00  0.00     0.042 C 
HETATM   33  C   UNK N   1      25.219  43.371  50.175  0.00  0.00     0.042 C 
ENDBRANCH  29  30
ENDBRANCH   5  29
BRANCH   2  34
HETATM   34  O   UNK N   1      27.009  40.713  51.179  0.00  0.00    -0.357 OA
HETATM   35  H   UNK N   1      27.054  39.903  50.660  0.00  0.00     0.218 HD
ENDBRANCH   2  34
TORSDOF 9
ENDMDL
MODEL 7
REMARK VINA RESULT:      -5.6     22.839     25.443
REMARK  9 active torsions:
REMARK  status: ('A' for Active; 'I' for Inactive)
REMARK    1  A    between atoms: O_2  and  C_8 
REMARK    2  A    between atoms: O_3  and  C_9 
REMARK    3  A    between atoms: O_4  and  C_10 
REMARK    4  A    between atoms: O_5  and  C_11 
REMARK    5  A    between atoms: C_12  and  C_19 
REMARK    6  A    between atoms: C_14  and  C_21 
REMARK    7  A    between atoms: C_15  and  C_22 
REMARK    8  A    between atoms: C_21  and  C_26 
REMARK    9  A    between atoms: C_22  and  C_27 
ROOT
HETATM    1  C   UNK N   1      31.368  42.434  59.520  0.00  0.00     0.106 A 
HETATM    2  C   UNK N   1      31.031  41.130  59.971  0.00  0.00     0.106 A 
HETATM    3  C   UNK N   1      29.772  42.195  57.672  0.00  0.00    -0.018 A 
HETATM    4  C   UNK N   1      30.737  42.977  58.373  0.00  0.00    -0.010 A 
HETATM    5  C   UNK N   1      30.100  40.361  59.251  0.00  0.00    -0.018 A 
HETATM    6  C   UNK N   1      29.491  40.892  58.112  0.00  0.00     0.020 A 
ENDROOT
BRANCH   3   7
HETATM    7  C   UNK N   1      29.033  42.709  56.449  0.00  0.00     0.169 C 
HETATM    8  O   UNK N   1      29.421  42.006  55.318  0.00  0.00    -0.340 OA
HETATM    9  C   UNK N   1      28.839  42.245  54.112  0.00  0.00     0.089 A 
HETATM   10  C   UNK N   1      27.561  42.836  54.051  0.00  0.00     0.076 A 
HETATM   11  C   UNK N   1      29.522  41.918  52.937  0.00  0.00     0.074 A 
HETATM   12  C   UNK N   1      26.987  43.129  52.794  0.00  0.00     0.085 A 
HETATM   13  C   UNK N   1      26.865  43.114  55.337  0.00  0.00     0.167 C 
HETATM   14  C   UNK N   1      27.693  42.812  51.622  0.00  0.00     0.074 A 
HETATM   15  C   UNK N   1      28.954  42.204  51.692  0.00  0.00     0.071 A 
HETATM   16  O   UNK N   1      25.768  43.648  55.367  0.00  0.00    -0.292 OA
HETATM   17  C   UNK N   1      27.506  42.645  56.617  0.00  0.00     0.121 C 
BRANCH  12  18
HETATM   18  O   UNK N   1      25.772  43.708  52.716  0.00  0.00    -0.360 OA
HETATM   19  H   UNK N   1      25.241  43.892  53.504  0.00  0.00     0.217 HD
ENDBRANCH  12  18
BRANCH  15  20
HETATM   20  O   UNK N   1      29.632  41.896  50.567  0.00  0.00    -0.361 OA
HETATM   21  H   UNK N   1      30.523  41.520  50.598  0.00  0.00     0.217 HD
ENDBRANCH  15  20
ENDBRANCH   3   7
BRANCH   4  22
HETATM   22  C   UNK N   1      31.114  44.388  57.926  0.00  0.00     0.069 C 
BRANCH  22  23
HETATM   23  C   UNK N   1      30.412  45.418  58.785  0.00  0.00    -0.020 C 
HETATM   24  C   UNK N   1      30.240  46.735  58.506  0.00  0.00    -0.091 C 
HETATM   25  C   UNK N   1      29.525  47.607  59.509  0.00  0.00     0.042 C 
HETATM   26  C   UNK N   1      30.726  47.414  57.247  0.00  0.00     0.042 C 
ENDBRANCH  22  23
ENDBRANCH   4  22
BRANCH   1  27
HETATM   27  O   UNK N   1      32.289  43.185  60.170  0.00  0.00    -0.357 OA
HETATM   28  H   UNK N   1      32.596  44.053  59.884  0.00  0.00     0.218 HD
ENDBRANCH   1  27
BRANCH   5  29
HETATM   29  C   UNK N   1      29.735  38.962  59.695  0.00  0.00     0.068 C 
BRANCH  29  30
HETATM   30  C   UNK N   1      30.074  37.974  58.600  0.00  0.00    -0.020 C 
HETATM   31  C   UNK N   1      29.200  37.370  57.755  0.00  0.00    -0.091 C 
HETATM   32  C   UNK N   1      29.729  36.399  56.728  0.00  0.00     0.042 C 
HETATM   33  C   UNK N   1      27.706  37.597  57.764  0.00  0.00     0.042 C 
ENDBRANCH  29  30
ENDBRANCH   5  29
BRANCH   2  34
HETATM   34  O   UNK N   1      31.585  40.596  61.087  0.00  0.00    -0.357 OA
HETATM   35  H   UNK N   1      32.100  41.089  61.734  0.00  0.00     0.218 HD
ENDBRANCH   2  34
TORSDOF 9
ENDMDL
MODEL 8
REMARK VINA RESULT:      -5.5     21.139     24.600
REMARK  9 active torsions:
REMARK  status: ('A' for Active; 'I' for Inactive)
REMARK    1  A    between atoms: O_2  and  C_8 
REMARK    2  A    between atoms: O_3  and  C_9 
REMARK    3  A    between atoms: O_4  and  C_10 
REMARK    4  A    between atoms: O_5  and  C_11 
REMARK    5  A    between atoms: C_12  and  C_19 
REMARK    6  A    between atoms: C_14  and  C_21 
REMARK    7  A    between atoms: C_15  and  C_22 
REMARK    8  A    between atoms: C_21  and  C_26 
REMARK    9  A    between atoms: C_22  and  C_27 
ROOT
HETATM    1  C   UNK N   1      26.925  39.626  53.224  0.00  0.00     0.106 A 
HETATM    2  C   UNK N   1      26.465  40.423  52.142  0.00  0.00     0.106 A 
HETATM    3  C   UNK N   1      28.230  41.531  54.055  0.00  0.00    -0.018 A 
HETATM    4  C   UNK N   1      27.804  40.177  54.190  0.00  0.00    -0.010 A 
HETATM    5  C   UNK N   1      26.918  41.746  52.006  0.00  0.00    -0.018 A 
HETATM    6  C   UNK N   1      27.796  42.282  52.951  0.00  0.00     0.020 A 
ENDROOT
BRANCH   3   7
HETATM    7  C   UNK N   1      29.152  42.204  55.057  0.00  0.00     0.169 C 
HETATM    8  O   UNK N   1      28.807  41.842  56.351  0.00  0.00    -0.340 OA
HETATM    9  C   UNK N   1      29.539  42.268  57.414  0.00  0.00     0.089 A 
HETATM   10  C   UNK N   1      30.878  42.671  57.233  0.00  0.00     0.076 A 
HETATM   11  C   UNK N   1      28.953  42.321  58.682  0.00  0.00     0.074 A 
HETATM   12  C   UNK N   1      31.614  43.162  58.334  0.00  0.00     0.085 A 
HETATM   13  C   UNK N   1      31.460  42.544  55.869  0.00  0.00     0.167 C 
HETATM   14  C   UNK N   1      31.005  43.228  59.597  0.00  0.00     0.074 A 
HETATM   15  C   UNK N   1      29.681  42.803  59.774  0.00  0.00     0.071 A 
HETATM   16  O   UNK N   1      32.603  42.897  55.627  0.00  0.00    -0.292 OA
HETATM   17  C   UNK N   1      30.634  41.887  54.793  0.00  0.00     0.121 C 
BRANCH  12  18
HETATM   18  O   UNK N   1      32.891  43.567  58.177  0.00  0.00    -0.360 OA
HETATM   19  H   UNK N   1      33.118  44.495  58.022  0.00  0.00     0.217 HD
ENDBRANCH  12  18
BRANCH  15  20
HETATM   20  O   UNK N   1      29.096  42.863  60.987  0.00  0.00    -0.361 OA
HETATM   21  H   UNK N   1      29.047  43.689  61.488  0.00  0.00     0.217 HD
ENDBRANCH  15  20
ENDBRANCH   3   7
BRANCH   4  22
HETATM   22  C   UNK N   1      28.268  39.295  55.349  0.00  0.00     0.069 C 
BRANCH  22  23
HETATM   23  C   UNK N   1      29.522  38.539  54.965  0.00  0.00    -0.020 C 
HETATM   24  C   UNK N   1      29.678  37.191  54.904  0.00  0.00    -0.091 C 
HETATM   25  C   UNK N   1      31.024  36.628  54.518  0.00  0.00     0.042 C 
HETATM   26  C   UNK N   1      28.589  36.190  55.209  0.00  0.00     0.042 C 
ENDBRANCH  22  23
ENDBRANCH   4  22
BRANCH   1  27
HETATM   27  O   UNK N   1      26.537  38.335  53.361  0.00  0.00    -0.357 OA
HETATM   28  H   UNK N   1      26.285  37.754  52.636  0.00  0.00     0.218 HD
ENDBRANCH   1  27
BRANCH   5  29
HETATM   29  C   UNK N   1      26.460  42.613  50.855  0.00  0.00     0.068 C 
BRANCH  29  30
HETATM   30  C   UNK N   1      25.563  43.716  51.371  0.00  0.00    -0.020 C 
HETATM   31  C   UNK N   1      24.587  44.358  50.679  0.00  0.00    -0.091 C 
HETATM   32  C   UNK N   1      23.799  45.446  51.365  0.00  0.00     0.042 C 
HETATM   33  C   UNK N   1      24.222  44.062  49.243  0.00  0.00     0.042 C 
ENDBRANCH  29  30
ENDBRANCH   5  29
BRANCH   2  34
HETATM   34  O   UNK N   1      25.592  39.941  51.224  0.00  0.00    -0.357 OA
HETATM   35  H   UNK N   1      25.353  39.013  51.127  0.00  0.00     0.218 HD
ENDBRANCH   2  34
TORSDOF 9
ENDMDL
MODEL 9
REMARK VINA RESULT:      -5.4     22.826     27.427
REMARK  9 active torsions:
REMARK  status: ('A' for Active; 'I' for Inactive)
REMARK    1  A    between atoms: O_2  and  C_8 
REMARK    2  A    between atoms: O_3  and  C_9 
REMARK    3  A    between atoms: O_4  and  C_10 
REMARK    4  A    between atoms: O_5  and  C_11 
REMARK    5  A    between atoms: C_12  and  C_19 
REMARK    6  A    between atoms: C_14  and  C_21 
REMARK    7  A    between atoms: C_15  and  C_22 
REMARK    8  A    between atoms: C_21  and  C_26 
REMARK    9  A    between atoms: C_22  and  C_27 
ROOT
HETATM    1  C   UNK N   1      31.189  43.815  60.598  0.00  0.00     0.106 A 
HETATM    2  C   UNK N   1      31.153  42.765  59.643  0.00  0.00     0.106 A 
HETATM    3  C   UNK N   1      30.042  45.288  59.006  0.00  0.00    -0.018 A 
HETATM    4  C   UNK N   1      30.628  45.079  60.289  0.00  0.00    -0.010 A 
HETATM    5  C   UNK N   1      30.598  42.996  58.371  0.00  0.00    -0.018 A 
HETATM    6  C   UNK N   1      30.060  44.247  58.064  0.00  0.00     0.020 A 
ENDROOT
BRANCH   3   7
HETATM    7  C   UNK N   1      29.399  46.603  58.602  0.00  0.00     0.169 C 
HETATM    8  O   UNK N   1      30.220  47.293  57.722  0.00  0.00    -0.340 OA
HETATM    9  C   UNK N   1      29.820  48.470  57.169  0.00  0.00     0.089 A 
HETATM   10  C   UNK N   1      28.447  48.781  57.090  0.00  0.00     0.076 A 
HETATM   11  C   UNK N   1      30.776  49.373  56.697  0.00  0.00     0.074 A 
HETATM   12  C   UNK N   1      28.043  50.027  56.562  0.00  0.00     0.085 A 
HETATM   13  C   UNK N   1      27.477  47.755  57.564  0.00  0.00     0.167 C 
HETATM   14  C   UNK N   1      29.016  50.933  56.110  0.00  0.00     0.074 A 
HETATM   15  C   UNK N   1      30.378  50.606  56.171  0.00  0.00     0.071 A 
HETATM   16  O   UNK N   1      26.274  47.962  57.552  0.00  0.00    -0.292 OA
HETATM   17  C   UNK N   1      28.003  46.409  57.986  0.00  0.00     0.121 C 
BRANCH  12  18
HETATM   18  O   UNK N   1      26.735  50.349  56.492  0.00  0.00    -0.360 OA
HETATM   19  H   UNK N   1      26.175  50.384  57.281  0.00  0.00     0.217 HD
ENDBRANCH  12  18
BRANCH  15  20
HETATM   20  O   UNK N   1      31.313  51.474  55.733  0.00  0.00    -0.361 OA
HETATM   21  H   UNK N   1      31.618  52.211  56.281  0.00  0.00     0.217 HD
ENDBRANCH  15  20
ENDBRANCH   3   7
BRANCH   4  22
HETATM   22  C   UNK N   1      30.672  46.181  61.347  0.00  0.00     0.069 C 
BRANCH  22  23
HETATM   23  C   UNK N   1      29.301  46.376  61.961  0.00  0.00    -0.020 C 
HETATM   24  C   UNK N   1      28.603  47.537  62.050  0.00  0.00    -0.091 C 
HETATM   25  C   UNK N   1      27.252  47.527  62.722  0.00  0.00     0.042 C 
HETATM   26  C   UNK N   1      29.087  48.869  61.526  0.00  0.00     0.042 C 
ENDBRANCH  22  23
ENDBRANCH   4  22
BRANCH   1  27
HETATM   27  O   UNK N   1      31.751  43.636  61.818  0.00  0.00    -0.357 OA
HETATM   28  H   UNK N   1      31.629  44.221  62.574  0.00  0.00     0.218 HD
ENDBRANCH   1  27
BRANCH   5  29
HETATM   29  C   UNK N   1      30.563  41.904  57.326  0.00  0.00     0.068 C 
BRANCH  29  30
HETATM   30  C   UNK N   1      29.418  42.151  56.369  0.00  0.00    -0.020 C 
HETATM   31  C   UNK N   1      29.445  42.007  55.019  0.00  0.00    -0.091 C 
HETATM   32  C   UNK N   1      28.197  42.313  54.227  0.00  0.00     0.042 C 
HETATM   33  C   UNK N   1      30.653  41.558  54.231  0.00  0.00     0.042 C 
ENDBRANCH  29  30
ENDBRANCH   5  29
BRANCH   2  34
HETATM   34  O   UNK N   1      31.643  41.533  59.919  0.00  0.00    -0.357 OA
HETATM   35  H   UNK N   1      31.723  41.159  60.804  0.00  0.00     0.218 HD
ENDBRANCH   2  34
TORSDOF 9
ENDMDL
