MODEL 1
REMARK VINA RESULT:      -6.3      0.000      0.000
REMARK  9 active torsions:
REMARK  status: ('A' for Active; 'I' for Inactive)
REMARK    1  A    between atoms: O_2  and  C_11 
REMARK    2  A    between atoms: O_2  and  C_22 
REMARK    3  A    between atoms: O_3  and  C_12 
REMARK    4  A    between atoms: O_3  and  C_23 
REMARK    5  A    between atoms: O_4  and  C_10 
REMARK    6  A    between atoms: O_5  and  C_13 
REMARK    7  A    between atoms: C_14  and  C_21 
REMARK    8  A    between atoms: C_16  and  C_26 
REMARK    9  A    between atoms: C_26  and  C_29 
ROOT
HETATM    1  C   UNK N   1      27.592  52.484  38.546  0.00  0.00     0.108 A 
HETATM    2  C   UNK N   1      27.661  51.435  39.502  0.00  0.00     0.113 A 
HETATM    3  C   UNK N   1      29.850  52.238  40.242  0.00  0.00    -0.025 A 
HETATM    4  C   UNK N   1      28.692  53.361  38.411  0.00  0.00    -0.018 A 
HETATM    5  C   UNK N   1      28.775  51.343  40.356  0.00  0.00     0.050 A 
HETATM    6  C   UNK N   1      29.812  53.223  39.246  0.00  0.00     0.020 A 
ENDROOT
BRANCH   3   7
HETATM    7  C   UNK N   1      31.040  52.150  41.177  0.00  0.00     0.169 C 
HETATM    8  O   UNK N   1      30.880  53.034  42.238  0.00  0.00    -0.340 OA
HETATM    9  C   UNK N   1      31.748  53.072  43.289  0.00  0.00     0.089 A 
HETATM   10  C   UNK N   1      32.586  51.962  43.563  0.00  0.00     0.076 A 
HETATM   11  C   UNK N   1      31.825  54.228  44.074  0.00  0.00     0.075 A 
HETATM   12  C   UNK N   1      33.505  52.042  44.648  0.00  0.00     0.085 A 
HETATM   13  C   UNK N   1      32.446  50.785  42.652  0.00  0.00     0.167 C 
HETATM   14  C   UNK N   1      33.563  53.211  45.414  0.00  0.00     0.075 A 
HETATM   15  C   UNK N   1      32.751  54.310  45.131  0.00  0.00     0.084 A 
HETATM   16  O   UNK N   1      33.295  49.912  42.587  0.00  0.00    -0.292 OA
HETATM   17  C   UNK N   1      31.260  50.737  41.729  0.00  0.00     0.121 C 
BRANCH  12  18
HETATM   18  O   UNK N   1      34.337  51.032  44.991  0.00  0.00    -0.360 OA
HETATM   19  H   UNK N   1      35.296  51.091  45.026  0.00  0.00     0.217 HD
ENDBRANCH  12  18
BRANCH  15  20
HETATM   20  O   UNK N   1      32.898  55.428  45.893  0.00  0.00    -0.279 OA
BRANCH  20  21
HETATM   21  C   UNK N   1      33.994  56.232  45.951  0.00  0.00     0.260 C 
HETATM   22  O   UNK N   1      34.762  56.324  45.004  0.00  0.00    -0.265 OA
HETATM   23  C   UNK N   1      34.312  56.941  47.229  0.00  0.00     0.126 C 
ENDBRANCH  20  21
ENDBRANCH  15  20
ENDBRANCH   3   7
BRANCH   2  24
HETATM   24  O   UNK N   1      26.666  50.512  39.570  0.00  0.00    -0.276 OA
BRANCH  24  25
HETATM   25  C   UNK N   1      25.693  50.497  40.526  0.00  0.00     0.260 C 
HETATM   26  O   UNK N   1      25.895  50.962  41.640  0.00  0.00    -0.265 OA
HETATM   27  C   UNK N   1      24.393  49.818  40.242  0.00  0.00     0.126 C 
ENDBRANCH  24  25
ENDBRANCH   2  24
BRANCH   4  28
HETATM   28  C   UNK N   1      28.692  54.447  37.361  0.00  0.00     0.068 C 
BRANCH  28  29
HETATM   29  C   UNK N   1      29.342  55.686  37.934  0.00  0.00    -0.020 C 
HETATM   30  C   UNK N   1      28.729  56.703  38.587  0.00  0.00    -0.091 C 
HETATM   31  C   UNK N   1      29.558  57.874  39.055  0.00  0.00     0.042 C 
HETATM   32  C   UNK N   1      27.250  56.753  38.883  0.00  0.00     0.042 C 
ENDBRANCH  28  29
ENDBRANCH   4  28
BRANCH   1  33
HETATM   33  O   UNK N   1      26.520  52.673  37.723  0.00  0.00    -0.353 OA
HETATM   34  C   UNK N   1      25.316  53.274  38.027  0.00  0.00     0.210 C 
ENDBRANCH   1  33
TORSDOF 9
ENDMDL
MODEL 2
REMARK VINA RESULT:      -5.8     15.609     19.313
REMARK  9 active torsions:
REMARK  status: ('A' for Active; 'I' for Inactive)
REMARK    1  A    between atoms: O_2  and  C_11 
REMARK    2  A    between atoms: O_2  and  C_22 
REMARK    3  A    between atoms: O_3  and  C_12 
REMARK    4  A    between atoms: O_3  and  C_23 
REMARK    5  A    between atoms: O_4  and  C_10 
REMARK    6  A    between atoms: O_5  and  C_13 
REMARK    7  A    between atoms: C_14  and  C_21 
REMARK    8  A    between atoms: C_16  and  C_26 
REMARK    9  A    between atoms: C_26  and  C_29 
ROOT
HETATM    1  C   UNK N   1      30.882  41.812  58.609  0.00  0.00     0.108 A 
HETATM    2  C   UNK N   1      29.924  40.803  58.322  0.00  0.00     0.113 A 
HETATM    3  C   UNK N   1      29.437  41.862  56.172  0.00  0.00    -0.025 A 
HETATM    4  C   UNK N   1      31.055  42.873  57.693  0.00  0.00    -0.018 A 
HETATM    5  C   UNK N   1      29.235  40.825  57.095  0.00  0.00     0.050 A 
HETATM    6  C   UNK N   1      30.326  42.897  56.495  0.00  0.00     0.020 A 
ENDROOT
BRANCH   3   7
HETATM    7  C   UNK N   1      28.710  41.874  54.841  0.00  0.00     0.169 C 
HETATM    8  O   UNK N   1      27.639  42.758  54.891  0.00  0.00    -0.340 OA
HETATM    9  C   UNK N   1      26.889  43.052  53.790  0.00  0.00     0.089 A 
HETATM   10  C   UNK N   1      27.405  42.817  52.491  0.00  0.00     0.076 A 
HETATM   11  C   UNK N   1      25.595  43.558  53.957  0.00  0.00     0.075 A 
HETATM   12  C   UNK N   1      26.587  43.104  51.361  0.00  0.00     0.085 A 
HETATM   13  C   UNK N   1      28.787  42.252  52.419  0.00  0.00     0.167 C 
HETATM   14  C   UNK N   1      25.296  43.606  51.556  0.00  0.00     0.075 A 
HETATM   15  C   UNK N   1      24.783  43.818  52.837  0.00  0.00     0.084 A 
HETATM   16  O   UNK N   1      29.222  41.730  51.406  0.00  0.00    -0.292 OA
HETATM   17  C   UNK N   1      29.623  42.254  53.669  0.00  0.00     0.121 C 
BRANCH  12  18
HETATM   18  O   UNK N   1      26.996  42.921  50.084  0.00  0.00    -0.360 OA
HETATM   19  H   UNK N   1      27.089  43.616  49.427  0.00  0.00     0.217 HD
ENDBRANCH  12  18
BRANCH  15  20
HETATM   20  O   UNK N   1      23.502  44.265  52.947  0.00  0.00    -0.279 OA
BRANCH  20  21
HETATM   21  C   UNK N   1      23.107  45.549  53.166  0.00  0.00     0.260 C 
HETATM   22  O   UNK N   1      22.593  45.881  54.225  0.00  0.00    -0.265 OA
HETATM   23  C   UNK N   1      23.217  46.546  52.057  0.00  0.00     0.126 C 
ENDBRANCH  20  21
ENDBRANCH  15  20
ENDBRANCH   3   7
BRANCH   2  24
HETATM   24  O   UNK N   1      29.658  39.837  59.240  0.00  0.00    -0.276 OA
BRANCH  24  25
HETATM   25  C   UNK N   1      30.281  38.624  59.285  0.00  0.00     0.260 C 
HETATM   26  O   UNK N   1      29.903  37.693  58.585  0.00  0.00    -0.265 OA
HETATM   27  C   UNK N   1      31.379  38.397  60.272  0.00  0.00     0.126 C 
ENDBRANCH  24  25
ENDBRANCH   2  24
BRANCH   4  28
HETATM   28  C   UNK N   1      32.012  44.004  57.990  0.00  0.00     0.068 C 
BRANCH  28  29
HETATM   29  C   UNK N   1      31.385  45.308  57.549  0.00  0.00    -0.020 C 
HETATM   30  C   UNK N   1      30.620  46.140  58.297  0.00  0.00    -0.091 C 
HETATM   31  C   UNK N   1      30.059  47.387  57.656  0.00  0.00     0.042 C 
HETATM   32  C   UNK N   1      30.280  45.907  59.748  0.00  0.00     0.042 C 
ENDBRANCH  28  29
ENDBRANCH   4  28
BRANCH   1  33
HETATM   33  O   UNK N   1      31.630  41.826  59.751  0.00  0.00    -0.353 OA
HETATM   34  C   UNK N   1      31.242  42.235  61.010  0.00  0.00     0.210 C 
ENDBRANCH   1  33
TORSDOF 9
ENDMDL
MODEL 3
REMARK VINA RESULT:      -5.8     16.661     20.471
REMARK  9 active torsions:
REMARK  status: ('A' for Active; 'I' for Inactive)
REMARK    1  A    between atoms: O_2  and  C_11 
REMARK    2  A    between atoms: O_2  and  C_22 
REMARK    3  A    between atoms: O_3  and  C_12 
REMARK    4  A    between atoms: O_3  and  C_23 
REMARK    5  A    between atoms: O_4  and  C_10 
REMARK    6  A    between atoms: O_5  and  C_13 
REMARK    7  A    between atoms: C_14  and  C_21 
REMARK    8  A    between atoms: C_16  and  C_26 
REMARK    9  A    between atoms: C_26  and  C_29 
ROOT
HETATM    1  C   UNK N   1      30.712  44.521  59.524  0.00  0.00     0.108 A 
HETATM    2  C   UNK N   1      31.175  43.195  59.308  0.00  0.00     0.113 A 
HETATM    3  C   UNK N   1      29.807  43.035  57.287  0.00  0.00    -0.025 A 
HETATM    4  C   UNK N   1      29.748  45.062  58.645  0.00  0.00    -0.018 A 
HETATM    5  C   UNK N   1      30.738  42.480  58.178  0.00  0.00     0.050 A 
HETATM    6  C   UNK N   1      29.295  44.313  57.547  0.00  0.00     0.020 A 
ENDROOT
BRANCH   3   7
HETATM    7  C   UNK N   1      29.353  42.272  56.058  0.00  0.00     0.169 C 
HETATM    8  O   UNK N   1      29.469  40.904  56.275  0.00  0.00    -0.340 OA
HETATM    9  C   UNK N   1      29.015  39.986  55.375  0.00  0.00     0.089 A 
HETATM   10  C   UNK N   1      28.049  40.352  54.405  0.00  0.00     0.076 A 
HETATM   11  C   UNK N   1      29.537  38.687  55.399  0.00  0.00     0.075 A 
HETATM   12  C   UNK N   1      27.617  39.380  53.458  0.00  0.00     0.085 A 
HETATM   13  C   UNK N   1      27.574  41.769  54.446  0.00  0.00     0.167 C 
HETATM   14  C   UNK N   1      28.157  38.091  53.503  0.00  0.00     0.075 A 
HETATM   15  C   UNK N   1      29.123  37.737  54.446  0.00  0.00     0.084 A 
HETATM   16  O   UNK N   1      26.992  42.285  53.506  0.00  0.00    -0.292 OA
HETATM   17  C   UNK N   1      27.910  42.598  55.655  0.00  0.00     0.121 C 
BRANCH  12  18
HETATM   18  O   UNK N   1      26.695  39.634  52.502  0.00  0.00    -0.360 OA
HETATM   19  H   UNK N   1      26.443  40.509  52.193  0.00  0.00     0.217 HD
ENDBRANCH  12  18
BRANCH  15  20
HETATM   20  O   UNK N   1      29.634  36.476  54.397  0.00  0.00    -0.279 OA
BRANCH  20  21
HETATM   21  C   UNK N   1      30.166  35.775  55.436  0.00  0.00     0.260 C 
HETATM   22  O   UNK N   1      31.361  35.523  55.482  0.00  0.00    -0.265 OA
HETATM   23  C   UNK N   1      29.255  35.225  56.487  0.00  0.00     0.126 C 
ENDBRANCH  20  21
ENDBRANCH  15  20
ENDBRANCH   3   7
BRANCH   2  24
HETATM   24  O   UNK N   1      32.014  42.614  60.205  0.00  0.00    -0.276 OA
BRANCH  24  25
HETATM   25  C   UNK N   1      33.218  42.056  59.886  0.00  0.00     0.260 C 
HETATM   26  O   UNK N   1      33.456  40.882  60.136  0.00  0.00    -0.265 OA
HETATM   27  C   UNK N   1      34.296  42.914  59.309  0.00  0.00     0.126 C 
ENDBRANCH  24  25
ENDBRANCH   2  24
BRANCH   4  28
HETATM   28  C   UNK N   1      29.177  46.441  58.876  0.00  0.00     0.068 C 
BRANCH  28  29
HETATM   29  C   UNK N   1      30.001  47.451  58.109  0.00  0.00    -0.020 C 
HETATM   30  C   UNK N   1      29.545  48.393  57.248  0.00  0.00    -0.091 C 
HETATM   31  C   UNK N   1      30.542  49.290  56.554  0.00  0.00     0.042 C 
HETATM   32  C   UNK N   1      28.088  48.613  56.925  0.00  0.00     0.042 C 
ENDBRANCH  28  29
ENDBRANCH   4  28
BRANCH   1  33
HETATM   33  O   UNK N   1      31.134  45.297  60.565  0.00  0.00    -0.353 OA
HETATM   34  C   UNK N   1      30.723  45.242  61.881  0.00  0.00     0.210 C 
ENDBRANCH   1  33
TORSDOF 9
ENDMDL
MODEL 4
REMARK VINA RESULT:      -5.7     15.732     19.501
REMARK  9 active torsions:
REMARK  status: ('A' for Active; 'I' for Inactive)
REMARK    1  A    between atoms: O_2  and  C_11 
REMARK    2  A    between atoms: O_2  and  C_22 
REMARK    3  A    between atoms: O_3  and  C_12 
REMARK    4  A    between atoms: O_3  and  C_23 
REMARK    5  A    between atoms: O_4  and  C_10 
REMARK    6  A    between atoms: O_5  and  C_13 
REMARK    7  A    between atoms: C_14  and  C_21 
REMARK    8  A    between atoms: C_16  and  C_26 
REMARK    9  A    between atoms: C_26  and  C_29 
ROOT
HETATM    1  C   UNK N   1      30.894  42.104  58.761  0.00  0.00     0.108 A 
HETATM    2  C   UNK N   1      29.862  41.130  58.842  0.00  0.00     0.113 A 
HETATM    3  C   UNK N   1      29.167  41.660  56.558  0.00  0.00    -0.025 A 
HETATM    4  C   UNK N   1      31.004  42.890  57.592  0.00  0.00    -0.018 A 
HETATM    5  C   UNK N   1      29.031  40.901  57.730  0.00  0.00     0.050 A 
HETATM    6  C   UNK N   1      30.135  42.671  56.511  0.00  0.00     0.020 A 
ENDROOT
BRANCH   3   7
HETATM    7  C   UNK N   1      28.285  41.398  55.353  0.00  0.00     0.169 C 
HETATM    8  O   UNK N   1      27.976  42.595  54.718  0.00  0.00    -0.340 OA
HETATM    9  C   UNK N   1      27.295  42.636  53.537  0.00  0.00     0.089 A 
HETATM   10  C   UNK N   1      27.245  41.492  52.702  0.00  0.00     0.076 A 
HETATM   11  C   UNK N   1      26.621  43.808  53.174  0.00  0.00     0.075 A 
HETATM   12  C   UNK N   1      26.500  41.554  51.490  0.00  0.00     0.085 A 
HETATM   13  C   UNK N   1      27.975  40.283  53.190  0.00  0.00     0.167 C 
HETATM   14  C   UNK N   1      25.834  42.737  51.153  0.00  0.00     0.075 A 
HETATM   15  C   UNK N   1      25.868  43.856  51.986  0.00  0.00     0.084 A 
HETATM   16  O   UNK N   1      27.765  39.171  52.735  0.00  0.00    -0.292 OA
HETATM   17  C   UNK N   1      28.930  40.444  54.341  0.00  0.00     0.121 C 
BRANCH  12  18
HETATM   18  O   UNK N   1      26.402  40.518  50.626  0.00  0.00    -0.360 OA
HETATM   19  H   UNK N   1      26.996  39.763  50.594  0.00  0.00     0.217 HD
ENDBRANCH  12  18
BRANCH  15  20
HETATM   20  O   UNK N   1      25.158  44.955  51.611  0.00  0.00    -0.279 OA
BRANCH  20  21
HETATM   21  C   UNK N   1      23.948  44.965  50.989  0.00  0.00     0.260 C 
HETATM   22  O   UNK N   1      22.926  44.658  51.588  0.00  0.00    -0.265 OA
HETATM   23  C   UNK N   1      23.882  45.265  49.526  0.00  0.00     0.126 C 
ENDBRANCH  20  21
ENDBRANCH  15  20
ENDBRANCH   3   7
BRANCH   2  24
HETATM   24  O   UNK N   1      29.665  40.444  59.999  0.00  0.00    -0.276 OA
BRANCH  24  25
HETATM   25  C   UNK N   1      30.384  39.347  60.376  0.00  0.00     0.260 C 
HETATM   26  O   UNK N   1      31.006  39.332  61.430  0.00  0.00    -0.265 OA
HETATM   27  C   UNK N   1      30.492  38.184  59.446  0.00  0.00     0.126 C 
ENDBRANCH  24  25
ENDBRANCH   2  24
BRANCH   4  28
HETATM   28  C   UNK N   1      32.041  43.983  57.489  0.00  0.00     0.068 C 
BRANCH  28  29
HETATM   29  C   UNK N   1      31.343  45.301  57.236  0.00  0.00    -0.020 C 
HETATM   30  C   UNK N   1      30.678  46.060  58.140  0.00  0.00    -0.091 C 
HETATM   31  C   UNK N   1      30.018  47.337  57.676  0.00  0.00     0.042 C 
HETATM   32  C   UNK N   1      30.542  45.715  59.603  0.00  0.00     0.042 C 
ENDBRANCH  28  29
ENDBRANCH   4  28
BRANCH   1  33
HETATM   33  O   UNK N   1      31.775  42.343  59.776  0.00  0.00    -0.353 OA
HETATM   34  C   UNK N   1      33.069  41.881  59.897  0.00  0.00     0.210 C 
ENDBRANCH   1  33
TORSDOF 9
ENDMDL
MODEL 5
REMARK VINA RESULT:      -5.7      9.798     15.348
REMARK  9 active torsions:
REMARK  status: ('A' for Active; 'I' for Inactive)
REMARK    1  A    between atoms: O_2  and  C_11 
REMARK    2  A    between atoms: O_2  and  C_22 
REMARK    3  A    between atoms: O_3  and  C_12 
REMARK    4  A    between atoms: O_3  and  C_23 
REMARK    5  A    between atoms: O_4  and  C_10 
REMARK    6  A    between atoms: O_5  and  C_13 
REMARK    7  A    between atoms: C_14  and  C_21 
REMARK    8  A    between atoms: C_16  and  C_26 
REMARK    9  A    between atoms: C_26  and  C_29 
ROOT
HETATM    1  C   UNK N   1      41.226  44.055  48.540  0.00  0.00     0.108 A 
HETATM    2  C   UNK N   1      41.062  45.402  48.959  0.00  0.00     0.113 A 
HETATM    3  C   UNK N   1      41.020  46.134  46.626  0.00  0.00    -0.025 A 
HETATM    4  C   UNK N   1      41.350  43.776  47.161  0.00  0.00    -0.018 A 
HETATM    5  C   UNK N   1      40.932  46.420  47.997  0.00  0.00     0.050 A 
HETATM    6  C   UNK N   1      41.260  44.815  46.221  0.00  0.00     0.020 A 
ENDROOT
BRANCH   3   7
HETATM    7  C   UNK N   1      40.859  47.229  45.590  0.00  0.00     0.169 C 
HETATM    8  O   UNK N   1      39.510  47.470  45.356  0.00  0.00    -0.340 OA
HETATM    9  C   UNK N   1      39.083  48.489  44.557  0.00  0.00     0.089 A 
HETATM   10  C   UNK N   1      39.938  49.584  44.276  0.00  0.00     0.076 A 
HETATM   11  C   UNK N   1      37.804  48.427  43.991  0.00  0.00     0.075 A 
HETATM   12  C   UNK N   1      39.476  50.618  43.413  0.00  0.00     0.085 A 
HETATM   13  C   UNK N   1      41.292  49.545  44.907  0.00  0.00     0.167 C 
HETATM   14  C   UNK N   1      38.195  50.530  42.860  0.00  0.00     0.075 A 
HETATM   15  C   UNK N   1      37.361  49.441  43.121  0.00  0.00     0.084 A 
HETATM   16  O   UNK N   1      42.210  50.246  44.516  0.00  0.00    -0.292 OA
HETATM   17  C   UNK N   1      41.541  48.540  45.998  0.00  0.00     0.121 C 
BRANCH  12  18
HETATM   18  O   UNK N   1      40.216  51.705  43.095  0.00  0.00    -0.360 OA
HETATM   19  H   UNK N   1      41.164  51.790  43.231  0.00  0.00     0.217 HD
ENDBRANCH  12  18
BRANCH  15  20
HETATM   20  O   UNK N   1      36.146  49.404  42.509  0.00  0.00    -0.279 OA
BRANCH  20  21
HETATM   21  C   UNK N   1      34.933  49.563  43.104  0.00  0.00     0.260 C 
HETATM   22  O   UNK N   1      34.152  48.628  43.209  0.00  0.00    -0.265 OA
HETATM   23  C   UNK N   1      34.512  50.927  43.551  0.00  0.00     0.126 C 
ENDBRANCH  20  21
ENDBRANCH  15  20
ENDBRANCH   3   7
BRANCH   2  24
HETATM   24  O   UNK N   1      41.057  45.705  50.284  0.00  0.00    -0.276 OA
BRANCH  24  25
HETATM   25  C   UNK N   1      42.176  45.799  51.058  0.00  0.00     0.260 C 
HETATM   26  O   UNK N   1      43.252  46.130  50.576  0.00  0.00    -0.265 OA
HETATM   27  C   UNK N   1      42.112  45.399  52.496  0.00  0.00     0.126 C 
ENDBRANCH  24  25
ENDBRANCH   2  24
BRANCH   4  28
HETATM   28  C   UNK N   1      41.595  42.368  46.674  0.00  0.00     0.068 C 
BRANCH  28  29
HETATM   29  C   UNK N   1      43.085  42.106  46.654  0.00  0.00    -0.020 C 
HETATM   30  C   UNK N   1      43.935  42.300  45.616  0.00  0.00    -0.091 C 
HETATM   31  C   UNK N   1      45.391  41.944  45.790  0.00  0.00     0.042 C 
HETATM   32  C   UNK N   1      43.523  42.855  44.275  0.00  0.00     0.042 C 
ENDBRANCH  28  29
ENDBRANCH   4  28
BRANCH   1  33
HETATM   33  O   UNK N   1      41.302  43.007  49.412  0.00  0.00    -0.353 OA
HETATM   34  C   UNK N   1      40.452  42.715  50.459  0.00  0.00     0.210 C 
ENDBRANCH   1  33
TORSDOF 9
ENDMDL
MODEL 6
REMARK VINA RESULT:      -5.6      2.777      8.687
REMARK  9 active torsions:
REMARK  status: ('A' for Active; 'I' for Inactive)
REMARK    1  A    between atoms: O_2  and  C_11 
REMARK    2  A    between atoms: O_2  and  C_22 
REMARK    3  A    between atoms: O_3  and  C_12 
REMARK    4  A    between atoms: O_3  and  C_23 
REMARK    5  A    between atoms: O_4  and  C_10 
REMARK    6  A    between atoms: O_5  and  C_13 
REMARK    7  A    between atoms: C_14  and  C_21 
REMARK    8  A    between atoms: C_16  and  C_26 
REMARK    9  A    between atoms: C_26  and  C_29 
ROOT
HETATM    1  C   UNK N   1      33.481  52.053  44.236  0.00  0.00     0.108 A 
HETATM    2  C   UNK N   1      32.779  53.288  44.252  0.00  0.00     0.113 A 
HETATM    3  C   UNK N   1      31.403  52.543  42.373  0.00  0.00    -0.025 A 
HETATM    4  C   UNK N   1      33.171  51.102  43.238  0.00  0.00    -0.018 A 
HETATM    5  C   UNK N   1      31.730  53.506  43.340  0.00  0.00     0.050 A 
HETATM    6  C   UNK N   1      32.149  51.359  42.311  0.00  0.00     0.020 A 
ENDROOT
BRANCH   3   7
HETATM    7  C   UNK N   1      30.258  52.770  41.404  0.00  0.00     0.169 C 
HETATM    8  O   UNK N   1      29.399  53.743  41.900  0.00  0.00    -0.340 OA
HETATM    9  C   UNK N   1      28.352  54.226  41.171  0.00  0.00     0.089 A 
HETATM   10  C   UNK N   1      28.337  54.085  39.761  0.00  0.00     0.076 A 
HETATM   11  C   UNK N   1      27.278  54.833  41.833  0.00  0.00     0.075 A 
HETATM   12  C   UNK N   1      27.216  54.570  39.030  0.00  0.00     0.085 A 
HETATM   13  C   UNK N   1      29.517  53.399  39.152  0.00  0.00     0.167 C 
HETATM   14  C   UNK N   1      26.156  55.170  39.717  0.00  0.00     0.075 A 
HETATM   15  C   UNK N   1      26.162  55.291  41.107  0.00  0.00     0.084 A 
HETATM   16  O   UNK N   1      29.492  52.950  38.018  0.00  0.00    -0.292 OA
HETATM   17  C   UNK N   1      30.736  53.185  40.007  0.00  0.00     0.121 C 
BRANCH  12  18
HETATM   18  O   UNK N   1      27.117  54.488  37.684  0.00  0.00    -0.360 OA
HETATM   19  H   UNK N   1      27.207  53.682  37.169  0.00  0.00     0.217 HD
ENDBRANCH  12  18
BRANCH  15  20
HETATM   20  O   UNK N   1      25.074  55.846  41.707  0.00  0.00    -0.279 OA
BRANCH  20  21
HETATM   21  C   UNK N   1      25.054  56.971  42.472  0.00  0.00     0.260 C 
HETATM   22  O   UNK N   1      25.056  56.905  43.694  0.00  0.00    -0.265 OA
HETATM   23  C   UNK N   1      24.935  58.305  41.807  0.00  0.00     0.126 C 
ENDBRANCH  20  21
ENDBRANCH  15  20
ENDBRANCH   3   7
BRANCH   2  24
HETATM   24  O   UNK N   1      33.139  54.262  45.130  0.00  0.00    -0.276 OA
BRANCH  24  25
HETATM   25  C   UNK N   1      33.993  55.285  44.838  0.00  0.00     0.260 C 
HETATM   26  O   UNK N   1      34.688  55.260  43.831  0.00  0.00    -0.265 OA
HETATM   27  C   UNK N   1      34.154  56.408  45.810  0.00  0.00     0.126 C 
ENDBRANCH  24  25
ENDBRANCH   2  24
BRANCH   4  28
HETATM   28  C   UNK N   1      33.939  49.805  43.140  0.00  0.00     0.068 C 
BRANCH  28  29
HETATM   29  C   UNK N   1      35.406  50.116  42.937  0.00  0.00    -0.020 C 
HETATM   30  C   UNK N   1      36.416  49.225  42.789  0.00  0.00    -0.091 C 
HETATM   31  C   UNK N   1      37.826  49.741  42.630  0.00  0.00     0.042 C 
HETATM   32  C   UNK N   1      36.232  47.727  42.774  0.00  0.00     0.042 C 
ENDBRANCH  28  29
ENDBRANCH   4  28
BRANCH   1  33
HETATM   33  O   UNK N   1      34.470  51.746  45.125  0.00  0.00    -0.353 OA
HETATM   34  C   UNK N   1      34.374  51.654  46.498  0.00  0.00     0.210 C 
ENDBRANCH   1  33
TORSDOF 9
ENDMDL
MODEL 7
REMARK VINA RESULT:      -5.5      1.613      2.149
REMARK  9 active torsions:
REMARK  status: ('A' for Active; 'I' for Inactive)
REMARK    1  A    between atoms: O_2  and  C_11 
REMARK    2  A    between atoms: O_2  and  C_22 
REMARK    3  A    between atoms: O_3  and  C_12 
REMARK    4  A    between atoms: O_3  and  C_23 
REMARK    5  A    between atoms: O_4  and  C_10 
REMARK    6  A    between atoms: O_5  and  C_13 
REMARK    7  A    between atoms: C_14  and  C_21 
REMARK    8  A    between atoms: C_16  and  C_26 
REMARK    9  A    between atoms: C_26  and  C_29 
ROOT
HETATM    1  C   UNK N   1      26.748  54.444  38.076  0.00  0.00     0.108 A 
HETATM    2  C   UNK N   1      26.815  53.028  38.173  0.00  0.00     0.113 A 
HETATM    3  C   UNK N   1      28.928  53.201  39.393  0.00  0.00    -0.025 A 
HETATM    4  C   UNK N   1      27.814  55.217  38.587  0.00  0.00    -0.018 A 
HETATM    5  C   UNK N   1      27.889  52.426  38.855  0.00  0.00     0.050 A 
HETATM    6  C   UNK N   1      28.896  54.592  39.226  0.00  0.00     0.020 A 
ENDROOT
BRANCH   3   7
HETATM    7  C   UNK N   1      30.074  52.553  40.146  0.00  0.00     0.169 C 
HETATM    8  O   UNK N   1      30.273  53.201  41.359  0.00  0.00    -0.340 OA
HETATM    9  C   UNK N   1      31.163  52.745  42.287  0.00  0.00     0.089 A 
HETATM   10  C   UNK N   1      31.603  51.398  42.255  0.00  0.00     0.076 A 
HETATM   11  C   UNK N   1      31.661  53.630  43.251  0.00  0.00     0.075 A 
HETATM   12  C   UNK N   1      32.556  50.959  43.217  0.00  0.00     0.085 A 
HETATM   13  C   UNK N   1      31.031  50.542  41.171  0.00  0.00     0.167 C 
HETATM   14  C   UNK N   1      33.039  51.864  44.167  0.00  0.00     0.075 A 
HETATM   15  C   UNK N   1      32.621  53.196  44.186  0.00  0.00     0.084 A 
HETATM   16  O   UNK N   1      31.539  49.481  40.848  0.00  0.00    -0.292 OA
HETATM   17  C   UNK N   1      29.846  51.059  40.405  0.00  0.00     0.121 C 
BRANCH  12  18
HETATM   18  O   UNK N   1      33.027  49.692  43.270  0.00  0.00    -0.360 OA
HETATM   19  H   UNK N   1      32.600  48.961  43.724  0.00  0.00     0.217 HD
ENDBRANCH  12  18
BRANCH  15  20
HETATM   20  O   UNK N   1      33.171  54.027  45.113  0.00  0.00    -0.279 OA
BRANCH  20  21
HETATM   21  C   UNK N   1      33.946  55.118  44.866  0.00  0.00     0.260 C 
HETATM   22  O   UNK N   1      34.610  55.203  43.842  0.00  0.00    -0.265 OA
HETATM   23  C   UNK N   1      34.059  56.185  45.908  0.00  0.00     0.126 C 
ENDBRANCH  20  21
ENDBRANCH  15  20
ENDBRANCH   3   7
BRANCH   2  24
HETATM   24  O   UNK N   1      25.858  52.261  37.587  0.00  0.00    -0.276 OA
BRANCH  24  25
HETATM   25  C   UNK N   1      25.180  51.259  38.218  0.00  0.00     0.260 C 
HETATM   26  O   UNK N   1      24.549  51.472  39.245  0.00  0.00    -0.265 OA
HETATM   27  C   UNK N   1      25.288  49.861  37.703  0.00  0.00     0.126 C 
ENDBRANCH  24  25
ENDBRANCH   2  24
BRANCH   4  28
HETATM   28  C   UNK N   1      27.818  56.720  38.443  0.00  0.00     0.068 C 
BRANCH  28  29
HETATM   29  C   UNK N   1      28.254  57.340  39.753  0.00  0.00    -0.020 C 
HETATM   30  C   UNK N   1      27.459  57.700  40.790  0.00  0.00    -0.091 C 
HETATM   31  C   UNK N   1      28.090  58.337  42.005  0.00  0.00     0.042 C 
HETATM   32  C   UNK N   1      25.962  57.511  40.819  0.00  0.00     0.042 C 
ENDBRANCH  28  29
ENDBRANCH   4  28
BRANCH   1  33
HETATM   33  O   UNK N   1      25.711  55.102  37.480  0.00  0.00    -0.353 OA
HETATM   34  C   UNK N   1      24.441  55.305  37.980  0.00  0.00     0.210 C 
ENDBRANCH   1  33
TORSDOF 9
ENDMDL
MODEL 8
REMARK VINA RESULT:      -5.5     16.928     19.326
REMARK  9 active torsions:
REMARK  status: ('A' for Active; 'I' for Inactive)
REMARK    1  A    between atoms: O_2  and  C_11 
REMARK    2  A    between atoms: O_2  and  C_22 
REMARK    3  A    between atoms: O_3  and  C_12 
REMARK    4  A    between atoms: O_3  and  C_23 
REMARK    5  A    between atoms: O_4  and  C_10 
REMARK    6  A    between atoms: O_5  and  C_13 
REMARK    7  A    between atoms: C_14  and  C_21 
REMARK    8  A    between atoms: C_16  and  C_26 
REMARK    9  A    between atoms: C_26  and  C_29 
ROOT
HETATM    1  C   UNK N   1      27.626  40.535  53.088  0.00  0.00     0.108 A 
HETATM    2  C   UNK N   1      27.917  39.694  54.195  0.00  0.00     0.113 A 
HETATM    3  C   UNK N   1      29.034  41.551  55.327  0.00  0.00    -0.025 A 
HETATM    4  C   UNK N   1      28.106  41.864  53.092  0.00  0.00    -0.018 A 
HETATM    5  C   UNK N   1      28.592  40.220  55.312  0.00  0.00     0.050 A 
HETATM    6  C   UNK N   1      28.813  42.355  54.201  0.00  0.00     0.020 A 
ENDROOT
BRANCH   3   7
HETATM    7  C   UNK N   1      29.742  42.123  56.540  0.00  0.00     0.169 C 
HETATM    8  O   UNK N   1      29.749  41.192  57.572  0.00  0.00    -0.340 OA
HETATM    9  C   UNK N   1      30.427  41.405  58.736  0.00  0.00     0.089 A 
HETATM   10  C   UNK N   1      31.476  42.356  58.789  0.00  0.00     0.076 A 
HETATM   11  C   UNK N   1      30.055  40.697  59.885  0.00  0.00     0.075 A 
HETATM   12  C   UNK N   1      32.145  42.580  60.026  0.00  0.00     0.085 A 
HETATM   13  C   UNK N   1      31.780  43.078  57.516  0.00  0.00     0.167 C 
HETATM   14  C   UNK N   1      31.751  41.861  61.159  0.00  0.00     0.075 A 
HETATM   15  C   UNK N   1      30.704  40.938  61.111  0.00  0.00     0.084 A 
HETATM   16  O   UNK N   1      32.430  44.110  57.495  0.00  0.00    -0.292 OA
HETATM   17  C   UNK N   1      31.183  42.552  56.239  0.00  0.00     0.121 C 
BRANCH  12  18
HETATM   18  O   UNK N   1      33.162  43.459  60.171  0.00  0.00    -0.360 OA
HETATM   19  H   UNK N   1      33.065  44.386  60.403  0.00  0.00     0.217 HD
ENDBRANCH  12  18
BRANCH  15  20
HETATM   20  O   UNK N   1      30.349  40.311  62.265  0.00  0.00    -0.279 OA
BRANCH  20  21
HETATM   21  C   UNK N   1      29.082  40.079  62.706  0.00  0.00     0.260 C 
HETATM   22  O   UNK N   1      28.606  38.953  62.696  0.00  0.00    -0.265 OA
HETATM   23  C   UNK N   1      28.230  41.236  63.119  0.00  0.00     0.126 C 
ENDBRANCH  20  21
ENDBRANCH  15  20
ENDBRANCH   3   7
BRANCH   2  24
HETATM   24  O   UNK N   1      27.566  38.381  54.161  0.00  0.00    -0.276 OA
BRANCH  24  25
HETATM   25  C   UNK N   1      28.337  37.390  53.626  0.00  0.00     0.260 C 
HETATM   26  O   UNK N   1      28.088  36.922  52.523  0.00  0.00    -0.265 OA
HETATM   27  C   UNK N   1      29.445  36.801  54.437  0.00  0.00     0.126 C 
ENDBRANCH  24  25
ENDBRANCH   2  24
BRANCH   4  28
HETATM   28  C   UNK N   1      27.880  42.772  51.907  0.00  0.00     0.068 C 
BRANCH  28  29
HETATM   29  C   UNK N   1      26.677  43.648  52.179  0.00  0.00    -0.020 C 
HETATM   30  C   UNK N   1      25.600  43.828  51.376  0.00  0.00    -0.091 C 
HETATM   31  C   UNK N   1      24.512  44.777  51.819  0.00  0.00     0.042 C 
HETATM   32  C   UNK N   1      25.406  43.139  50.048  0.00  0.00     0.042 C 
ENDBRANCH  28  29
ENDBRANCH   4  28
BRANCH   1  33
HETATM   33  O   UNK N   1      26.927  40.112  51.994  0.00  0.00    -0.353 OA
HETATM   34  C   UNK N   1      25.564  39.932  51.880  0.00  0.00     0.210 C 
ENDBRANCH   1  33
TORSDOF 9
ENDMDL
MODEL 9
REMARK VINA RESULT:      -5.5     17.397     21.401
REMARK  9 active torsions:
REMARK  status: ('A' for Active; 'I' for Inactive)
REMARK    1  A    between atoms: O_2  and  C_11 
REMARK    2  A    between atoms: O_2  and  C_22 
REMARK    3  A    between atoms: O_3  and  C_12 
REMARK    4  A    between atoms: O_3  and  C_23 
REMARK    5  A    between atoms: O_4  and  C_10 
REMARK    6  A    between atoms: O_5  and  C_13 
REMARK    7  A    between atoms: C_14  and  C_21 
REMARK    8  A    between atoms: C_16  and  C_26 
REMARK    9  A    between atoms: C_26  and  C_29 
ROOT
HETATM    1  C   UNK N   1      31.121  44.070  59.765  0.00  0.00     0.108 A 
HETATM    2  C   UNK N   1      30.692  44.831  58.646  0.00  0.00     0.113 A 
HETATM    3  C   UNK N   1      30.304  42.775  57.381  0.00  0.00    -0.025 A 
HETATM    4  C   UNK N   1      31.196  42.663  59.649  0.00  0.00    -0.018 A 
HETATM    5  C   UNK N   1      30.262  44.173  57.479  0.00  0.00     0.050 A 
HETATM    6  C   UNK N   1      30.802  42.032  58.460  0.00  0.00     0.020 A 
ENDROOT
BRANCH   3   7
HETATM    7  C   UNK N   1      29.821  42.065  56.131  0.00  0.00     0.169 C 
HETATM    8  O   UNK N   1      29.714  40.700  56.368  0.00  0.00    -0.340 OA
HETATM    9  C   UNK N   1      29.186  39.843  55.447  0.00  0.00     0.089 A 
HETATM   10  C   UNK N   1      28.351  40.332  54.412  0.00  0.00     0.076 A 
HETATM   11  C   UNK N   1      29.503  38.481  55.518  0.00  0.00     0.075 A 
HETATM   12  C   UNK N   1      27.839  39.418  53.447  0.00  0.00     0.085 A 
HETATM   13  C   UNK N   1      28.093  41.804  54.409  0.00  0.00     0.167 C 
HETATM   14  C   UNK N   1      28.174  38.063  53.540  0.00  0.00     0.075 A 
HETATM   15  C   UNK N   1      29.013  37.586  54.548  0.00  0.00     0.084 A 
HETATM   16  O   UNK N   1      27.658  42.384  53.428  0.00  0.00    -0.292 OA
HETATM   17  C   UNK N   1      28.472  42.596  55.631  0.00  0.00     0.121 C 
BRANCH  12  18
HETATM   18  O   UNK N   1      27.029  39.790  52.431  0.00  0.00    -0.360 OA
HETATM   19  H   UNK N   1      26.633  39.193  51.790  0.00  0.00     0.217 HD
ENDBRANCH  12  18
BRANCH  15  20
HETATM   20  O   UNK N   1      29.330  36.262  54.545  0.00  0.00    -0.279 OA
BRANCH  20  21
HETATM   21  C   UNK N   1      30.090  35.608  55.464  0.00  0.00     0.260 C 
HETATM   22  O   UNK N   1      31.309  35.566  55.362  0.00  0.00    -0.265 OA
HETATM   23  C   UNK N   1      29.417  34.849  56.562  0.00  0.00     0.126 C 
ENDBRANCH  20  21
ENDBRANCH  15  20
ENDBRANCH   3   7
BRANCH   2  24
HETATM   24  O   UNK N   1      30.721  46.189  58.697  0.00  0.00    -0.276 OA
BRANCH  24  25
HETATM   25  C   UNK N   1      29.632  46.991  58.518  0.00  0.00     0.260 C 
HETATM   26  O   UNK N   1      28.609  46.821  59.167  0.00  0.00    -0.265 OA
HETATM   27  C   UNK N   1      29.654  48.033  57.447  0.00  0.00     0.126 C 
ENDBRANCH  24  25
ENDBRANCH   2  24
BRANCH   4  28
HETATM   28  C   UNK N   1      31.713  41.819  60.790  0.00  0.00     0.068 C 
BRANCH  28  29
HETATM   29  C   UNK N   1      31.661  40.362  60.387  0.00  0.00    -0.020 C 
HETATM   30  C   UNK N   1      30.807  39.417  60.849  0.00  0.00    -0.091 C 
HETATM   31  C   UNK N   1      30.941  38.002  60.341  0.00  0.00     0.042 C 
HETATM   32  C   UNK N   1      29.712  39.680  61.854  0.00  0.00     0.042 C 
ENDBRANCH  28  29
ENDBRANCH   4  28
BRANCH   1  33
HETATM   33  O   UNK N   1      31.498  44.633  60.950  0.00  0.00    -0.353 OA
HETATM   34  C   UNK N   1      30.685  45.173  61.926  0.00  0.00     0.210 C 
ENDBRANCH   1  33
TORSDOF 9
ENDMDL
