MODEL 1
REMARK VINA RESULT:      -7.1      0.000      0.000
REMARK  7 active torsions:
REMARK  status: ('A' for Active; 'I' for Inactive)
REMARK    1  A    between atoms: O_2  and  C_8 
REMARK    2  A    between atoms: O_3  and  C_9 
REMARK    3  A    between atoms: O_4  and  C_10 
REMARK    4  A    between atoms: O_5  and  C_11 
REMARK    5  A    between atoms: C_12  and  C_19 
REMARK    6  A    between atoms: C_14  and  C_21 
REMARK    7  A    between atoms: C_21  and  C_24 
ROOT
HETATM    1  C   UNK N   1      41.420  45.896  45.479  0.00  0.00     0.105 A 
HETATM    2  C   UNK N   1      41.467  47.040  46.300  0.00  0.00     0.099 A 
HETATM    3  C   UNK N   1      41.232  45.641  48.275  0.00  0.00    -0.025 A 
HETATM    4  C   UNK N   1      41.287  44.618  46.061  0.00  0.00    -0.018 A 
HETATM    5  C   UNK N   1      41.373  46.906  47.690  0.00  0.00     0.049 A 
HETATM    6  C   UNK N   1      41.198  44.500  47.457  0.00  0.00     0.020 A 
ENDROOT
BRANCH   3   7
HETATM    7  C   UNK N   1      41.115  45.499  49.771  0.00  0.00     0.169 C 
HETATM    8  O   UNK N   1      40.570  44.266  50.097  0.00  0.00    -0.340 OA
HETATM    9  C   UNK N   1      40.425  43.890  51.394  0.00  0.00     0.089 A 
HETATM   10  C   UNK N   1      41.217  44.492  52.395  0.00  0.00     0.076 A 
HETATM   11  C   UNK N   1      39.476  42.923  51.732  0.00  0.00     0.074 A 
HETATM   12  C   UNK N   1      41.011  44.147  53.747  0.00  0.00     0.085 A 
HETATM   13  C   UNK N   1      42.250  45.474  51.961  0.00  0.00     0.167 C 
HETATM   14  C   UNK N   1      40.036  43.191  54.075  0.00  0.00     0.074 A 
HETATM   15  C   UNK N   1      39.276  42.574  53.070  0.00  0.00     0.071 A 
HETATM   16  O   UNK N   1      42.955  46.057  52.769  0.00  0.00    -0.292 OA
HETATM   17  C   UNK N   1      42.466  45.683  50.485  0.00  0.00     0.121 C 
BRANCH  12  18
HETATM   18  O   UNK N   1      41.741  44.729  54.720  0.00  0.00    -0.360 OA
HETATM   19  H   UNK N   1      42.206  45.566  54.579  0.00  0.00     0.217 HD
ENDBRANCH  12  18
BRANCH  15  20
HETATM   20  O   UNK N   1      38.341  41.654  53.383  0.00  0.00    -0.361 OA
HETATM   21  H   UNK N   1      37.456  41.674  52.995  0.00  0.00     0.217 HD
ENDBRANCH  15  20
ENDBRANCH   3   7
BRANCH   2  22
HETATM   22  O   UNK N   1      41.598  48.264  45.749  0.00  0.00    -0.358 OA
HETATM   23  H   UNK N   1      41.281  48.457  44.854  0.00  0.00     0.218 HD
ENDBRANCH   2  22
BRANCH   4  24
HETATM   24  C   UNK N   1      41.229  43.370  45.210  0.00  0.00     0.068 C 
BRANCH  24  25
HETATM   25  C   UNK N   1      42.607  43.038  44.682  0.00  0.00    -0.020 C 
HETATM   26  C   UNK N   1      43.431  42.052  45.124  0.00  0.00    -0.091 C 
HETATM   27  C   UNK N   1      44.776  41.871  44.465  0.00  0.00     0.042 C 
HETATM   28  C   UNK N   1      43.096  41.097  46.248  0.00  0.00     0.042 C 
ENDBRANCH  24  25
ENDBRANCH   4  24
BRANCH   1  29
HETATM   29  O   UNK N   1      41.511  46.015  44.135  0.00  0.00    -0.357 OA
HETATM   30  H   UNK N   1      40.879  46.533  43.617  0.00  0.00     0.218 HD
ENDBRANCH   1  29
TORSDOF 7
ENDMDL
MODEL 2
REMARK VINA RESULT:      -7.0     12.547     16.506
REMARK  7 active torsions:
REMARK  status: ('A' for Active; 'I' for Inactive)
REMARK    1  A    between atoms: O_2  and  C_8 
REMARK    2  A    between atoms: O_3  and  C_9 
REMARK    3  A    between atoms: O_4  and  C_10 
REMARK    4  A    between atoms: O_5  and  C_11 
REMARK    5  A    between atoms: C_12  and  C_19 
REMARK    6  A    between atoms: C_14  and  C_21 
REMARK    7  A    between atoms: C_21  and  C_24 
ROOT
HETATM    1  C   UNK N   1      45.282  32.736  47.357  0.00  0.00     0.105 A 
HETATM    2  C   UNK N   1      45.582  32.983  46.002  0.00  0.00     0.099 A 
HETATM    3  C   UNK N   1      47.646  31.716  46.221  0.00  0.00    -0.025 A 
HETATM    4  C   UNK N   1      46.165  31.968  48.143  0.00  0.00    -0.018 A 
HETATM    5  C   UNK N   1      46.760  32.473  45.443  0.00  0.00     0.049 A 
HETATM    6  C   UNK N   1      47.340  31.460  47.567  0.00  0.00     0.020 A 
ENDROOT
BRANCH   3   7
HETATM    7  C   UNK N   1      48.922  31.181  45.623  0.00  0.00     0.169 C 
HETATM    8  O   UNK N   1      48.959  31.437  44.260  0.00  0.00    -0.340 OA
HETATM    9  C   UNK N   1      50.045  31.099  43.518  0.00  0.00     0.089 A 
HETATM   10  C   UNK N   1      51.299  30.924  44.141  0.00  0.00     0.076 A 
HETATM   11  C   UNK N   1      49.908  30.902  42.142  0.00  0.00     0.074 A 
HETATM   12  C   UNK N   1      52.406  30.503  43.374  0.00  0.00     0.085 A 
HETATM   13  C   UNK N   1      51.388  31.204  45.602  0.00  0.00     0.167 C 
HETATM   14  C   UNK N   1      52.248  30.287  41.996  0.00  0.00     0.074 A 
HETATM   15  C   UNK N   1      51.005  30.493  41.379  0.00  0.00     0.071 A 
HETATM   16  O   UNK N   1      52.430  31.050  46.219  0.00  0.00    -0.292 OA
HETATM   17  C   UNK N   1      50.176  31.760  46.302  0.00  0.00     0.121 C 
BRANCH  12  18
HETATM   18  O   UNK N   1      53.606  30.308  43.957  0.00  0.00    -0.360 OA
HETATM   19  H   UNK N   1      54.416  30.704  43.603  0.00  0.00     0.217 HD
ENDBRANCH  12  18
BRANCH  15  20
HETATM   20  O   UNK N   1      50.854  30.289  40.055  0.00  0.00    -0.361 OA
HETATM   21  H   UNK N   1      51.534  30.549  39.418  0.00  0.00     0.217 HD
ENDBRANCH  15  20
ENDBRANCH   3   7
BRANCH   2  22
HETATM   22  O   UNK N   1      44.738  33.714  45.244  0.00  0.00    -0.358 OA
HETATM   23  H   UNK N   1      44.988  34.029  44.362  0.00  0.00     0.218 HD
ENDBRANCH   2  22
BRANCH   4  24
HETATM   24  C   UNK N   1      45.876  31.686  49.600  0.00  0.00     0.068 C 
BRANCH  24  25
HETATM   25  C   UNK N   1      46.791  32.510  50.479  0.00  0.00    -0.020 C 
HETATM   26  C   UNK N   1      46.576  33.781  50.909  0.00  0.00    -0.091 C 
HETATM   27  C   UNK N   1      47.610  34.441  51.788  0.00  0.00     0.042 C 
HETATM   28  C   UNK N   1      45.354  34.604  50.571  0.00  0.00     0.042 C 
ENDBRANCH  24  25
ENDBRANCH   4  24
BRANCH   1  29
HETATM   29  O   UNK N   1      44.146  33.223  47.905  0.00  0.00    -0.357 OA
HETATM   30  H   UNK N   1      43.759  32.852  48.710  0.00  0.00     0.218 HD
ENDBRANCH   1  29
TORSDOF 7
ENDMDL
MODEL 3
REMARK VINA RESULT:      -6.9     12.437     15.566
REMARK  7 active torsions:
REMARK  status: ('A' for Active; 'I' for Inactive)
REMARK    1  A    between atoms: O_2  and  C_8 
REMARK    2  A    between atoms: O_3  and  C_9 
REMARK    3  A    between atoms: O_4  and  C_10 
REMARK    4  A    between atoms: O_5  and  C_11 
REMARK    5  A    between atoms: C_12  and  C_19 
REMARK    6  A    between atoms: C_14  and  C_21 
REMARK    7  A    between atoms: C_21  and  C_24 
ROOT
HETATM    1  C   UNK N   1      49.775  34.462  53.842  0.00  0.00     0.105 A 
HETATM    2  C   UNK N   1      48.475  34.486  53.298  0.00  0.00     0.099 A 
HETATM    3  C   UNK N   1      49.211  33.074  51.460  0.00  0.00    -0.025 A 
HETATM    4  C   UNK N   1      50.795  33.733  53.194  0.00  0.00    -0.018 A 
HETATM    5  C   UNK N   1      48.201  33.793  52.113  0.00  0.00     0.049 A 
HETATM    6  C   UNK N   1      50.503  33.040  52.009  0.00  0.00     0.020 A 
ENDROOT
BRANCH   3   7
HETATM    7  C   UNK N   1      48.919  32.341  50.175  0.00  0.00     0.169 C 
HETATM    8  O   UNK N   1      48.169  33.140  49.326  0.00  0.00    -0.340 OA
HETATM    9  C   UNK N   1      47.836  32.711  48.080  0.00  0.00     0.089 A 
HETATM   10  C   UNK N   1      48.597  31.701  47.456  0.00  0.00     0.076 A 
HETATM   11  C   UNK N   1      46.725  33.259  47.434  0.00  0.00     0.074 A 
HETATM   12  C   UNK N   1      48.203  31.211  46.193  0.00  0.00     0.085 A 
HETATM   13  C   UNK N   1      49.802  31.200  48.175  0.00  0.00     0.167 C 
HETATM   14  C   UNK N   1      47.071  31.754  45.565  0.00  0.00     0.074 A 
HETATM   15  C   UNK N   1      46.338  32.781  46.179  0.00  0.00     0.071 A 
HETATM   16  O   UNK N   1      50.496  30.308  47.714  0.00  0.00    -0.292 OA
HETATM   17  C   UNK N   1      50.199  31.872  49.463  0.00  0.00     0.121 C 
BRANCH  12  18
HETATM   18  O   UNK N   1      48.904  30.229  45.591  0.00  0.00    -0.360 OA
HETATM   19  H   UNK N   1      49.577  29.719  46.063  0.00  0.00     0.217 HD
ENDBRANCH  12  18
BRANCH  15  20
HETATM   20  O   UNK N   1      45.252  33.306  45.576  0.00  0.00    -0.361 OA
HETATM   21  H   UNK N   1      44.764  34.047  45.961  0.00  0.00     0.217 HD
ENDBRANCH  15  20
ENDBRANCH   3   7
BRANCH   2  22
HETATM   22  O   UNK N   1      47.495  35.179  53.915  0.00  0.00    -0.358 OA
HETATM   23  H   UNK N   1      47.164  36.018  53.562  0.00  0.00     0.218 HD
ENDBRANCH   2  22
BRANCH   4  24
HETATM   24  C   UNK N   1      52.201  33.689  53.748  0.00  0.00     0.068 C 
BRANCH  24  25
HETATM   25  C   UNK N   1      53.140  34.451  52.839  0.00  0.00    -0.020 C 
HETATM   26  C   UNK N   1      53.554  35.736  52.993  0.00  0.00    -0.091 C 
HETATM   27  C   UNK N   1      54.502  36.326  51.978  0.00  0.00     0.042 C 
HETATM   28  C   UNK N   1      53.133  36.641  54.129  0.00  0.00     0.042 C 
ENDBRANCH  24  25
ENDBRANCH   4  24
BRANCH   1  29
HETATM   29  O   UNK N   1      50.049  35.128  54.986  0.00  0.00    -0.357 OA
HETATM   30  H   UNK N   1      49.818  36.059  55.112  0.00  0.00     0.218 HD
ENDBRANCH   1  29
TORSDOF 7
ENDMDL
MODEL 4
REMARK VINA RESULT:      -6.7     12.182     15.175
REMARK  7 active torsions:
REMARK  status: ('A' for Active; 'I' for Inactive)
REMARK    1  A    between atoms: O_2  and  C_8 
REMARK    2  A    between atoms: O_3  and  C_9 
REMARK    3  A    between atoms: O_4  and  C_10 
REMARK    4  A    between atoms: O_5  and  C_11 
REMARK    5  A    between atoms: C_12  and  C_19 
REMARK    6  A    between atoms: C_14  and  C_21 
REMARK    7  A    between atoms: C_21  and  C_24 
ROOT
HETATM    1  C   UNK N   1      49.172  33.037  54.649  0.00  0.00     0.105 A 
HETATM    2  C   UNK N   1      47.773  33.024  54.485  0.00  0.00     0.099 A 
HETATM    3  C   UNK N   1      48.043  33.336  52.089  0.00  0.00    -0.025 A 
HETATM    4  C   UNK N   1      50.010  33.192  53.525  0.00  0.00    -0.018 A 
HETATM    5  C   UNK N   1      47.217  33.173  53.209  0.00  0.00     0.049 A 
HETATM    6  C   UNK N   1      49.438  33.336  52.251  0.00  0.00     0.020 A 
ENDROOT
BRANCH   3   7
HETATM    7  C   UNK N   1      47.444  33.512  50.717  0.00  0.00     0.169 C 
HETATM    8  O   UNK N   1      48.058  32.660  49.811  0.00  0.00    -0.340 OA
HETATM    9  C   UNK N   1      47.639  32.599  48.520  0.00  0.00     0.089 A 
HETATM   10  C   UNK N   1      46.335  33.015  48.181  0.00  0.00     0.076 A 
HETATM   11  C   UNK N   1      48.514  32.146  47.530  0.00  0.00     0.074 A 
HETATM   12  C   UNK N   1      45.932  33.016  46.829  0.00  0.00     0.085 A 
HETATM   13  C   UNK N   1      45.433  33.434  49.291  0.00  0.00     0.167 C 
HETATM   14  C   UNK N   1      46.830  32.581  45.841  0.00  0.00     0.074 A 
HETATM   15  C   UNK N   1      48.116  32.139  46.191  0.00  0.00     0.071 A 
HETATM   16  O   UNK N   1      44.299  33.832  49.077  0.00  0.00    -0.292 OA
HETATM   17  C   UNK N   1      45.923  33.284  50.708  0.00  0.00     0.121 C 
BRANCH  12  18
HETATM   18  O   UNK N   1      44.697  33.433  46.483  0.00  0.00    -0.360 OA
HETATM   19  H   UNK N   1      44.444  34.366  46.519  0.00  0.00     0.217 HD
ENDBRANCH  12  18
BRANCH  15  20
HETATM   20  O   UNK N   1      48.978  31.717  45.244  0.00  0.00    -0.361 OA
HETATM   21  H   UNK N   1      49.801  32.191  45.056  0.00  0.00     0.217 HD
ENDBRANCH  15  20
ENDBRANCH   3   7
BRANCH   2  22
HETATM   22  O   UNK N   1      46.967  32.872  55.557  0.00  0.00    -0.358 OA
HETATM   23  H   UNK N   1      47.298  32.970  56.462  0.00  0.00     0.218 HD
ENDBRANCH   2  22
BRANCH   4  24
HETATM   24  C   UNK N   1      51.515  33.214  53.665  0.00  0.00     0.068 C 
BRANCH  24  25
HETATM   25  C   UNK N   1      51.980  34.601  54.052  0.00  0.00    -0.020 C 
HETATM   26  C   UNK N   1      52.921  35.348  53.418  0.00  0.00    -0.091 C 
HETATM   27  C   UNK N   1      53.250  36.719  53.955  0.00  0.00     0.042 C 
HETATM   28  C   UNK N   1      53.680  34.905  52.188  0.00  0.00     0.042 C 
ENDBRANCH  24  25
ENDBRANCH   4  24
BRANCH   1  29
HETATM   29  O   UNK N   1      49.718  32.893  55.878  0.00  0.00    -0.357 OA
HETATM   30  H   UNK N   1      50.659  32.710  56.008  0.00  0.00     0.218 HD
ENDBRANCH   1  29
TORSDOF 7
ENDMDL
MODEL 5
REMARK VINA RESULT:      -6.3      2.914      7.983
REMARK  7 active torsions:
REMARK  status: ('A' for Active; 'I' for Inactive)
REMARK    1  A    between atoms: O_2  and  C_8 
REMARK    2  A    between atoms: O_3  and  C_9 
REMARK    3  A    between atoms: O_4  and  C_10 
REMARK    4  A    between atoms: O_5  and  C_11 
REMARK    5  A    between atoms: C_12  and  C_19 
REMARK    6  A    between atoms: C_14  and  C_21 
REMARK    7  A    between atoms: C_21  and  C_24 
ROOT
HETATM    1  C   UNK N   1      41.363  43.362  48.441  0.00  0.00     0.105 A 
HETATM    2  C   UNK N   1      42.048  43.375  47.210  0.00  0.00     0.099 A 
HETATM    3  C   UNK N   1      41.087  45.547  46.689  0.00  0.00    -0.025 A 
HETATM    4  C   UNK N   1      40.543  44.452  48.800  0.00  0.00    -0.018 A 
HETATM    5  C   UNK N   1      41.906  44.465  46.343  0.00  0.00     0.049 A 
HETATM    6  C   UNK N   1      40.414  45.539  47.922  0.00  0.00     0.020 A 
ENDROOT
BRANCH   3   7
HETATM    7  C   UNK N   1      40.922  46.713  45.748  0.00  0.00     0.169 C 
HETATM    8  O   UNK N   1      39.577  47.007  45.577  0.00  0.00    -0.340 OA
HETATM    9  C   UNK N   1      39.187  48.063  44.816  0.00  0.00     0.089 A 
HETATM   10  C   UNK N   1      40.081  49.127  44.576  0.00  0.00     0.076 A 
HETATM   11  C   UNK N   1      37.908  48.076  44.256  0.00  0.00     0.074 A 
HETATM   12  C   UNK N   1      39.693  50.185  43.727  0.00  0.00     0.085 A 
HETATM   13  C   UNK N   1      41.410  49.078  45.249  0.00  0.00     0.167 C 
HETATM   14  C   UNK N   1      38.413  50.174  43.152  0.00  0.00     0.074 A 
HETATM   15  C   UNK N   1      37.519  49.127  43.421  0.00  0.00     0.071 A 
HETATM   16  O   UNK N   1      42.249  49.947  45.070  0.00  0.00    -0.292 OA
HETATM   17  C   UNK N   1      41.679  47.964  46.226  0.00  0.00     0.121 C 
BRANCH  12  18
HETATM   18  O   UNK N   1      40.543  51.199  43.466  0.00  0.00    -0.360 OA
HETATM   19  H   UNK N   1      41.045  51.638  44.168  0.00  0.00     0.217 HD
ENDBRANCH  12  18
BRANCH  15  20
HETATM   20  O   UNK N   1      36.287  49.117  42.872  0.00  0.00    -0.361 OA
HETATM   21  H   UNK N   1      36.111  49.517  42.009  0.00  0.00     0.217 HD
ENDBRANCH  15  20
ENDBRANCH   3   7
BRANCH   2  22
HETATM   22  O   UNK N   1      42.837  42.336  46.863  0.00  0.00    -0.358 OA
HETATM   23  H   UNK N   1      43.257  42.284  45.991  0.00  0.00     0.218 HD
ENDBRANCH   2  22
BRANCH   4  24
HETATM   24  C   UNK N   1      39.791  44.470  50.112  0.00  0.00     0.068 C 
BRANCH  24  25
HETATM   25  C   UNK N   1      40.707  44.917  51.229  0.00  0.00    -0.020 C 
HETATM   26  C   UNK N   1      40.765  44.404  52.486  0.00  0.00    -0.091 C 
HETATM   27  C   UNK N   1      41.753  44.983  53.468  0.00  0.00     0.042 C 
HETATM   28  C   UNK N   1      39.900  43.270  52.988  0.00  0.00     0.042 C 
ENDBRANCH  24  25
ENDBRANCH   4  24
BRANCH   1  29
HETATM   29  O   UNK N   1      41.495  42.314  49.286  0.00  0.00    -0.357 OA
HETATM   30  H   UNK N   1      42.094  42.333  50.045  0.00  0.00     0.218 HD
ENDBRANCH   1  29
TORSDOF 7
ENDMDL
MODEL 6
REMARK VINA RESULT:      -6.2     12.470     14.781
REMARK  7 active torsions:
REMARK  status: ('A' for Active; 'I' for Inactive)
REMARK    1  A    between atoms: O_2  and  C_8 
REMARK    2  A    between atoms: O_3  and  C_9 
REMARK    3  A    between atoms: O_4  and  C_10 
REMARK    4  A    between atoms: O_5  and  C_11 
REMARK    5  A    between atoms: C_12  and  C_19 
REMARK    6  A    between atoms: C_14  and  C_21 
REMARK    7  A    between atoms: C_21  and  C_24 
ROOT
HETATM    1  C   UNK N   1      48.502  31.886  45.659  0.00  0.00     0.105 A 
HETATM    2  C   UNK N   1      49.870  31.576  45.797  0.00  0.00     0.099 A 
HETATM    3  C   UNK N   1      49.890  32.611  47.997  0.00  0.00    -0.025 A 
HETATM    4  C   UNK N   1      47.825  32.554  46.700  0.00  0.00    -0.018 A 
HETATM    5  C   UNK N   1      50.554  31.939  46.963  0.00  0.00     0.049 A 
HETATM    6  C   UNK N   1      48.524  32.908  47.865  0.00  0.00     0.020 A 
ENDROOT
BRANCH   3   7
HETATM    7  C   UNK N   1      50.631  33.015  49.246  0.00  0.00     0.169 C 
HETATM    8  O   UNK N   1      49.840  32.803  50.365  0.00  0.00    -0.340 OA
HETATM    9  C   UNK N   1      50.323  33.040  51.613  0.00  0.00     0.089 A 
HETATM   10  C   UNK N   1      51.715  33.048  51.841  0.00  0.00     0.076 A 
HETATM   11  C   UNK N   1      49.435  33.297  52.661  0.00  0.00     0.074 A 
HETATM   12  C   UNK N   1      52.209  33.363  53.124  0.00  0.00     0.085 A 
HETATM   13  C   UNK N   1      52.604  32.709  50.694  0.00  0.00     0.167 C 
HETATM   14  C   UNK N   1      51.307  33.644  54.162  0.00  0.00     0.074 A 
HETATM   15  C   UNK N   1      49.923  33.603  53.934  0.00  0.00     0.071 A 
HETATM   16  O   UNK N   1      53.820  32.721  50.804  0.00  0.00    -0.292 OA
HETATM   17  C   UNK N   1      51.970  32.273  49.399  0.00  0.00     0.121 C 
BRANCH  12  18
HETATM   18  O   UNK N   1      53.538  33.399  53.355  0.00  0.00    -0.360 OA
HETATM   19  H   UNK N   1      54.157  33.783  52.717  0.00  0.00     0.217 HD
ENDBRANCH  12  18
BRANCH  15  20
HETATM   20  O   UNK N   1      49.054  33.868  54.931  0.00  0.00    -0.361 OA
HETATM   21  H   UNK N   1      48.099  33.774  54.812  0.00  0.00     0.217 HD
ENDBRANCH  15  20
ENDBRANCH   3   7
BRANCH   2  22
HETATM   22  O   UNK N   1      50.522  30.934  44.805  0.00  0.00    -0.358 OA
HETATM   23  H   UNK N   1      50.878  30.040  44.924  0.00  0.00     0.218 HD
ENDBRANCH   2  22
BRANCH   4  24
HETATM   24  C   UNK N   1      46.359  32.906  46.584  0.00  0.00     0.068 C 
BRANCH  24  25
HETATM   25  C   UNK N   1      45.954  33.822  47.717  0.00  0.00    -0.020 C 
HETATM   26  C   UNK N   1      45.164  33.504  48.776  0.00  0.00    -0.091 C 
HETATM   27  C   UNK N   1      44.871  34.558  49.814  0.00  0.00     0.042 C 
HETATM   28  C   UNK N   1      44.543  32.144  49.002  0.00  0.00     0.042 C 
ENDBRANCH  24  25
ENDBRANCH   4  24
BRANCH   1  29
HETATM   29  O   UNK N   1      47.833  31.539  44.536  0.00  0.00    -0.357 OA
HETATM   30  H   UNK N   1      48.283  31.215  43.744  0.00  0.00     0.218 HD
ENDBRANCH   1  29
TORSDOF 7
ENDMDL
MODEL 7
REMARK VINA RESULT:      -5.9     12.645     15.054
REMARK  7 active torsions:
REMARK  status: ('A' for Active; 'I' for Inactive)
REMARK    1  A    between atoms: O_2  and  C_8 
REMARK    2  A    between atoms: O_3  and  C_9 
REMARK    3  A    between atoms: O_4  and  C_10 
REMARK    4  A    between atoms: O_5  and  C_11 
REMARK    5  A    between atoms: C_12  and  C_19 
REMARK    6  A    between atoms: C_14  and  C_21 
REMARK    7  A    between atoms: C_21  and  C_24 
ROOT
HETATM    1  C   UNK N   1      27.445  42.405  51.467  0.00  0.00     0.105 A 
HETATM    2  C   UNK N   1      28.802  42.173  51.770  0.00  0.00     0.099 A 
HETATM    3  C   UNK N   1      28.288  42.234  54.146  0.00  0.00    -0.025 A 
HETATM    4  C   UNK N   1      26.505  42.543  52.510  0.00  0.00    -0.018 A 
HETATM    5  C   UNK N   1      29.214  42.089  53.105  0.00  0.00     0.049 A 
HETATM    6  C   UNK N   1      26.935  42.452  53.843  0.00  0.00     0.020 A 
ENDROOT
BRANCH   3   7
HETATM    7  C   UNK N   1      28.736  42.160  55.583  0.00  0.00     0.169 C 
HETATM    8  O   UNK N   1      29.956  42.800  55.741  0.00  0.00    -0.340 OA
HETATM    9  C   UNK N   1      30.530  42.913  56.967  0.00  0.00     0.089 A 
HETATM   10  C   UNK N   1      29.735  42.819  58.129  0.00  0.00     0.076 A 
HETATM   11  C   UNK N   1      31.910  43.100  57.071  0.00  0.00     0.074 A 
HETATM   12  C   UNK N   1      30.347  42.867  59.398  0.00  0.00     0.085 A 
HETATM   13  C   UNK N   1      28.263  42.677  57.947  0.00  0.00     0.167 C 
HETATM   14  C   UNK N   1      31.739  43.031  59.488  0.00  0.00     0.074 A 
HETATM   15  C   UNK N   1      32.518  43.155  58.327  0.00  0.00     0.071 A 
HETATM   16  O   UNK N   1      27.510  42.563  58.902  0.00  0.00    -0.292 OA
HETATM   17  C   UNK N   1      27.700  42.755  56.552  0.00  0.00     0.121 C 
BRANCH  12  18
HETATM   18  O   UNK N   1      29.606  42.755  60.520  0.00  0.00    -0.360 OA
HETATM   19  H   UNK N   1      28.642  42.674  60.489  0.00  0.00     0.217 HD
ENDBRANCH  12  18
BRANCH  15  20
HETATM   20  O   UNK N   1      33.854  43.316  58.412  0.00  0.00    -0.361 OA
HETATM   21  H   UNK N   1      34.337  43.147  59.233  0.00  0.00     0.217 HD
ENDBRANCH  15  20
ENDBRANCH   3   7
BRANCH   2  22
HETATM   22  O   UNK N   1      29.704  42.036  50.776  0.00  0.00    -0.358 OA
HETATM   23  H   UNK N   1      29.869  41.181  50.352  0.00  0.00     0.218 HD
ENDBRANCH   2  22
BRANCH   4  24
HETATM   24  C   UNK N   1      25.043  42.795  52.221  0.00  0.00     0.068 C 
BRANCH  24  25
HETATM   25  C   UNK N   1      24.767  44.282  52.203  0.00  0.00    -0.020 C 
HETATM   26  C   UNK N   1      24.371  45.022  51.134  0.00  0.00    -0.091 C 
HETATM   27  C   UNK N   1      24.141  46.503  51.313  0.00  0.00     0.042 C 
HETATM   28  C   UNK N   1      24.135  44.466  49.748  0.00  0.00     0.042 C 
ENDBRANCH  24  25
ENDBRANCH   4  24
BRANCH   1  29
HETATM   29  O   UNK N   1      27.036  42.486  50.180  0.00  0.00    -0.357 OA
HETATM   30  H   UNK N   1      27.061  43.314  49.681  0.00  0.00     0.218 HD
ENDBRANCH   1  29
TORSDOF 7
ENDMDL
MODEL 8
REMARK VINA RESULT:      -5.8     13.207     16.037
REMARK  7 active torsions:
REMARK  status: ('A' for Active; 'I' for Inactive)
REMARK    1  A    between atoms: O_2  and  C_8 
REMARK    2  A    between atoms: O_3  and  C_9 
REMARK    3  A    between atoms: O_4  and  C_10 
REMARK    4  A    between atoms: O_5  and  C_11 
REMARK    5  A    between atoms: C_12  and  C_19 
REMARK    6  A    between atoms: C_14  and  C_21 
REMARK    7  A    between atoms: C_21  and  C_24 
ROOT
HETATM    1  C   UNK N   1      30.684  41.634  58.560  0.00  0.00     0.105 A 
HETATM    2  C   UNK N   1      29.768  40.628  58.193  0.00  0.00     0.099 A 
HETATM    3  C   UNK N   1      29.359  41.761  56.081  0.00  0.00    -0.025 A 
HETATM    4  C   UNK N   1      30.944  42.703  57.678  0.00  0.00    -0.018 A 
HETATM    5  C   UNK N   1      29.112  40.697  56.958  0.00  0.00     0.049 A 
HETATM    6  C   UNK N   1      30.281  42.757  56.442  0.00  0.00     0.020 A 
ENDROOT
BRANCH   3   7
HETATM    7  C   UNK N   1      28.640  41.844  54.759  0.00  0.00     0.169 C 
HETATM    8  O   UNK N   1      27.599  42.757  54.833  0.00  0.00    -0.340 OA
HETATM    9  C   UNK N   1      26.845  43.044  53.739  0.00  0.00     0.089 A 
HETATM   10  C   UNK N   1      27.359  42.806  52.447  0.00  0.00     0.076 A 
HETATM   11  C   UNK N   1      25.555  43.553  53.903  0.00  0.00     0.074 A 
HETATM   12  C   UNK N   1      26.544  43.040  51.319  0.00  0.00     0.085 A 
HETATM   13  C   UNK N   1      28.762  42.317  52.342  0.00  0.00     0.167 C 
HETATM   14  C   UNK N   1      25.241  43.529  51.499  0.00  0.00     0.074 A 
HETATM   15  C   UNK N   1      24.749  43.792  52.787  0.00  0.00     0.071 A 
HETATM   16  O   UNK N   1      29.270  42.062  51.261  0.00  0.00    -0.292 OA
HETATM   17  C   UNK N   1      29.583  42.213  53.600  0.00  0.00     0.121 C 
BRANCH  12  18
HETATM   18  O   UNK N   1      27.010  42.796  50.077  0.00  0.00    -0.360 OA
HETATM   19  H   UNK N   1      26.930  41.925  49.664  0.00  0.00     0.217 HD
ENDBRANCH  12  18
BRANCH  15  20
HETATM   20  O   UNK N   1      23.498  44.265  52.961  0.00  0.00    -0.361 OA
HETATM   21  H   UNK N   1      23.177  45.043  52.484  0.00  0.00     0.217 HD
ENDBRANCH  15  20
ENDBRANCH   3   7
BRANCH   2  22
HETATM   22  O   UNK N   1      29.519  39.601  59.032  0.00  0.00    -0.358 OA
HETATM   23  H   UNK N   1      28.616  39.361  59.290  0.00  0.00     0.218 HD
ENDBRANCH   2  22
BRANCH   4  24
HETATM   24  C   UNK N   1      31.918  43.801  58.041  0.00  0.00     0.068 C 
BRANCH  24  25
HETATM   25  C   UNK N   1      31.410  45.133  57.537  0.00  0.00    -0.020 C 
HETATM   26  C   UNK N   1      30.679  46.041  58.236  0.00  0.00    -0.091 C 
HETATM   27  C   UNK N   1      30.263  47.324  57.560  0.00  0.00     0.042 C 
HETATM   28  C   UNK N   1      30.242  45.864  59.673  0.00  0.00     0.042 C 
ENDBRANCH  24  25
ENDBRANCH   4  24
BRANCH   1  29
HETATM   29  O   UNK N   1      31.324  41.575  59.750  0.00  0.00    -0.357 OA
HETATM   30  H   UNK N   1      30.892  41.815  60.582  0.00  0.00     0.218 HD
ENDBRANCH   1  29
TORSDOF 7
ENDMDL
MODEL 9
REMARK VINA RESULT:      -5.8     13.917     17.104
REMARK  7 active torsions:
REMARK  status: ('A' for Active; 'I' for Inactive)
REMARK    1  A    between atoms: O_2  and  C_8 
REMARK    2  A    between atoms: O_3  and  C_9 
REMARK    3  A    between atoms: O_4  and  C_10 
REMARK    4  A    between atoms: O_5  and  C_11 
REMARK    5  A    between atoms: C_12  and  C_19 
REMARK    6  A    between atoms: C_14  and  C_21 
REMARK    7  A    between atoms: C_21  and  C_24 
ROOT
HETATM    1  C   UNK N   1      37.837  46.146  62.793  0.00  0.00     0.105 A 
HETATM    2  C   UNK N   1      38.165  47.343  63.460  0.00  0.00     0.099 A 
HETATM    3  C   UNK N   1      35.803  47.893  63.647  0.00  0.00    -0.025 A 
HETATM    4  C   UNK N   1      36.485  45.818  62.560  0.00  0.00    -0.018 A 
HETATM    5  C   UNK N   1      37.148  48.208  63.882  0.00  0.00     0.049 A 
HETATM    6  C   UNK N   1      35.477  46.694  62.994  0.00  0.00     0.020 A 
ENDROOT
BRANCH   3   7
HETATM    7  C   UNK N   1      34.710  48.832  64.088  0.00  0.00     0.169 C 
HETATM    8  O   UNK N   1      34.826  50.048  63.430  0.00  0.00    -0.340 OA
HETATM    9  C   UNK N   1      33.911  51.033  63.623  0.00  0.00     0.089 A 
HETATM   10  C   UNK N   1      32.620  50.715  64.096  0.00  0.00     0.076 A 
HETATM   11  C   UNK N   1      34.262  52.362  63.372  0.00  0.00     0.074 A 
HETATM   12  C   UNK N   1      31.700  51.750  64.361  0.00  0.00     0.085 A 
HETATM   13  C   UNK N   1      32.292  49.274  64.289  0.00  0.00     0.167 C 
HETATM   14  C   UNK N   1      32.074  53.083  64.128  0.00  0.00     0.074 A 
HETATM   15  C   UNK N   1      33.349  53.389  63.627  0.00  0.00     0.071 A 
HETATM   16  O   UNK N   1      31.207  48.919  64.721  0.00  0.00    -0.292 OA
HETATM   17  C   UNK N   1      33.306  48.244  63.865  0.00  0.00     0.121 C 
BRANCH  12  18
HETATM   18  O   UNK N   1      30.470  51.467  64.837  0.00  0.00    -0.360 OA
HETATM   19  H   UNK N   1      29.807  52.157  64.982  0.00  0.00     0.217 HD
ENDBRANCH  12  18
BRANCH  15  20
HETATM   20  O   UNK N   1      33.709  54.668  63.399  0.00  0.00    -0.361 OA
HETATM   21  H   UNK N   1      34.564  55.016  63.688  0.00  0.00     0.217 HD
ENDBRANCH  15  20
ENDBRANCH   3   7
BRANCH   2  22
HETATM   22  O   UNK N   1      39.456  47.660  63.688  0.00  0.00    -0.358 OA
HETATM   23  H   UNK N   1      39.713  48.288  64.380  0.00  0.00     0.218 HD
ENDBRANCH   2  22
BRANCH   4  24
HETATM   24  C   UNK N   1      36.098  44.544  61.845  0.00  0.00     0.068 C 
BRANCH  24  25
HETATM   25  C   UNK N   1      34.690  44.143  62.224  0.00  0.00    -0.020 C 
HETATM   26  C   UNK N   1      33.816  43.431  61.464  0.00  0.00    -0.091 C 
HETATM   27  C   UNK N   1      32.446  43.124  62.017  0.00  0.00     0.042 C 
HETATM   28  C   UNK N   1      34.116  42.909  60.077  0.00  0.00     0.042 C 
ENDBRANCH  24  25
ENDBRANCH   4  24
BRANCH   1  29
HETATM   29  O   UNK N   1      38.812  45.304  62.382  0.00  0.00    -0.357 OA
HETATM   30  H   UNK N   1      39.549  45.596  61.827  0.00  0.00     0.218 HD
ENDBRANCH   1  29
TORSDOF 7
ENDMDL
