MODEL 1
REMARK VINA RESULT:      -6.7      0.000      0.000
REMARK  6 active torsions:
REMARK  status: ('A' for Active; 'I' for Inactive)
REMARK    1  A    between atoms: O_3  and  C_9 
REMARK    2  A    between atoms: O_4  and  C_10 
REMARK    3  A    between atoms: O_5  and  C_11 
REMARK    4  A    between atoms: C_12  and  C_19 
REMARK    5  A    between atoms: C_14  and  C_23 
REMARK    6  A    between atoms: C_23  and  C_27 
ROOT
HETATM    1  O   UNK N   1      32.702  50.817  42.682  0.00  0.00    -0.333 OA
HETATM    2  C   UNK N   1      31.823  51.786  42.318  0.00  0.00     0.114 A 
HETATM    3  C   UNK N   1      30.986  51.586  41.211  0.00  0.00     0.107 A 
HETATM    4  C   UNK N   1      29.945  53.768  41.620  0.00  0.00    -0.018 A 
HETATM    5  C   UNK N   1      30.034  52.568  40.850  0.00  0.00    -0.010 A 
HETATM    6  C   UNK N   1      31.738  52.964  43.058  0.00  0.00     0.001 A 
HETATM    7  C   UNK N   1      30.815  53.950  42.711  0.00  0.00     0.024 A 
HETATM    8  C   UNK N   1      33.521  50.841  43.807  0.00  0.00     0.078 A 
HETATM    9  C   UNK N   1      32.622  53.139  44.217  0.00  0.00     0.013 A 
HETATM   10  C   UNK N   1      33.452  52.154  44.578  0.00  0.00     0.011 A 
HETATM   11  C   UNK N   1      34.970  50.605  43.359  0.00  0.00     0.051 C 
HETATM   12  C   UNK N   1      33.064  49.707  44.730  0.00  0.00     0.051 C 
ENDROOT
BRANCH   4  13
HETATM   13  C   UNK N   1      28.923  54.854  41.330  0.00  0.00     0.169 C 
HETATM   14  O   UNK N   1      29.547  56.025  40.932  0.00  0.00    -0.340 OA
HETATM   15  C   UNK N   1      28.822  57.150  40.694  0.00  0.00     0.089 A 
HETATM   16  C   UNK N   1      27.549  57.310  41.285  0.00  0.00     0.076 A 
HETATM   17  C   UNK N   1      29.333  58.135  39.847  0.00  0.00     0.074 A 
HETATM   18  C   UNK N   1      26.782  58.455  40.989  0.00  0.00     0.085 A 
HETATM   19  C   UNK N   1      27.082  56.248  42.217  0.00  0.00     0.167 C 
HETATM   20  C   UNK N   1      27.299  59.428  40.118  0.00  0.00     0.074 A 
HETATM   21  C   UNK N   1      28.574  59.271  39.553  0.00  0.00     0.071 A 
HETATM   22  O   UNK N   1      25.991  56.312  42.762  0.00  0.00    -0.292 OA
HETATM   23  C   UNK N   1      28.022  55.123  42.552  0.00  0.00     0.121 C 
BRANCH  18  24
HETATM   24  O   UNK N   1      25.558  58.619  41.533  0.00  0.00    -0.360 OA
HETATM   25  H   UNK N   1      24.875  59.156  41.104  0.00  0.00     0.217 HD
ENDBRANCH  18  24
BRANCH  21  26
HETATM   26  O   UNK N   1      29.073  60.204  38.717  0.00  0.00    -0.361 OA
HETATM   27  H   UNK N   1      28.537  60.945  38.403  0.00  0.00     0.217 HD
ENDBRANCH  21  26
ENDBRANCH   4  13
BRANCH   5  28
HETATM   28  C   UNK N   1      29.140  52.311  39.647  0.00  0.00     0.069 C 
BRANCH  28  29
HETATM   29  C   UNK N   1      27.999  51.396  40.033  0.00  0.00    -0.020 C 
HETATM   30  C   UNK N   1      26.700  51.761  40.165  0.00  0.00    -0.091 C 
HETATM   31  C   UNK N   1      25.688  50.729  40.597  0.00  0.00     0.042 C 
HETATM   32  C   UNK N   1      26.189  53.160  39.920  0.00  0.00     0.042 C 
ENDBRANCH  28  29
ENDBRANCH   5  28
BRANCH   3  33
HETATM   33  O   UNK N   1      31.087  50.451  40.482  0.00  0.00    -0.357 OA
HETATM   34  H   UNK N   1      30.655  49.624  40.741  0.00  0.00     0.218 HD
ENDBRANCH   3  33
TORSDOF 6
ENDMDL
MODEL 2
REMARK VINA RESULT:      -6.3      1.173      2.436
REMARK  6 active torsions:
REMARK  status: ('A' for Active; 'I' for Inactive)
REMARK    1  A    between atoms: O_3  and  C_9 
REMARK    2  A    between atoms: O_4  and  C_10 
REMARK    3  A    between atoms: O_5  and  C_11 
REMARK    4  A    between atoms: C_12  and  C_19 
REMARK    5  A    between atoms: C_14  and  C_23 
REMARK    6  A    between atoms: C_23  and  C_27 
ROOT
HETATM    1  O   UNK N   1      32.748  51.044  42.795  0.00  0.00    -0.333 OA
HETATM    2  C   UNK N   1      32.016  52.173  42.614  0.00  0.00     0.114 A 
HETATM    3  C   UNK N   1      31.168  52.282  41.503  0.00  0.00     0.107 A 
HETATM    4  C   UNK N   1      30.440  54.486  42.292  0.00  0.00    -0.018 A 
HETATM    5  C   UNK N   1      30.366  53.434  41.329  0.00  0.00    -0.010 A 
HETATM    6  C   UNK N   1      32.091  53.209  43.544  0.00  0.00     0.001 A 
HETATM    7  C   UNK N   1      31.317  54.358  43.383  0.00  0.00     0.024 A 
HETATM    8  C   UNK N   1      33.554  50.762  43.895  0.00  0.00     0.078 A 
HETATM    9  C   UNK N   1      32.981  53.059  44.702  0.00  0.00     0.013 A 
HETATM   10  C   UNK N   1      33.663  51.922  44.878  0.00  0.00     0.011 A 
HETATM   11  C   UNK N   1      34.958  50.406  43.390  0.00  0.00     0.051 C 
HETATM   12  C   UNK N   1      32.935  49.563  44.620  0.00  0.00     0.051 C 
ENDROOT
BRANCH   4  13
HETATM   13  C   UNK N   1      29.582  55.737  42.205  0.00  0.00     0.169 C 
HETATM   14  O   UNK N   1      28.236  55.420  42.305  0.00  0.00    -0.340 OA
HETATM   15  C   UNK N   1      27.287  56.383  42.177  0.00  0.00     0.089 A 
HETATM   16  C   UNK N   1      27.579  57.579  41.483  0.00  0.00     0.076 A 
HETATM   17  C   UNK N   1      26.028  56.195  42.751  0.00  0.00     0.074 A 
HETATM   18  C   UNK N   1      26.605  58.595  41.403  0.00  0.00     0.085 A 
HETATM   19  C   UNK N   1      28.921  57.699  40.851  0.00  0.00     0.167 C 
HETATM   20  C   UNK N   1      25.351  58.400  42.004  0.00  0.00     0.074 A 
HETATM   21  C   UNK N   1      25.061  57.201  42.672  0.00  0.00     0.071 A 
HETATM   22  O   UNK N   1      29.250  58.704  40.239  0.00  0.00    -0.292 OA
HETATM   23  C   UNK N   1      29.846  56.515  40.900  0.00  0.00     0.121 C 
BRANCH  18  24
HETATM   24  O   UNK N   1      26.871  59.750  40.756  0.00  0.00    -0.360 OA
HETATM   25  H   UNK N   1      27.767  59.983  40.475  0.00  0.00     0.217 HD
ENDBRANCH  18  24
BRANCH  21  26
HETATM   26  O   UNK N   1      23.858  57.011  43.250  0.00  0.00    -0.361 OA
HETATM   27  H   UNK N   1      23.745  56.422  44.009  0.00  0.00     0.217 HD
ENDBRANCH  21  26
ENDBRANCH   4  13
BRANCH   5  28
HETATM   28  C   UNK N   1      29.455  53.512  40.114  0.00  0.00     0.069 C 
BRANCH  28  29
HETATM   29  C   UNK N   1      28.210  52.683  40.343  0.00  0.00    -0.020 C 
HETATM   30  C   UNK N   1      26.957  53.006  39.938  0.00  0.00    -0.091 C 
HETATM   31  C   UNK N   1      25.814  52.084  40.284  0.00  0.00     0.042 C 
HETATM   32  C   UNK N   1      26.618  54.256  39.163  0.00  0.00     0.042 C 
ENDBRANCH  28  29
ENDBRANCH   5  28
BRANCH   3  33
HETATM   33  O   UNK N   1      31.115  51.284  40.591  0.00  0.00    -0.357 OA
HETATM   34  H   UNK N   1      31.185  51.444  39.638  0.00  0.00     0.218 HD
ENDBRANCH   3  33
TORSDOF 6
ENDMDL
MODEL 3
REMARK VINA RESULT:      -6.1     16.068     20.185
REMARK  6 active torsions:
REMARK  status: ('A' for Active; 'I' for Inactive)
REMARK    1  A    between atoms: O_3  and  C_9 
REMARK    2  A    between atoms: O_4  and  C_10 
REMARK    3  A    between atoms: O_5  and  C_11 
REMARK    4  A    between atoms: C_12  and  C_19 
REMARK    5  A    between atoms: C_14  and  C_23 
REMARK    6  A    between atoms: C_23  and  C_27 
ROOT
HETATM    1  O   UNK N   1      29.958  48.090  62.423  0.00  0.00    -0.333 OA
HETATM    2  C   UNK N   1      30.000  47.334  61.296  0.00  0.00     0.114 A 
HETATM    3  C   UNK N   1      29.506  47.855  60.091  0.00  0.00     0.107 A 
HETATM    4  C   UNK N   1      30.166  45.790  58.944  0.00  0.00    -0.018 A 
HETATM    5  C   UNK N   1      29.587  47.095  58.901  0.00  0.00    -0.010 A 
HETATM    6  C   UNK N   1      30.554  46.056  61.334  0.00  0.00     0.001 A 
HETATM    7  C   UNK N   1      30.631  45.286  60.173  0.00  0.00     0.024 A 
HETATM    8  C   UNK N   1      30.494  47.739  63.659  0.00  0.00     0.078 A 
HETATM    9  C   UNK N   1      31.070  45.544  62.609  0.00  0.00     0.013 A 
HETATM   10  C   UNK N   1      31.053  46.322  63.697  0.00  0.00     0.011 A 
HETATM   11  C   UNK N   1      29.394  47.866  64.721  0.00  0.00     0.051 C 
HETATM   12  C   UNK N   1      31.631  48.721  63.960  0.00  0.00     0.051 C 
ENDROOT
BRANCH   4  13
HETATM   13  C   UNK N   1      30.332  44.925  57.706  0.00  0.00     0.169 C 
HETATM   14  O   UNK N   1      29.304  44.002  57.608  0.00  0.00    -0.340 OA
HETATM   15  C   UNK N   1      29.297  43.076  56.614  0.00  0.00     0.089 A 
HETATM   16  C   UNK N   1      30.504  42.711  55.977  0.00  0.00     0.076 A 
HETATM   17  C   UNK N   1      28.089  42.504  56.210  0.00  0.00     0.074 A 
HETATM   18  C   UNK N   1      30.478  41.791  54.909  0.00  0.00     0.085 A 
HETATM   19  C   UNK N   1      31.763  43.319  56.486  0.00  0.00     0.167 C 
HETATM   20  C   UNK N   1      29.254  41.240  54.500  0.00  0.00     0.074 A 
HETATM   21  C   UNK N   1      28.062  41.591  55.152  0.00  0.00     0.071 A 
HETATM   22  O   UNK N   1      32.846  43.058  55.983  0.00  0.00    -0.292 OA
HETATM   23  C   UNK N   1      31.694  44.203  57.700  0.00  0.00     0.121 C 
BRANCH  18  24
HETATM   24  O   UNK N   1      31.620  41.441  54.280  0.00  0.00    -0.360 OA
HETATM   25  H   UNK N   1      32.191  42.096  53.854  0.00  0.00     0.217 HD
ENDBRANCH  18  24
BRANCH  21  26
HETATM   26  O   UNK N   1      26.885  41.063  54.761  0.00  0.00    -0.361 OA
HETATM   27  H   UNK N   1      26.181  41.611  54.385  0.00  0.00     0.217 HD
ENDBRANCH  21  26
ENDBRANCH   4  13
BRANCH   5  28
HETATM   28  C   UNK N   1      29.046  47.697  57.613  0.00  0.00     0.069 C 
BRANCH  28  29
HETATM   29  C   UNK N   1      30.100  48.565  56.961  0.00  0.00    -0.020 C 
HETATM   30  C   UNK N   1      29.885  49.769  56.378  0.00  0.00    -0.091 C 
HETATM   31  C   UNK N   1      31.044  50.491  55.736  0.00  0.00     0.042 C 
HETATM   32  C   UNK N   1      28.537  50.445  56.313  0.00  0.00     0.042 C 
ENDBRANCH  28  29
ENDBRANCH   5  28
BRANCH   3  33
HETATM   33  O   UNK N   1      28.949  49.087  60.063  0.00  0.00    -0.357 OA
HETATM   34  H   UNK N   1      27.991  49.226  60.053  0.00  0.00     0.218 HD
ENDBRANCH   3  33
TORSDOF 6
ENDMDL
MODEL 4
REMARK VINA RESULT:      -5.8     11.776     17.697
REMARK  6 active torsions:
REMARK  status: ('A' for Active; 'I' for Inactive)
REMARK    1  A    between atoms: O_3  and  C_9 
REMARK    2  A    between atoms: O_4  and  C_10 
REMARK    3  A    between atoms: O_5  and  C_11 
REMARK    4  A    between atoms: C_12  and  C_19 
REMARK    5  A    between atoms: C_14  and  C_23 
REMARK    6  A    between atoms: C_23  and  C_27 
ROOT
HETATM    1  O   UNK N   1      40.006  47.707  44.729  0.00  0.00    -0.333 OA
HETATM    2  C   UNK N   1      40.257  47.043  45.887  0.00  0.00     0.114 A 
HETATM    3  C   UNK N   1      40.841  45.769  45.844  0.00  0.00     0.107 A 
HETATM    4  C   UNK N   1      40.850  45.707  48.296  0.00  0.00    -0.018 A 
HETATM    5  C   UNK N   1      41.150  45.087  47.045  0.00  0.00    -0.010 A 
HETATM    6  C   UNK N   1      39.956  47.637  47.111  0.00  0.00     0.001 A 
HETATM    7  C   UNK N   1      40.242  46.975  48.305  0.00  0.00     0.024 A 
HETATM    8  C   UNK N   1      39.520  49.008  44.625  0.00  0.00     0.078 A 
HETATM    9  C   UNK N   1      39.354  48.976  47.121  0.00  0.00     0.013 A 
HETATM   10  C   UNK N   1      39.152  49.625  45.969  0.00  0.00     0.011 A 
HETATM   11  C   UNK N   1      38.275  48.991  43.729  0.00  0.00     0.051 C 
HETATM   12  C   UNK N   1      40.621  49.857  43.982  0.00  0.00     0.051 C 
ENDROOT
BRANCH   4  13
HETATM   13  C   UNK N   1      41.188  45.064  49.631  0.00  0.00     0.169 C 
HETATM   14  O   UNK N   1      40.050  44.558  50.237  0.00  0.00    -0.340 OA
HETATM   15  C   UNK N   1      40.112  44.006  51.477  0.00  0.00     0.089 A 
HETATM   16  C   UNK N   1      41.165  44.351  52.354  0.00  0.00     0.076 A 
HETATM   17  C   UNK N   1      39.145  43.080  51.871  0.00  0.00     0.074 A 
HETATM   18  C   UNK N   1      41.252  43.732  53.617  0.00  0.00     0.085 A 
HETATM   19  C   UNK N   1      42.136  45.380  51.893  0.00  0.00     0.167 C 
HETATM   20  C   UNK N   1      40.284  42.786  53.992  0.00  0.00     0.074 A 
HETATM   21  C   UNK N   1      39.230  42.465  53.124  0.00  0.00     0.071 A 
HETATM   22  O   UNK N   1      43.077  45.728  52.592  0.00  0.00    -0.292 OA
HETATM   23  C   UNK N   1      41.891  46.060  50.575  0.00  0.00     0.121 C 
BRANCH  18  24
HETATM   24  O   UNK N   1      42.258  44.039  54.462  0.00  0.00    -0.360 OA
HETATM   25  H   UNK N   1      42.163  43.957  55.422  0.00  0.00     0.217 HD
ENDBRANCH  18  24
BRANCH  21  26
HETATM   26  O   UNK N   1      38.299  41.558  53.481  0.00  0.00    -0.361 OA
HETATM   27  H   UNK N   1      37.808  41.633  54.312  0.00  0.00     0.217 HD
ENDBRANCH  21  26
ENDBRANCH   4  13
BRANCH   5  28
HETATM   28  C   UNK N   1      41.789  43.710  46.957  0.00  0.00     0.069 C 
BRANCH  28  29
HETATM   29  C   UNK N   1      42.763  43.660  45.801  0.00  0.00    -0.020 C 
HETATM   30  C   UNK N   1      43.442  42.564  45.383  0.00  0.00    -0.091 C 
HETATM   31  C   UNK N   1      44.410  42.695  44.233  0.00  0.00     0.042 C 
HETATM   32  C   UNK N   1      43.305  41.198  46.010  0.00  0.00     0.042 C 
ENDBRANCH  28  29
ENDBRANCH   5  28
BRANCH   3  33
HETATM   33  O   UNK N   1      41.111  45.186  44.654  0.00  0.00    -0.357 OA
HETATM   34  H   UNK N   1      40.816  44.291  44.433  0.00  0.00     0.218 HD
ENDBRANCH   3  33
TORSDOF 6
ENDMDL
MODEL 5
REMARK VINA RESULT:      -5.7     16.207     20.910
REMARK  6 active torsions:
REMARK  status: ('A' for Active; 'I' for Inactive)
REMARK    1  A    between atoms: O_3  and  C_9 
REMARK    2  A    between atoms: O_4  and  C_10 
REMARK    3  A    between atoms: O_5  and  C_11 
REMARK    4  A    between atoms: C_12  and  C_19 
REMARK    5  A    between atoms: C_14  and  C_23 
REMARK    6  A    between atoms: C_23  and  C_27 
ROOT
HETATM    1  O   UNK N   1      26.371  41.069  52.339  0.00  0.00    -0.333 OA
HETATM    2  C   UNK N   1      27.247  41.143  53.374  0.00  0.00     0.114 A 
HETATM    3  C   UNK N   1      28.093  40.059  53.648  0.00  0.00     0.107 A 
HETATM    4  C   UNK N   1      29.116  41.337  55.474  0.00  0.00    -0.018 A 
HETATM    5  C   UNK N   1      29.041  40.143  54.695  0.00  0.00    -0.010 A 
HETATM    6  C   UNK N   1      27.317  42.301  54.146  0.00  0.00     0.001 A 
HETATM    7  C   UNK N   1      28.236  42.398  55.191  0.00  0.00     0.024 A 
HETATM    8  C   UNK N   1      25.543  42.097  51.897  0.00  0.00     0.078 A 
HETATM    9  C   UNK N   1      26.423  43.421  53.827  0.00  0.00     0.013 A 
HETATM   10  C   UNK N   1      25.597  43.339  52.778  0.00  0.00     0.011 A 
HETATM   11  C   UNK N   1      24.100  41.577  51.861  0.00  0.00     0.051 C 
HETATM   12  C   UNK N   1      26.001  42.479  50.486  0.00  0.00     0.051 C 
ENDROOT
BRANCH   4  13
HETATM   13  C   UNK N   1      30.133  41.527  56.587  0.00  0.00     0.169 C 
HETATM   14  O   UNK N   1      29.543  41.354  57.829  0.00  0.00    -0.340 OA
HETATM   15  C   UNK N   1      30.256  41.553  58.968  0.00  0.00     0.089 A 
HETATM   16  C   UNK N   1      31.404  42.376  58.951  0.00  0.00     0.076 A 
HETATM   17  C   UNK N   1      29.861  40.923  60.150  0.00  0.00     0.074 A 
HETATM   18  C   UNK N   1      32.168  42.532  60.125  0.00  0.00     0.085 A 
HETATM   19  C   UNK N   1      31.744  43.058  57.672  0.00  0.00     0.167 C 
HETATM   20  C   UNK N   1      31.772  41.875  61.300  0.00  0.00     0.074 A 
HETATM   21  C   UNK N   1      30.618  41.077  61.315  0.00  0.00     0.071 A 
HETATM   22  O   UNK N   1      32.725  43.781  57.576  0.00  0.00    -0.292 OA
HETATM   23  C   UNK N   1      30.802  42.914  56.509  0.00  0.00     0.121 C 
BRANCH  18  24
HETATM   24  O   UNK N   1      33.277  43.303  60.123  0.00  0.00    -0.360 OA
HETATM   25  H   UNK N   1      34.109  43.002  59.732  0.00  0.00     0.217 HD
ENDBRANCH  18  24
BRANCH  21  26
HETATM   26  O   UNK N   1      30.234  40.446  62.443  0.00  0.00    -0.361 OA
HETATM   27  H   UNK N   1      29.332  40.119  62.561  0.00  0.00     0.217 HD
ENDBRANCH  21  26
ENDBRANCH   4  13
BRANCH   5  28
HETATM   28  C   UNK N   1      29.946  38.949  54.956  0.00  0.00     0.069 C 
BRANCH  28  29
HETATM   29  C   UNK N   1      29.326  38.042  55.996  0.00  0.00    -0.020 C 
HETATM   30  C   UNK N   1      29.612  36.730  56.176  0.00  0.00    -0.091 C 
HETATM   31  C   UNK N   1      28.870  35.955  57.237  0.00  0.00     0.042 C 
HETATM   32  C   UNK N   1      30.631  35.970  55.361  0.00  0.00     0.042 C 
ENDBRANCH  28  29
ENDBRANCH   5  28
BRANCH   3  33
HETATM   33  O   UNK N   1      28.006  38.928  52.911  0.00  0.00    -0.357 OA
HETATM   34  H   UNK N   1      28.770  38.360  52.736  0.00  0.00     0.218 HD
ENDBRANCH   3  33
TORSDOF 6
ENDMDL
MODEL 6
REMARK VINA RESULT:      -5.6     21.728     24.681
REMARK  6 active torsions:
REMARK  status: ('A' for Active; 'I' for Inactive)
REMARK    1  A    between atoms: O_3  and  C_9 
REMARK    2  A    between atoms: O_4  and  C_10 
REMARK    3  A    between atoms: O_5  and  C_11 
REMARK    4  A    between atoms: C_12  and  C_19 
REMARK    5  A    between atoms: C_14  and  C_23 
REMARK    6  A    between atoms: C_23  and  C_27 
ROOT
HETATM    1  O   UNK N   1      31.776  52.958  64.465  0.00  0.00    -0.333 OA
HETATM    2  C   UNK N   1      32.511  51.830  64.293  0.00  0.00     0.114 A 
HETATM    3  C   UNK N   1      31.939  50.579  64.564  0.00  0.00     0.107 A 
HETATM    4  C   UNK N   1      34.018  49.489  63.856  0.00  0.00    -0.018 A 
HETATM    5  C   UNK N   1      32.680  49.393  64.344  0.00  0.00    -0.010 A 
HETATM    6  C   UNK N   1      33.822  51.916  63.827  0.00  0.00     0.001 A 
HETATM    7  C   UNK N   1      34.573  50.759  63.616  0.00  0.00     0.024 A 
HETATM    8  C   UNK N   1      32.182  54.252  64.148  0.00  0.00     0.078 A 
HETATM    9  C   UNK N   1      34.389  53.240  63.544  0.00  0.00     0.013 A 
HETATM   10  C   UNK N   1      33.632  54.334  63.685  0.00  0.00     0.011 A 
HETATM   11  C   UNK N   1      32.008  55.135  65.390  0.00  0.00     0.051 C 
HETATM   12  C   UNK N   1      31.279  54.750  63.016  0.00  0.00     0.051 C 
ENDROOT
BRANCH   4  13
HETATM   13  C   UNK N   1      34.868  48.267  63.551  0.00  0.00     0.169 C 
HETATM   14  O   UNK N   1      35.382  47.721  64.716  0.00  0.00    -0.340 OA
HETATM   15  C   UNK N   1      36.234  46.663  64.668  0.00  0.00     0.089 A 
HETATM   16  C   UNK N   1      36.980  46.407  63.496  0.00  0.00     0.076 A 
HETATM   17  C   UNK N   1      36.351  45.819  65.774  0.00  0.00     0.074 A 
HETATM   18  C   UNK N   1      37.819  45.276  63.437  0.00  0.00     0.085 A 
HETATM   19  C   UNK N   1      36.848  47.370  62.370  0.00  0.00     0.167 C 
HETATM   20  C   UNK N   1      37.911  44.424  64.549  0.00  0.00     0.074 A 
HETATM   21  C   UNK N   1      37.183  44.698  65.717  0.00  0.00     0.071 A 
HETATM   22  O   UNK N   1      37.456  47.214  61.321  0.00  0.00    -0.292 OA
HETATM   23  C   UNK N   1      36.013  48.604  62.575  0.00  0.00     0.121 C 
BRANCH  18  24
HETATM   24  O   UNK N   1      38.529  45.007  62.320  0.00  0.00    -0.360 OA
HETATM   25  H   UNK N   1      39.425  45.348  62.189  0.00  0.00     0.217 HD
ENDBRANCH  18  24
BRANCH  21  26
HETATM   26  O   UNK N   1      37.270  43.881  66.786  0.00  0.00    -0.361 OA
HETATM   27  H   UNK N   1      37.187  42.921  66.702  0.00  0.00     0.217 HD
ENDBRANCH  21  26
ENDBRANCH   4  13
BRANCH   5  28
HETATM   28  C   UNK N   1      32.021  48.056  64.643  0.00  0.00     0.069 C 
BRANCH  28  29
HETATM   29  C   UNK N   1      31.289  47.550  63.420  0.00  0.00    -0.020 C 
HETATM   30  C   UNK N   1      31.584  46.423  62.729  0.00  0.00    -0.091 C 
HETATM   31  C   UNK N   1      30.775  46.082  61.502  0.00  0.00     0.042 C 
HETATM   32  C   UNK N   1      32.697  45.474  63.101  0.00  0.00     0.042 C 
ENDBRANCH  28  29
ENDBRANCH   5  28
BRANCH   3  33
HETATM   33  O   UNK N   1      30.674  50.500  65.038  0.00  0.00    -0.357 OA
HETATM   34  H   UNK N   1      30.446  50.713  65.954  0.00  0.00     0.218 HD
ENDBRANCH   3  33
TORSDOF 6
ENDMDL
MODEL 7
REMARK VINA RESULT:      -5.5     18.539     23.091
REMARK  6 active torsions:
REMARK  status: ('A' for Active; 'I' for Inactive)
REMARK    1  A    between atoms: O_3  and  C_9 
REMARK    2  A    between atoms: O_4  and  C_10 
REMARK    3  A    between atoms: O_5  and  C_11 
REMARK    4  A    between atoms: C_12  and  C_19 
REMARK    5  A    between atoms: C_14  and  C_23 
REMARK    6  A    between atoms: C_23  and  C_27 
ROOT
HETATM    1  O   UNK N   1      29.775  39.982  58.373  0.00  0.00    -0.333 OA
HETATM    2  C   UNK N   1      30.520  40.889  59.056  0.00  0.00     0.114 A 
HETATM    3  C   UNK N   1      30.632  42.201  58.574  0.00  0.00     0.107 A 
HETATM    4  C   UNK N   1      32.001  42.785  60.523  0.00  0.00    -0.018 A 
HETATM    5  C   UNK N   1      31.367  43.167  59.302  0.00  0.00    -0.010 A 
HETATM    6  C   UNK N   1      31.151  40.520  60.243  0.00  0.00     0.001 A 
HETATM    7  C   UNK N   1      31.891  41.455  60.967  0.00  0.00     0.024 A 
HETATM    8  C   UNK N   1      29.502  38.679  58.781  0.00  0.00     0.078 A 
HETATM    9  C   UNK N   1      31.007  39.141  60.724  0.00  0.00     0.013 A 
HETATM   10  C   UNK N   1      30.236  38.277  60.054  0.00  0.00     0.011 A 
HETATM   11  C   UNK N   1      29.905  37.721  57.653  0.00  0.00     0.051 C 
HETATM   12  C   UNK N   1      27.994  38.587  59.037  0.00  0.00     0.051 C 
ENDROOT
BRANCH   4  13
HETATM   13  C   UNK N   1      32.772  43.768  61.387  0.00  0.00     0.169 C 
HETATM   14  O   UNK N   1      34.127  43.477  61.377  0.00  0.00    -0.340 OA
HETATM   15  C   UNK N   1      34.994  44.187  62.146  0.00  0.00     0.089 A 
HETATM   16  C   UNK N   1      34.528  44.872  63.290  0.00  0.00     0.076 A 
HETATM   17  C   UNK N   1      36.341  44.254  61.786  0.00  0.00     0.074 A 
HETATM   18  C   UNK N   1      35.425  45.651  64.050  0.00  0.00     0.085 A 
HETATM   19  C   UNK N   1      33.092  44.722  63.648  0.00  0.00     0.167 C 
HETATM   20  C   UNK N   1      36.773  45.726  63.664  0.00  0.00     0.074 A 
HETATM   21  C   UNK N   1      37.231  45.025  62.539  0.00  0.00     0.071 A 
HETATM   22  O   UNK N   1      32.613  45.287  64.619  0.00  0.00    -0.292 OA
HETATM   23  C   UNK N   1      32.245  43.780  62.837  0.00  0.00     0.121 C 
BRANCH  18  24
HETATM   24  O   UNK N   1      34.996  46.324  65.138  0.00  0.00    -0.360 OA
HETATM   25  H   UNK N   1      35.234  47.249  65.295  0.00  0.00     0.217 HD
ENDBRANCH  18  24
BRANCH  21  26
HETATM   26  O   UNK N   1      38.525  45.096  62.167  0.00  0.00    -0.361 OA
HETATM   27  H   UNK N   1      39.231  45.264  62.807  0.00  0.00     0.217 HD
ENDBRANCH  21  26
ENDBRANCH   4  13
BRANCH   5  28
HETATM   28  C   UNK N   1      31.459  44.581  58.750  0.00  0.00     0.069 C 
BRANCH  28  29
HETATM   29  C   UNK N   1      30.445  45.473  59.431  0.00  0.00    -0.020 C 
HETATM   30  C   UNK N   1      29.986  46.657  58.958  0.00  0.00    -0.091 C 
HETATM   31  C   UNK N   1      29.000  47.445  59.785  0.00  0.00     0.042 C 
HETATM   32  C   UNK N   1      30.412  47.260  57.642  0.00  0.00     0.042 C 
ENDBRANCH  28  29
ENDBRANCH   5  28
BRANCH   3  33
HETATM   33  O   UNK N   1      30.037  42.549  57.410  0.00  0.00    -0.357 OA
HETATM   34  H   UNK N   1      30.539  42.773  56.614  0.00  0.00     0.218 HD
ENDBRANCH   3  33
TORSDOF 6
ENDMDL
MODEL 8
REMARK VINA RESULT:      -5.4     15.973     19.708
REMARK  6 active torsions:
REMARK  status: ('A' for Active; 'I' for Inactive)
REMARK    1  A    between atoms: O_3  and  C_9 
REMARK    2  A    between atoms: O_4  and  C_10 
REMARK    3  A    between atoms: O_5  and  C_11 
REMARK    4  A    between atoms: C_12  and  C_19 
REMARK    5  A    between atoms: C_14  and  C_23 
REMARK    6  A    between atoms: C_23  and  C_27 
ROOT
HETATM    1  O   UNK N   1      25.589  40.782  51.560  0.00  0.00    -0.333 OA
HETATM    2  C   UNK N   1      26.468  41.012  52.569  0.00  0.00     0.114 A 
HETATM    3  C   UNK N   1      26.768  39.985  53.476  0.00  0.00     0.107 A 
HETATM    4  C   UNK N   1      28.353  41.472  54.612  0.00  0.00    -0.018 A 
HETATM    5  C   UNK N   1      27.717  40.198  54.504  0.00  0.00    -0.010 A 
HETATM    6  C   UNK N   1      27.084  42.256  52.688  0.00  0.00     0.001 A 
HETATM    7  C   UNK N   1      28.013  42.490  53.702  0.00  0.00     0.024 A 
HETATM    8  C   UNK N   1      25.270  41.674  50.539  0.00  0.00     0.078 A 
HETATM    9  C   UNK N   1      26.754  43.307  51.717  0.00  0.00     0.013 A 
HETATM   10  C   UNK N   1      25.914  43.044  50.709  0.00  0.00     0.011 A 
HETATM   11  C   UNK N   1      23.746  41.844  50.501  0.00  0.00     0.051 C 
HETATM   12  C   UNK N   1      25.764  41.060  49.225  0.00  0.00     0.051 C 
ENDROOT
BRANCH   4  13
HETATM   13  C   UNK N   1      29.415  41.772  55.657  0.00  0.00     0.169 C 
HETATM   14  O   UNK N   1      28.915  42.608  56.642  0.00  0.00    -0.340 OA
HETATM   15  C   UNK N   1      29.719  43.064  57.638  0.00  0.00     0.089 A 
HETATM   16  C   UNK N   1      31.118  43.116  57.450  0.00  0.00     0.076 A 
HETATM   17  C   UNK N   1      29.158  43.460  58.853  0.00  0.00     0.074 A 
HETATM   18  C   UNK N   1      31.949  43.539  58.508  0.00  0.00     0.085 A 
HETATM   19  C   UNK N   1      31.650  42.727  56.116  0.00  0.00     0.167 C 
HETATM   20  C   UNK N   1      31.373  43.914  59.732  0.00  0.00     0.074 A 
HETATM   21  C   UNK N   1      29.980  43.880  59.903  0.00  0.00     0.071 A 
HETATM   22  O   UNK N   1      32.849  42.740  55.878  0.00  0.00    -0.292 OA
HETATM   23  C   UNK N   1      30.673  42.398  55.021  0.00  0.00     0.121 C 
BRANCH  18  24
HETATM   24  O   UNK N   1      33.289  43.581  58.351  0.00  0.00    -0.360 OA
HETATM   25  H   UNK N   1      33.701  43.618  57.476  0.00  0.00     0.217 HD
ENDBRANCH  18  24
BRANCH  21  26
HETATM   26  O   UNK N   1      29.425  44.241  61.077  0.00  0.00    -0.361 OA
HETATM   27  H   UNK N   1      29.964  44.501  61.837  0.00  0.00     0.217 HD
ENDBRANCH  21  26
ENDBRANCH   4  13
BRANCH   5  28
HETATM   28  C   UNK N   1      28.022  39.058  55.463  0.00  0.00     0.069 C 
BRANCH  28  29
HETATM   29  C   UNK N   1      29.360  38.439  55.128  0.00  0.00    -0.020 C 
HETATM   30  C   UNK N   1      29.556  37.189  54.642  0.00  0.00    -0.091 C 
HETATM   31  C   UNK N   1      30.966  36.709  54.398  0.00  0.00     0.042 C 
HETATM   32  C   UNK N   1      28.441  36.220  54.336  0.00  0.00     0.042 C 
ENDBRANCH  28  29
ENDBRANCH   5  28
BRANCH   3  33
HETATM   33  O   UNK N   1      26.151  38.786  53.371  0.00  0.00    -0.357 OA
HETATM   34  H   UNK N   1      26.599  37.997  53.036  0.00  0.00     0.218 HD
ENDBRANCH   3  33
TORSDOF 6
ENDMDL
MODEL 9
REMARK VINA RESULT:      -5.4     18.395     21.282
REMARK  6 active torsions:
REMARK  status: ('A' for Active; 'I' for Inactive)
REMARK    1  A    between atoms: O_3  and  C_9 
REMARK    2  A    between atoms: O_4  and  C_10 
REMARK    3  A    between atoms: O_5  and  C_11 
REMARK    4  A    between atoms: C_12  and  C_19 
REMARK    5  A    between atoms: C_14  and  C_23 
REMARK    6  A    between atoms: C_23  and  C_27 
ROOT
HETATM    1  O   UNK N   1      29.635  36.931  57.440  0.00  0.00    -0.333 OA
HETATM    2  C   UNK N   1      29.639  38.266  57.687  0.00  0.00     0.114 A 
HETATM    3  C   UNK N   1      30.131  38.746  58.909  0.00  0.00     0.107 A 
HETATM    4  C   UNK N   1      29.718  41.044  58.158  0.00  0.00    -0.018 A 
HETATM    5  C   UNK N   1      30.183  40.138  59.159  0.00  0.00    -0.010 A 
HETATM    6  C   UNK N   1      29.176  39.155  56.719  0.00  0.00     0.001 A 
HETATM    7  C   UNK N   1      29.207  40.531  56.952  0.00  0.00     0.024 A 
HETATM    8  C   UNK N   1      29.266  36.325  56.242  0.00  0.00     0.078 A 
HETATM    9  C   UNK N   1      28.675  38.621  55.447  0.00  0.00     0.013 A 
HETATM   10  C   UNK N   1      28.718  37.305  55.212  0.00  0.00     0.011 A 
HETATM   11  C   UNK N   1      28.193  35.270  56.542  0.00  0.00     0.051 C 
HETATM   12  C   UNK N   1      30.516  35.655  55.664  0.00  0.00     0.051 C 
ENDROOT
BRANCH   4  13
HETATM   13  C   UNK N   1      29.778  42.552  58.326  0.00  0.00     0.169 C 
HETATM   14  O   UNK N   1      28.548  43.129  58.054  0.00  0.00    -0.340 OA
HETATM   15  C   UNK N   1      28.397  44.479  58.070  0.00  0.00     0.089 A 
HETATM   16  C   UNK N   1      29.516  45.319  57.882  0.00  0.00     0.076 A 
HETATM   17  C   UNK N   1      27.134  45.030  58.296  0.00  0.00     0.074 A 
HETATM   18  C   UNK N   1      29.358  46.718  57.956  0.00  0.00     0.085 A 
HETATM   19  C   UNK N   1      30.825  44.672  57.597  0.00  0.00     0.167 C 
HETATM   20  C   UNK N   1      28.087  47.259  58.205  0.00  0.00     0.074 A 
HETATM   21  C   UNK N   1      26.976  46.417  58.369  0.00  0.00     0.071 A 
HETATM   22  O   UNK N   1      31.840  45.330  57.428  0.00  0.00    -0.292 OA
HETATM   23  C   UNK N   1      30.865  43.178  57.429  0.00  0.00     0.121 C 
BRANCH  18  24
HETATM   24  O   UNK N   1      30.419  47.537  57.792  0.00  0.00    -0.360 OA
HETATM   25  H   UNK N   1      31.212  47.257  57.312  0.00  0.00     0.217 HD
ENDBRANCH  18  24
BRANCH  21  26
HETATM   26  O   UNK N   1      25.754  46.934  58.607  0.00  0.00    -0.361 OA
HETATM   27  H   UNK N   1      25.276  47.442  57.937  0.00  0.00     0.217 HD
ENDBRANCH  21  26
ENDBRANCH   4  13
BRANCH   5  28
HETATM   28  C   UNK N   1      30.730  40.619  60.494  0.00  0.00     0.069 C 
BRANCH  28  29
HETATM   29  C   UNK N   1      32.159  41.088  60.333  0.00  0.00    -0.020 C 
HETATM   30  C   UNK N   1      32.633  42.313  60.664  0.00  0.00    -0.091 C 
HETATM   31  C   UNK N   1      34.084  42.635  60.400  0.00  0.00     0.042 C 
HETATM   32  C   UNK N   1      31.791  43.406  61.275  0.00  0.00     0.042 C 
ENDBRANCH  28  29
ENDBRANCH   5  28
BRANCH   3  33
HETATM   33  O   UNK N   1      30.558  37.879  59.855  0.00  0.00    -0.357 OA
HETATM   34  H   UNK N   1      29.961  37.267  60.310  0.00  0.00     0.218 HD
ENDBRANCH   3  33
TORSDOF 6
ENDMDL
