MODEL 1
REMARK VINA RESULT:      -7.6      0.000      0.000
REMARK  4 active torsions:
REMARK  status: ('A' for Active; 'I' for Inactive)
REMARK    1  A    between atoms: O_3  and  C_9 
REMARK    2  A    between atoms: O_4  and  C_10 
REMARK    3  A    between atoms: O_5  and  C_11 
REMARK    4  A    between atoms: C_12  and  C_19 
ROOT
HETATM    1  O   UNK N   1      47.763  32.437  49.556  0.00  0.00    -0.340 OA
HETATM    2  O   UNK N   1      44.189  33.706  48.299  0.00  0.00    -0.292 OA
HETATM    3  C   UNK N   1      47.529  32.332  48.223  0.00  0.00     0.089 A 
HETATM    4  C   UNK N   1      46.115  32.724  46.264  0.00  0.00     0.085 A 
HETATM    5  C   UNK N   1      48.329  31.734  46.019  0.00  0.00     0.071 A 
HETATM    6  C   UNK N   1      46.300  32.783  47.677  0.00  0.00     0.076 A 
HETATM    7  C   UNK N   1      48.521  31.796  47.398  0.00  0.00     0.074 A 
HETATM    8  C   UNK N   1      47.137  32.204  45.460  0.00  0.00     0.074 A 
HETATM    9  C   UNK N   1      47.074  33.359  50.325  0.00  0.00     0.169 C 
HETATM   10  C   UNK N   1      45.275  33.283  48.653  0.00  0.00     0.167 C 
HETATM   11  C   UNK N   1      45.568  33.184  50.123  0.00  0.00     0.121 C 
ENDROOT
BRANCH   9  12
HETATM   12  C   UNK N   1      47.458  33.238  51.772  0.00  0.00    -0.025 A 
HETATM   13  C   UNK N   1      47.965  34.356  52.456  0.00  0.00     0.049 A 
HETATM   14  C   UNK N   1      48.326  34.259  53.802  0.00  0.00     0.100 A 
HETATM   15  C   UNK N   1      48.182  33.034  54.472  0.00  0.00     0.113 A 
HETATM   16  O   UNK N   1      48.553  32.928  55.771  0.00  0.00    -0.333 OA
HETATM   17  C   UNK N   1      47.671  31.920  53.796  0.00  0.00     0.001 A 
HETATM   18  C   UNK N   1      48.515  31.764  56.535  0.00  0.00     0.078 A 
HETATM   19  C   UNK N   1      47.919  30.570  55.796  0.00  0.00     0.011 A 
HETATM   20  C   UNK N   1      47.677  32.043  57.787  0.00  0.00     0.051 C 
HETATM   21  C   UNK N   1      49.957  31.426  56.924  0.00  0.00     0.051 C 
HETATM   22  C   UNK N   1      47.528  30.655  54.521  0.00  0.00     0.013 A 
HETATM   23  C   UNK N   1      47.312  32.018  52.449  0.00  0.00     0.024 A 
BRANCH  14  24
HETATM   24  O   UNK N   1      48.811  35.348  54.434  0.00  0.00    -0.358 OA
HETATM   25  H   UNK N   1      49.122  36.127  53.953  0.00  0.00     0.218 HD
ENDBRANCH  14  24
ENDBRANCH   9  12
BRANCH   4  26
HETATM   26  O   UNK N   1      44.993  33.151  45.640  0.00  0.00    -0.360 OA
HETATM   27  H   UNK N   1      44.097  33.065  45.975  0.00  0.00     0.217 HD
ENDBRANCH   4  26
BRANCH   5  28
HETATM   28  O   UNK N   1      49.305  31.232  45.233  0.00  0.00    -0.361 OA
HETATM   29  H   UNK N   1      50.033  31.784  44.914  0.00  0.00     0.217 HD
ENDBRANCH   5  28
TORSDOF 4
ENDMDL
MODEL 2
REMARK VINA RESULT:      -6.5     15.350     17.285
REMARK  4 active torsions:
REMARK  status: ('A' for Active; 'I' for Inactive)
REMARK    1  A    between atoms: O_3  and  C_9 
REMARK    2  A    between atoms: O_4  and  C_10 
REMARK    3  A    between atoms: O_5  and  C_11 
REMARK    4  A    between atoms: C_12  and  C_19 
ROOT
HETATM    1  O   UNK N   1      38.894  47.669  45.624  0.00  0.00    -0.340 OA
HETATM    2  O   UNK N   1      41.747  50.252  44.554  0.00  0.00    -0.292 OA
HETATM    3  C   UNK N   1      38.626  48.434  44.535  0.00  0.00     0.089 A 
HETATM    4  C   UNK N   1      39.304  50.097  42.873  0.00  0.00     0.085 A 
HETATM    5  C   UNK N   1      37.128  49.010  42.725  0.00  0.00     0.071 A 
HETATM    6  C   UNK N   1      39.590  49.360  44.060  0.00  0.00     0.076 A 
HETATM    7  C   UNK N   1      37.402  48.280  43.880  0.00  0.00     0.074 A 
HETATM    8  C   UNK N   1      38.079  49.904  42.223  0.00  0.00     0.074 A 
HETATM    9  C   UNK N   1      40.200  47.417  46.009  0.00  0.00     0.169 C 
HETATM   10  C   UNK N   1      40.846  49.498  44.871  0.00  0.00     0.167 C 
HETATM   11  C   UNK N   1      40.960  48.736  46.160  0.00  0.00     0.121 C 
ENDROOT
BRANCH   9  12
HETATM   12  C   UNK N   1      40.236  46.607  47.272  0.00  0.00    -0.025 A 
HETATM   13  C   UNK N   1      39.180  45.729  47.570  0.00  0.00     0.049 A 
HETATM   14  C   UNK N   1      39.199  44.968  48.740  0.00  0.00     0.100 A 
HETATM   15  C   UNK N   1      40.282  45.085  49.626  0.00  0.00     0.113 A 
HETATM   16  O   UNK N   1      40.296  44.367  50.775  0.00  0.00    -0.333 OA
HETATM   17  C   UNK N   1      41.339  45.953  49.330  0.00  0.00     0.001 A 
HETATM   18  C   UNK N   1      41.276  44.429  51.762  0.00  0.00     0.078 A 
HETATM   19  C   UNK N   1      42.440  45.349  51.406  0.00  0.00     0.011 A 
HETATM   20  C   UNK N   1      41.813  43.012  51.989  0.00  0.00     0.051 C 
HETATM   21  C   UNK N   1      40.609  44.957  53.035  0.00  0.00     0.051 C 
HETATM   22  C   UNK N   1      42.459  46.053  50.270  0.00  0.00     0.013 A 
HETATM   23  C   UNK N   1      41.318  46.715  48.159  0.00  0.00     0.024 A 
BRANCH  14  24
HETATM   24  O   UNK N   1      38.171  44.134  49.001  0.00  0.00    -0.358 OA
HETATM   25  H   UNK N   1      37.650  44.196  49.813  0.00  0.00     0.218 HD
ENDBRANCH  14  24
ENDBRANCH   9  12
BRANCH   4  26
HETATM   26  O   UNK N   1      40.164  50.986  42.322  0.00  0.00    -0.360 OA
HETATM   27  H   UNK N   1      41.119  50.891  42.281  0.00  0.00     0.217 HD
ENDBRANCH   4  26
BRANCH   5  28
HETATM   28  O   UNK N   1      35.950  48.835  42.091  0.00  0.00    -0.361 OA
HETATM   29  H   UNK N   1      35.364  49.581  41.895  0.00  0.00     0.217 HD
ENDBRANCH   5  28
TORSDOF 4
ENDMDL
MODEL 3
REMARK VINA RESULT:      -6.4      2.500      3.796
REMARK  4 active torsions:
REMARK  status: ('A' for Active; 'I' for Inactive)
REMARK    1  A    between atoms: O_3  and  C_9 
REMARK    2  A    between atoms: O_4  and  C_10 
REMARK    3  A    between atoms: O_5  and  C_11 
REMARK    4  A    between atoms: C_12  and  C_19 
ROOT
HETATM    1  O   UNK N   1      47.428  33.213  50.420  0.00  0.00    -0.340 OA
HETATM    2  O   UNK N   1      49.383  32.811  46.960  0.00  0.00    -0.292 OA
HETATM    3  C   UNK N   1      46.657  33.168  49.303  0.00  0.00     0.089 A 
HETATM    4  C   UNK N   1      46.416  32.884  46.884  0.00  0.00     0.085 A 
HETATM    5  C   UNK N   1      44.454  33.165  48.303  0.00  0.00     0.071 A 
HETATM    6  C   UNK N   1      47.259  32.998  48.029  0.00  0.00     0.076 A 
HETATM    7  C   UNK N   1      45.270  33.270  49.428  0.00  0.00     0.074 A 
HETATM    8  C   UNK N   1      45.027  32.965  47.043  0.00  0.00     0.074 A 
HETATM    9  C   UNK N   1      48.694  32.652  50.430  0.00  0.00     0.169 C 
HETATM   10  C   UNK N   1      48.759  32.964  47.993  0.00  0.00     0.167 C 
HETATM   11  C   UNK N   1      49.517  33.207  49.267  0.00  0.00     0.121 C 
ENDROOT
BRANCH   9  12
HETATM   12  C   UNK N   1      49.369  32.887  51.751  0.00  0.00    -0.025 A 
HETATM   13  C   UNK N   1      48.594  33.084  52.907  0.00  0.00     0.049 A 
HETATM   14  C   UNK N   1      49.207  33.303  54.142  0.00  0.00     0.100 A 
HETATM   15  C   UNK N   1      50.608  33.327  54.226  0.00  0.00     0.113 A 
HETATM   16  O   UNK N   1      51.209  33.562  55.418  0.00  0.00    -0.333 OA
HETATM   17  C   UNK N   1      51.384  33.124  53.079  0.00  0.00     0.001 A 
HETATM   18  C   UNK N   1      52.581  33.667  55.631  0.00  0.00     0.078 A 
HETATM   19  C   UNK N   1      53.413  33.404  54.379  0.00  0.00     0.011 A 
HETATM   20  C   UNK N   1      52.974  32.655  56.711  0.00  0.00     0.051 C 
HETATM   21  C   UNK N   1      52.861  35.094  56.110  0.00  0.00     0.051 C 
HETATM   22  C   UNK N   1      52.844  33.150  53.196  0.00  0.00     0.013 A 
HETATM   23  C   UNK N   1      50.769  32.907  51.843  0.00  0.00     0.024 A 
BRANCH  14  24
HETATM   24  O   UNK N   1      48.439  33.491  55.235  0.00  0.00    -0.358 OA
HETATM   25  H   UNK N   1      47.754  32.860  55.498  0.00  0.00     0.218 HD
ENDBRANCH  14  24
ENDBRANCH   9  12
BRANCH   4  26
HETATM   26  O   UNK N   1      46.885  32.694  45.629  0.00  0.00    -0.360 OA
HETATM   27  H   UNK N   1      47.073  33.386  44.989  0.00  0.00     0.217 HD
ENDBRANCH   4  26
BRANCH   5  28
HETATM   28  O   UNK N   1      43.115  33.245  48.443  0.00  0.00    -0.361 OA
HETATM   29  H   UNK N   1      42.705  33.446  49.296  0.00  0.00     0.217 HD
ENDBRANCH   5  28
TORSDOF 4
ENDMDL
MODEL 4
REMARK VINA RESULT:      -6.4     19.711     23.437
REMARK  4 active torsions:
REMARK  status: ('A' for Active; 'I' for Inactive)
REMARK    1  A    between atoms: O_3  and  C_9 
REMARK    2  A    between atoms: O_4  and  C_10 
REMARK    3  A    between atoms: O_5  and  C_11 
REMARK    4  A    between atoms: C_12  and  C_19 
ROOT
HETATM    1  O   UNK N   1      27.187  34.332  46.150  0.00  0.00    -0.340 OA
HETATM    2  O   UNK N   1      25.186  30.926  46.750  0.00  0.00    -0.292 OA
HETATM    3  C   UNK N   1      27.812  33.402  46.916  0.00  0.00     0.089 A 
HETATM    4  C   UNK N   1      27.909  31.167  47.910  0.00  0.00     0.085 A 
HETATM    5  C   UNK N   1      29.764  32.725  48.174  0.00  0.00     0.071 A 
HETATM    6  C   UNK N   1      27.194  32.148  47.161  0.00  0.00     0.076 A 
HETATM    7  C   UNK N   1      29.076  33.687  47.437  0.00  0.00     0.074 A 
HETATM    8  C   UNK N   1      29.185  31.473  48.399  0.00  0.00     0.074 A 
HETATM    9  C   UNK N   1      26.213  33.961  45.239  0.00  0.00     0.169 C 
HETATM   10  C   UNK N   1      25.810  31.963  46.612  0.00  0.00     0.167 C 
HETATM   11  C   UNK N   1      25.139  33.125  45.937  0.00  0.00     0.121 C 
ENDROOT
BRANCH   9  12
HETATM   12  C   UNK N   1      25.627  35.168  44.565  0.00  0.00    -0.025 A 
HETATM   13  C   UNK N   1      24.650  35.007  43.568  0.00  0.00     0.049 A 
HETATM   14  C   UNK N   1      24.096  36.120  42.933  0.00  0.00     0.100 A 
HETATM   15  C   UNK N   1      24.522  37.409  43.293  0.00  0.00     0.113 A 
HETATM   16  O   UNK N   1      24.004  38.492  42.665  0.00  0.00    -0.333 OA
HETATM   17  C   UNK N   1      25.490  37.574  44.291  0.00  0.00     0.001 A 
HETATM   18  C   UNK N   1      24.376  39.815  42.885  0.00  0.00     0.078 A 
HETATM   19  C   UNK N   1      25.402  39.981  44.002  0.00  0.00     0.011 A 
HETATM   20  C   UNK N   1      23.117  40.610  43.245  0.00  0.00     0.051 C 
HETATM   21  C   UNK N   1      24.985  40.341  41.582  0.00  0.00     0.051 C 
HETATM   22  C   UNK N   1      25.913  38.930  44.651  0.00  0.00     0.013 A 
HETATM   23  C   UNK N   1      26.045  36.459  44.925  0.00  0.00     0.024 A 
BRANCH  14  24
HETATM   24  O   UNK N   1      23.160  35.936  41.978  0.00  0.00    -0.358 OA
HETATM   25  H   UNK N   1      22.233  35.759  42.192  0.00  0.00     0.218 HD
ENDBRANCH  14  24
ENDBRANCH   9  12
BRANCH   4  26
HETATM   26  O   UNK N   1      27.422  29.933  48.178  0.00  0.00    -0.360 OA
HETATM   27  H   UNK N   1      27.905  29.220  48.605  0.00  0.00     0.217 HD
ENDBRANCH   4  26
BRANCH   5  28
HETATM   28  O   UNK N   1      30.994  33.008  48.654  0.00  0.00    -0.361 OA
HETATM   29  H   UNK N   1      31.184  33.847  49.098  0.00  0.00     0.217 HD
ENDBRANCH   5  28
TORSDOF 4
ENDMDL
MODEL 5
REMARK VINA RESULT:      -6.2      2.192      2.822
REMARK  4 active torsions:
REMARK  status: ('A' for Active; 'I' for Inactive)
REMARK    1  A    between atoms: O_3  and  C_9 
REMARK    2  A    between atoms: O_4  and  C_10 
REMARK    3  A    between atoms: O_5  and  C_11 
REMARK    4  A    between atoms: C_12  and  C_19 
ROOT
HETATM    1  O   UNK N   1      48.318  32.179  50.151  0.00  0.00    -0.340 OA
HETATM    2  O   UNK N   1      44.990  34.330  49.646  0.00  0.00    -0.292 OA
HETATM    3  C   UNK N   1      47.658  31.988  48.980  0.00  0.00     0.089 A 
HETATM    4  C   UNK N   1      45.853  32.555  47.427  0.00  0.00     0.085 A 
HETATM    5  C   UNK N   1      47.541  30.905  46.820  0.00  0.00     0.071 A 
HETATM    6  C   UNK N   1      46.482  32.728  48.696  0.00  0.00     0.076 A 
HETATM    7  C   UNK N   1      48.165  31.073  48.054  0.00  0.00     0.074 A 
HETATM    8  C   UNK N   1      46.398  31.649  46.510  0.00  0.00     0.074 A 
HETATM    9  C   UNK N   1      48.171  33.357  50.863  0.00  0.00     0.169 C 
HETATM   10  C   UNK N   1      45.982  33.638  49.781  0.00  0.00     0.167 C 
HETATM   11  C   UNK N   1      46.686  33.635  51.108  0.00  0.00     0.121 C 
ENDROOT
BRANCH   9  12
HETATM   12  C   UNK N   1      48.945  33.302  52.149  0.00  0.00    -0.025 A 
HETATM   13  C   UNK N   1      48.261  33.224  53.374  0.00  0.00     0.049 A 
HETATM   14  C   UNK N   1      48.967  33.172  54.578  0.00  0.00     0.100 A 
HETATM   15  C   UNK N   1      50.370  33.198  54.560  0.00  0.00     0.113 A 
HETATM   16  O   UNK N   1      51.061  33.171  55.726  0.00  0.00    -0.333 OA
HETATM   17  C   UNK N   1      51.056  33.268  53.342  0.00  0.00     0.001 A 
HETATM   18  C   UNK N   1      52.445  33.247  55.854  0.00  0.00     0.078 A 
HETATM   19  C   UNK N   1      53.178  33.282  54.517  0.00  0.00     0.011 A 
HETATM   20  C   UNK N   1      52.918  32.025  56.648  0.00  0.00     0.051 C 
HETATM   21  C   UNK N   1      52.763  34.535  56.618  0.00  0.00     0.051 C 
HETATM   22  C   UNK N   1      52.521  33.290  53.353  0.00  0.00     0.013 A 
HETATM   23  C   UNK N   1      50.348  33.322  52.138  0.00  0.00     0.024 A 
BRANCH  14  24
HETATM   24  O   UNK N   1      48.284  33.099  55.739  0.00  0.00    -0.358 OA
HETATM   25  H   UNK N   1      48.727  32.987  56.592  0.00  0.00     0.218 HD
ENDBRANCH  14  24
ENDBRANCH   9  12
BRANCH   4  26
HETATM   26  O   UNK N   1      44.744  33.230  47.047  0.00  0.00    -0.360 OA
HETATM   27  H   UNK N   1      44.684  34.179  46.909  0.00  0.00     0.217 HD
ENDBRANCH   4  26
BRANCH   5  28
HETATM   28  O   UNK N   1      48.054  30.032  45.928  0.00  0.00    -0.361 OA
HETATM   29  H   UNK N   1      48.340  29.146  46.193  0.00  0.00     0.217 HD
ENDBRANCH   5  28
TORSDOF 4
ENDMDL
MODEL 6
REMARK VINA RESULT:      -6.2     14.228     16.016
REMARK  4 active torsions:
REMARK  status: ('A' for Active; 'I' for Inactive)
REMARK    1  A    between atoms: O_3  and  C_9 
REMARK    2  A    between atoms: O_4  and  C_10 
REMARK    3  A    between atoms: O_5  and  C_11 
REMARK    4  A    between atoms: C_12  and  C_19 
ROOT
HETATM    1  O   UNK N   1      40.185  47.147  46.990  0.00  0.00    -0.340 OA
HETATM    2  O   UNK N   1      43.433  49.317  46.151  0.00  0.00    -0.292 OA
HETATM    3  C   UNK N   1      40.051  48.058  45.992  0.00  0.00     0.089 A 
HETATM    4  C   UNK N   1      41.002  49.751  44.502  0.00  0.00     0.085 A 
HETATM    5  C   UNK N   1      38.674  49.064  44.276  0.00  0.00     0.071 A 
HETATM    6  C   UNK N   1      41.157  48.855  45.601  0.00  0.00     0.076 A 
HETATM    7  C   UNK N   1      38.820  48.181  45.344  0.00  0.00     0.074 A 
HETATM    8  C   UNK N   1      39.763  49.835  43.856  0.00  0.00     0.074 A 
HETATM    9  C   UNK N   1      41.430  46.642  47.325  0.00  0.00     0.169 C 
HETATM   10  C   UNK N   1      42.417  48.695  46.402  0.00  0.00     0.167 C 
HETATM   11  C   UNK N   1      42.400  47.792  47.602  0.00  0.00     0.121 C 
ENDROOT
BRANCH   9  12
HETATM   12  C   UNK N   1      41.327  45.707  48.496  0.00  0.00    -0.025 A 
HETATM   13  C   UNK N   1      40.863  44.395  48.305  0.00  0.00     0.049 A 
HETATM   14  C   UNK N   1      40.762  43.515  49.384  0.00  0.00     0.100 A 
HETATM   15  C   UNK N   1      41.126  43.947  50.668  0.00  0.00     0.113 A 
HETATM   16  O   UNK N   1      41.009  43.104  51.723  0.00  0.00    -0.333 OA
HETATM   17  C   UNK N   1      41.596  45.251  50.862  0.00  0.00     0.001 A 
HETATM   18  C   UNK N   1      41.281  43.421  53.051  0.00  0.00     0.078 A 
HETATM   19  C   UNK N   1      41.830  44.832  53.241  0.00  0.00     0.011 A 
HETATM   20  C   UNK N   1      42.307  42.414  53.580  0.00  0.00     0.051 C 
HETATM   21  C   UNK N   1      39.967  43.301  53.828  0.00  0.00     0.051 C 
HETATM   22  C   UNK N   1      41.974  45.675  52.214  0.00  0.00     0.013 A 
HETATM   23  C   UNK N   1      41.695  46.132  49.782  0.00  0.00     0.024 A 
BRANCH  14  24
HETATM   24  O   UNK N   1      40.312  42.261  49.170  0.00  0.00    -0.358 OA
HETATM   25  H   UNK N   1      40.700  41.680  48.501  0.00  0.00     0.218 HD
ENDBRANCH  14  24
ENDBRANCH   9  12
BRANCH   4  26
HETATM   26  O   UNK N   1      41.999  50.537  44.034  0.00  0.00    -0.360 OA
HETATM   27  H   UNK N   1      42.781  50.232  43.567  0.00  0.00     0.217 HD
ENDBRANCH   4  26
BRANCH   5  28
HETATM   28  O   UNK N   1      37.484  49.157  43.647  0.00  0.00    -0.361 OA
HETATM   29  H   UNK N   1      37.390  48.948  42.706  0.00  0.00     0.217 HD
ENDBRANCH   5  28
TORSDOF 4
ENDMDL
MODEL 7
REMARK VINA RESULT:      -6.1     19.174     21.565
REMARK  4 active torsions:
REMARK  status: ('A' for Active; 'I' for Inactive)
REMARK    1  A    between atoms: O_3  and  C_9 
REMARK    2  A    between atoms: O_4  and  C_10 
REMARK    3  A    between atoms: O_5  and  C_11 
REMARK    4  A    between atoms: C_12  and  C_19 
ROOT
HETATM    1  O   UNK N   1      37.016  44.551  63.627  0.00  0.00    -0.340 OA
HETATM    2  O   UNK N   1      38.133  48.211  62.480  0.00  0.00    -0.292 OA
HETATM    3  C   UNK N   1      38.011  45.124  64.351  0.00  0.00     0.089 A 
HETATM    4  C   UNK N   1      39.454  47.034  64.864  0.00  0.00     0.085 A 
HETATM    5  C   UNK N   1      39.551  45.006  66.214  0.00  0.00     0.071 A 
HETATM    6  C   UNK N   1      38.456  46.434  64.039  0.00  0.00     0.076 A 
HETATM    7  C   UNK N   1      38.572  44.416  65.417  0.00  0.00     0.074 A 
HETATM    8  C   UNK N   1      39.980  46.309  65.940  0.00  0.00     0.074 A 
HETATM    9  C   UNK N   1      36.119  45.330  62.916  0.00  0.00     0.169 C 
HETATM   10  C   UNK N   1      37.837  47.085  62.837  0.00  0.00     0.167 C 
HETATM   11  C   UNK N   1      36.878  46.290  61.998  0.00  0.00     0.121 C 
ENDROOT
BRANCH   9  12
HETATM   12  C   UNK N   1      35.159  44.468  62.148  0.00  0.00    -0.025 A 
HETATM   13  C   UNK N   1      35.488  44.041  60.850  0.00  0.00     0.049 A 
HETATM   14  C   UNK N   1      34.606  43.238  60.123  0.00  0.00     0.100 A 
HETATM   15  C   UNK N   1      33.381  42.860  60.695  0.00  0.00     0.113 A 
HETATM   16  O   UNK N   1      32.511  42.100  59.986  0.00  0.00    -0.333 OA
HETATM   17  C   UNK N   1      33.053  43.277  61.990  0.00  0.00     0.001 A 
HETATM   18  C   UNK N   1      31.246  41.702  60.410  0.00  0.00     0.078 A 
HETATM   19  C   UNK N   1      30.920  42.131  61.838  0.00  0.00     0.011 A 
HETATM   20  C   UNK N   1      31.173  40.175  60.322  0.00  0.00     0.051 C 
HETATM   21  C   UNK N   1      30.225  42.341  59.464  0.00  0.00     0.051 C 
HETATM   22  C   UNK N   1      31.769  42.863  62.565  0.00  0.00     0.013 A 
HETATM   23  C   UNK N   1      33.935  44.081  62.716  0.00  0.00     0.024 A 
BRANCH  14  24
HETATM   24  O   UNK N   1      34.947  42.844  58.879  0.00  0.00    -0.358 OA
HETATM   25  H   UNK N   1      35.511  43.380  58.305  0.00  0.00     0.218 HD
ENDBRANCH  14  24
ENDBRANCH   9  12
BRANCH   4  26
HETATM   26  O   UNK N   1      39.929  48.286  64.669  0.00  0.00    -0.360 OA
HETATM   27  H   UNK N   1      39.654  49.071  65.150  0.00  0.00     0.217 HD
ENDBRANCH   4  26
BRANCH   5  28
HETATM   28  O   UNK N   1      40.069  44.317  67.252  0.00  0.00    -0.361 OA
HETATM   29  H   UNK N   1      41.021  44.164  67.335  0.00  0.00     0.217 HD
ENDBRANCH   5  28
TORSDOF 4
ENDMDL
MODEL 8
REMARK VINA RESULT:      -6.0     19.121     21.871
REMARK  4 active torsions:
REMARK  status: ('A' for Active; 'I' for Inactive)
REMARK    1  A    between atoms: O_3  and  C_9 
REMARK    2  A    between atoms: O_4  and  C_10 
REMARK    3  A    between atoms: O_5  and  C_11 
REMARK    4  A    between atoms: C_12  and  C_19 
ROOT
HETATM    1  O   UNK N   1      35.993  45.593  62.066  0.00  0.00    -0.340 OA
HETATM    2  O   UNK N   1      35.634  45.676  66.044  0.00  0.00    -0.292 OA
HETATM    3  C   UNK N   1      36.860  46.405  62.724  0.00  0.00     0.089 A 
HETATM    4  C   UNK N   1      37.800  47.287  64.805  0.00  0.00     0.085 A 
HETATM    5  C   UNK N   1      38.731  47.936  62.648  0.00  0.00     0.071 A 
HETATM    6  C   UNK N   1      36.829  46.479  64.141  0.00  0.00     0.076 A 
HETATM    7  C   UNK N   1      37.791  47.144  61.992  0.00  0.00     0.074 A 
HETATM    8  C   UNK N   1      38.737  47.997  64.046  0.00  0.00     0.074 A 
HETATM    9  C   UNK N   1      35.408  44.514  62.705  0.00  0.00     0.169 C 
HETATM   10  C   UNK N   1      35.750  45.697  64.832  0.00  0.00     0.167 C 
HETATM   11  C   UNK N   1      34.730  44.979  63.996  0.00  0.00     0.121 C 
ENDROOT
BRANCH   9  12
HETATM   12  C   UNK N   1      34.443  43.814  61.792  0.00  0.00    -0.025 A 
HETATM   13  C   UNK N   1      34.864  43.395  60.519  0.00  0.00     0.049 A 
HETATM   14  C   UNK N   1      33.979  42.742  59.658  0.00  0.00     0.100 A 
HETATM   15  C   UNK N   1      32.658  42.505  60.071  0.00  0.00     0.113 A 
HETATM   16  O   UNK N   1      31.788  41.893  59.232  0.00  0.00    -0.333 OA
HETATM   17  C   UNK N   1      32.237  42.914  61.342  0.00  0.00     0.001 A 
HETATM   18  C   UNK N   1      30.443  41.648  59.493  0.00  0.00     0.078 A 
HETATM   19  C   UNK N   1      30.009  42.063  60.896  0.00  0.00     0.011 A 
HETATM   20  C   UNK N   1      30.190  40.147  59.318  0.00  0.00     0.051 C 
HETATM   21  C   UNK N   1      29.627  42.448  58.474  0.00  0.00     0.051 C 
HETATM   22  C   UNK N   1      30.854  42.650  61.749  0.00  0.00     0.013 A 
HETATM   23  C   UNK N   1      33.123  43.569  62.201  0.00  0.00     0.024 A 
BRANCH  14  24
HETATM   24  O   UNK N   1      34.411  42.353  58.441  0.00  0.00    -0.358 OA
HETATM   25  H   UNK N   1      34.877  41.517  58.302  0.00  0.00     0.218 HD
ENDBRANCH  14  24
ENDBRANCH   9  12
BRANCH   4  26
HETATM   26  O   UNK N   1      37.875  47.407  66.151  0.00  0.00    -0.360 OA
HETATM   27  H   UNK N   1      37.651  48.191  66.658  0.00  0.00     0.217 HD
ENDBRANCH   4  26
BRANCH   5  28
HETATM   28  O   UNK N   1      39.637  48.629  61.928  0.00  0.00    -0.361 OA
HETATM   29  H   UNK N   1      40.086  48.236  61.165  0.00  0.00     0.217 HD
ENDBRANCH   5  28
TORSDOF 4
ENDMDL
MODEL 9
REMARK VINA RESULT:      -5.9     15.422     17.246
REMARK  4 active torsions:
REMARK  status: ('A' for Active; 'I' for Inactive)
REMARK    1  A    between atoms: O_3  and  C_9 
REMARK    2  A    between atoms: O_4  and  C_10 
REMARK    3  A    between atoms: O_5  and  C_11 
REMARK    4  A    between atoms: C_12  and  C_19 
ROOT
HETATM    1  O   UNK N   1      39.053  47.657  45.617  0.00  0.00    -0.340 OA
HETATM    2  O   UNK N   1      41.154  50.645  43.999  0.00  0.00    -0.292 OA
HETATM    3  C   UNK N   1      38.509  48.240  44.518  0.00  0.00     0.089 A 
HETATM    4  C   UNK N   1      38.629  49.832  42.663  0.00  0.00     0.085 A 
HETATM    5  C   UNK N   1      36.732  48.317  42.878  0.00  0.00     0.071 A 
HETATM    6  C   UNK N   1      39.195  49.290  43.855  0.00  0.00     0.076 A 
HETATM    7  C   UNK N   1      37.281  47.777  44.039  0.00  0.00     0.074 A 
HETATM    8  C   UNK N   1      37.409  49.332  42.194  0.00  0.00     0.074 A 
HETATM    9  C   UNK N   1      40.417  47.715  45.847  0.00  0.00     0.169 C 
HETATM   10  C   UNK N   1      40.474  49.759  44.484  0.00  0.00     0.167 C 
HETATM   11  C   UNK N   1      40.891  49.169  45.801  0.00  0.00     0.121 C 
ENDROOT
BRANCH   9  12
HETATM   12  C   UNK N   1      40.765  47.058  47.152  0.00  0.00    -0.025 A 
HETATM   13  C   UNK N   1      41.880  47.501  47.883  0.00  0.00     0.049 A 
HETATM   14  C   UNK N   1      42.215  46.901  49.098  0.00  0.00     0.100 A 
HETATM   15  C   UNK N   1      41.431  45.846  49.590  0.00  0.00     0.113 A 
HETATM   16  O   UNK N   1      41.765  45.244  50.757  0.00  0.00    -0.333 OA
HETATM   17  C   UNK N   1      40.315  45.406  48.869  0.00  0.00     0.001 A 
HETATM   18  C   UNK N   1      41.110  44.156  51.328  0.00  0.00     0.078 A 
HETATM   19  C   UNK N   1      39.874  43.714  50.551  0.00  0.00     0.011 A 
HETATM   20  C   UNK N   1      40.691  44.544  52.750  0.00  0.00     0.051 C 
HETATM   21  C   UNK N   1      42.104  42.992  51.364  0.00  0.00     0.051 C 
HETATM   22  C   UNK N   1      39.512  44.305  49.407  0.00  0.00     0.013 A 
HETATM   23  C   UNK N   1      39.982  46.006  47.652  0.00  0.00     0.024 A 
BRANCH  14  24
HETATM   24  O   UNK N   1      43.292  47.347  49.778  0.00  0.00    -0.358 OA
HETATM   25  H   UNK N   1      43.299  47.420  50.742  0.00  0.00     0.218 HD
ENDBRANCH  14  24
ENDBRANCH   9  12
BRANCH   4  26
HETATM   26  O   UNK N   1      39.213  50.817  41.941  0.00  0.00    -0.360 OA
HETATM   27  H   UNK N   1      39.210  51.752  42.162  0.00  0.00     0.217 HD
ENDBRANCH   4  26
BRANCH   5  28
HETATM   28  O   UNK N   1      35.555  47.846  42.417  0.00  0.00    -0.361 OA
HETATM   29  H   UNK N   1      34.719  48.048  42.861  0.00  0.00     0.217 HD
ENDBRANCH   5  28
TORSDOF 4
ENDMDL
