MODEL 1
REMARK VINA RESULT:      -6.9      0.000      0.000
REMARK  7 active torsions:
REMARK  status: ('A' for Active; 'I' for Inactive)
REMARK    1  A    between atoms: O_2  and  C_8 
REMARK    2  A    between atoms: O_3  and  C_9 
REMARK    3  A    between atoms: O_4  and  C_10 
REMARK    4  A    between atoms: O_5  and  C_11 
REMARK    5  A    between atoms: C_12  and  C_19 
REMARK    6  A    between atoms: C_14  and  C_22 
REMARK    7  A    between atoms: C_22  and  C_25 
ROOT
HETATM    1  C   UNK N   1      32.098  50.067  42.658  0.00  0.00     0.107 A 
HETATM    2  C   UNK N   1      31.418  49.826  41.431  0.00  0.00     0.100 A 
HETATM    3  C   UNK N   1      30.852  52.188  41.266  0.00  0.00    -0.025 A 
HETATM    4  C   UNK N   1      32.136  51.386  43.174  0.00  0.00    -0.018 A 
HETATM    5  C   UNK N   1      30.804  50.886  40.755  0.00  0.00     0.049 A 
HETATM    6  C   UNK N   1      31.511  52.431  42.477  0.00  0.00     0.020 A 
ENDROOT
BRANCH   3   7
HETATM    7  C   UNK N   1      30.199  53.325  40.523  0.00  0.00     0.169 C 
HETATM    8  O   UNK N   1      30.131  54.458  41.328  0.00  0.00    -0.340 OA
HETATM    9  C   UNK N   1      29.721  55.658  40.843  0.00  0.00     0.089 A 
HETATM   10  C   UNK N   1      29.735  55.901  39.455  0.00  0.00     0.076 A 
HETATM   11  C   UNK N   1      29.268  56.641  41.727  0.00  0.00     0.074 A 
HETATM   12  C   UNK N   1      29.241  57.124  38.956  0.00  0.00     0.085 A 
HETATM   13  C   UNK N   1      30.280  54.829  38.577  0.00  0.00     0.167 C 
HETATM   14  C   UNK N   1      28.769  58.096  39.853  0.00  0.00     0.074 A 
HETATM   15  C   UNK N   1      28.790  57.859  41.236  0.00  0.00     0.071 A 
HETATM   16  O   UNK N   1      30.206  54.900  37.361  0.00  0.00    -0.292 OA
HETATM   17  C   UNK N   1      30.953  53.648  39.227  0.00  0.00     0.121 C 
BRANCH  12  18
HETATM   18  O   UNK N   1      29.222  57.364  37.629  0.00  0.00    -0.360 OA
HETATM   19  H   UNK N   1      29.306  58.258  37.271  0.00  0.00     0.217 HD
ENDBRANCH  12  18
BRANCH  15  20
HETATM   20  O   UNK N   1      28.344  58.793  42.102  0.00  0.00    -0.361 OA
HETATM   21  H   UNK N   1      28.605  58.790  43.033  0.00  0.00     0.217 HD
ENDBRANCH  15  20
ENDBRANCH   3   7
BRANCH   2  22
HETATM   22  O   UNK N   1      31.351  48.588  40.899  0.00  0.00    -0.358 OA
HETATM   23  H   UNK N   1      30.981  47.838  41.388  0.00  0.00     0.218 HD
ENDBRANCH   2  22
BRANCH   4  24
HETATM   24  C   UNK N   1      32.836  51.699  44.477  0.00  0.00     0.068 C 
BRANCH  24  25
HETATM   25  C   UNK N   1      33.570  53.017  44.362  0.00  0.00    -0.020 C 
HETATM   26  C   UNK N   1      33.128  54.234  44.770  0.00  0.00    -0.091 C 
HETATM   27  C   UNK N   1      34.005  55.442  44.548  0.00  0.00     0.042 C 
HETATM   28  C   UNK N   1      31.798  54.481  45.445  0.00  0.00     0.042 C 
ENDBRANCH  24  25
ENDBRANCH   4  24
BRANCH   1  29
HETATM   29  O   UNK N   1      32.709  49.077  43.371  0.00  0.00    -0.353 OA
HETATM   30  C   UNK N   1      34.021  48.663  43.268  0.00  0.00     0.210 C 
ENDBRANCH   1  29
TORSDOF 7
ENDMDL
MODEL 2
REMARK VINA RESULT:      -6.7      1.878      2.016
REMARK  7 active torsions:
REMARK  status: ('A' for Active; 'I' for Inactive)
REMARK    1  A    between atoms: O_2  and  C_8 
REMARK    2  A    between atoms: O_3  and  C_9 
REMARK    3  A    between atoms: O_4  and  C_10 
REMARK    4  A    between atoms: O_5  and  C_11 
REMARK    5  A    between atoms: C_12  and  C_19 
REMARK    6  A    between atoms: C_14  and  C_22 
REMARK    7  A    between atoms: C_22  and  C_25 
ROOT
HETATM    1  C   UNK N   1      32.146  50.200  42.638  0.00  0.00     0.107 A 
HETATM    2  C   UNK N   1      31.418  49.997  41.432  0.00  0.00     0.100 A 
HETATM    3  C   UNK N   1      30.750  52.338  41.427  0.00  0.00    -0.025 A 
HETATM    4  C   UNK N   1      32.156  51.488  43.225  0.00  0.00    -0.018 A 
HETATM    5  C   UNK N   1      30.730  51.065  40.846  0.00  0.00     0.049 A 
HETATM    6  C   UNK N   1      31.457  52.542  42.617  0.00  0.00     0.020 A 
ENDROOT
BRANCH   3   7
HETATM    7  C   UNK N   1      30.017  53.484  40.779  0.00  0.00     0.169 C 
HETATM    8  O   UNK N   1      28.704  53.541  41.236  0.00  0.00    -0.340 OA
HETATM    9  C   UNK N   1      27.878  54.571  40.917  0.00  0.00     0.089 A 
HETATM   10  C   UNK N   1      28.416  55.792  40.465  0.00  0.00     0.076 A 
HETATM   11  C   UNK N   1      26.495  54.406  41.025  0.00  0.00     0.074 A 
HETATM   12  C   UNK N   1      27.549  56.832  40.069  0.00  0.00     0.085 A 
HETATM   13  C   UNK N   1      29.898  55.916  40.426  0.00  0.00     0.167 C 
HETATM   14  C   UNK N   1      26.159  56.646  40.161  0.00  0.00     0.074 A 
HETATM   15  C   UNK N   1      25.633  55.439  40.646  0.00  0.00     0.071 A 
HETATM   16  O   UNK N   1      30.447  56.884  39.922  0.00  0.00    -0.292 OA
HETATM   17  C   UNK N   1      30.723  54.819  41.048  0.00  0.00     0.121 C 
BRANCH  12  18
HETATM   18  O   UNK N   1      28.045  57.998  39.607  0.00  0.00    -0.360 OA
HETATM   19  H   UNK N   1      28.967  58.086  39.329  0.00  0.00     0.217 HD
ENDBRANCH  12  18
BRANCH  15  20
HETATM   20  O   UNK N   1      24.300  55.259  40.743  0.00  0.00    -0.361 OA
HETATM   21  H   UNK N   1      23.914  54.652  41.390  0.00  0.00     0.217 HD
ENDBRANCH  15  20
ENDBRANCH   3   7
BRANCH   2  22
HETATM   22  O   UNK N   1      31.375  48.788  40.835  0.00  0.00    -0.358 OA
HETATM   23  H   UNK N   1      30.571  48.450  40.414  0.00  0.00     0.218 HD
ENDBRANCH   2  22
BRANCH   4  24
HETATM   24  C   UNK N   1      32.906  51.760  44.510  0.00  0.00     0.068 C 
BRANCH  24  25
HETATM   25  C   UNK N   1      33.606  53.097  44.423  0.00  0.00    -0.020 C 
HETATM   26  C   UNK N   1      33.129  54.297  44.845  0.00  0.00    -0.091 C 
HETATM   27  C   UNK N   1      33.978  55.530  44.650  0.00  0.00     0.042 C 
HETATM   28  C   UNK N   1      31.787  54.499  45.509  0.00  0.00     0.042 C 
ENDBRANCH  24  25
ENDBRANCH   4  24
BRANCH   1  29
HETATM   29  O   UNK N   1      32.830  49.199  43.265  0.00  0.00    -0.353 OA
HETATM   30  C   UNK N   1      34.157  48.861  43.093  0.00  0.00     0.210 C 
ENDBRANCH   1  29
TORSDOF 7
ENDMDL
MODEL 3
REMARK VINA RESULT:      -6.2      2.660      7.957
REMARK  7 active torsions:
REMARK  status: ('A' for Active; 'I' for Inactive)
REMARK    1  A    between atoms: O_2  and  C_8 
REMARK    2  A    between atoms: O_3  and  C_9 
REMARK    3  A    between atoms: O_4  and  C_10 
REMARK    4  A    between atoms: O_5  and  C_11 
REMARK    5  A    between atoms: C_12  and  C_19 
REMARK    6  A    between atoms: C_14  and  C_22 
REMARK    7  A    between atoms: C_22  and  C_25 
ROOT
HETATM    1  C   UNK N   1      27.862  56.417  40.288  0.00  0.00     0.107 A 
HETATM    2  C   UNK N   1      28.932  57.105  40.927  0.00  0.00     0.100 A 
HETATM    3  C   UNK N   1      29.545  55.071  42.116  0.00  0.00    -0.025 A 
HETATM    4  C   UNK N   1      27.650  55.049  40.586  0.00  0.00    -0.018 A 
HETATM    5  C   UNK N   1      29.755  56.425  41.832  0.00  0.00     0.049 A 
HETATM    6  C   UNK N   1      28.489  54.392  41.499  0.00  0.00     0.020 A 
ENDROOT
BRANCH   3   7
HETATM    7  C   UNK N   1      30.446  54.346  43.082  0.00  0.00     0.169 C 
HETATM    8  O   UNK N   1      30.961  53.194  42.496  0.00  0.00    -0.340 OA
HETATM    9  C   UNK N   1      31.914  52.444  43.106  0.00  0.00     0.089 A 
HETATM   10  C   UNK N   1      32.695  53.000  44.139  0.00  0.00     0.076 A 
HETATM   11  C   UNK N   1      32.103  51.115  42.715  0.00  0.00     0.074 A 
HETATM   12  C   UNK N   1      33.634  52.192  44.815  0.00  0.00     0.085 A 
HETATM   13  C   UNK N   1      32.478  54.435  44.466  0.00  0.00     0.167 C 
HETATM   14  C   UNK N   1      33.799  50.852  44.427  0.00  0.00     0.074 A 
HETATM   15  C   UNK N   1      33.042  50.317  43.374  0.00  0.00     0.071 A 
HETATM   16  O   UNK N   1      33.011  54.959  45.432  0.00  0.00    -0.292 OA
HETATM   17  C   UNK N   1      31.590  55.247  43.559  0.00  0.00     0.121 C 
BRANCH  12  18
HETATM   18  O   UNK N   1      34.372  52.699  45.824  0.00  0.00    -0.360 OA
HETATM   19  H   UNK N   1      34.341  52.325  46.716  0.00  0.00     0.217 HD
ENDBRANCH  12  18
BRANCH  15  20
HETATM   20  O   UNK N   1      33.202  49.033  42.994  0.00  0.00    -0.361 OA
HETATM   21  H   UNK N   1      33.907  48.765  42.388  0.00  0.00     0.217 HD
ENDBRANCH  15  20
ENDBRANCH   3   7
BRANCH   2  22
HETATM   22  O   UNK N   1      29.173  58.408  40.678  0.00  0.00    -0.358 OA
HETATM   23  H   UNK N   1      29.937  58.871  41.054  0.00  0.00     0.218 HD
ENDBRANCH   2  22
BRANCH   4  24
HETATM   24  C   UNK N   1      26.524  54.270  39.944  0.00  0.00     0.068 C 
BRANCH  24  25
HETATM   25  C   UNK N   1      26.251  53.013  40.738  0.00  0.00    -0.020 C 
HETATM   26  C   UNK N   1      26.176  51.745  40.256  0.00  0.00    -0.091 C 
HETATM   27  C   UNK N   1      25.872  50.618  41.212  0.00  0.00     0.042 C 
HETATM   28  C   UNK N   1      26.377  51.366  38.807  0.00  0.00     0.042 C 
ENDBRANCH  24  25
ENDBRANCH   4  24
BRANCH   1  29
HETATM   29  O   UNK N   1      27.018  57.024  39.403  0.00  0.00    -0.353 OA
HETATM   30  C   UNK N   1      27.281  57.347  38.088  0.00  0.00     0.210 C 
ENDBRANCH   1  29
TORSDOF 7
ENDMDL
MODEL 4
REMARK VINA RESULT:      -5.9     15.480     18.079
REMARK  7 active torsions:
REMARK  status: ('A' for Active; 'I' for Inactive)
REMARK    1  A    between atoms: O_2  and  C_8 
REMARK    2  A    between atoms: O_3  and  C_9 
REMARK    3  A    between atoms: O_4  and  C_10 
REMARK    4  A    between atoms: O_5  and  C_11 
REMARK    5  A    between atoms: C_12  and  C_19 
REMARK    6  A    between atoms: C_14  and  C_22 
REMARK    7  A    between atoms: C_22  and  C_25 
ROOT
HETATM    1  C   UNK N   1      30.779  41.923  58.656  0.00  0.00     0.107 A 
HETATM    2  C   UNK N   1      29.836  40.901  58.354  0.00  0.00     0.100 A 
HETATM    3  C   UNK N   1      29.411  41.917  56.183  0.00  0.00    -0.025 A 
HETATM    4  C   UNK N   1      31.017  42.941  57.701  0.00  0.00    -0.018 A 
HETATM    5  C   UNK N   1      29.165  40.913  57.126  0.00  0.00     0.049 A 
HETATM    6  C   UNK N   1      30.330  42.930  56.478  0.00  0.00     0.020 A 
ENDROOT
BRANCH   3   7
HETATM    7  C   UNK N   1      28.693  41.913  54.858  0.00  0.00     0.169 C 
HETATM    8  O   UNK N   1      27.578  42.745  54.907  0.00  0.00    -0.340 OA
HETATM    9  C   UNK N   1      26.848  43.029  53.798  0.00  0.00     0.089 A 
HETATM   10  C   UNK N   1      27.402  42.833  52.518  0.00  0.00     0.076 A 
HETATM   11  C   UNK N   1      25.539  43.499  53.936  0.00  0.00     0.074 A 
HETATM   12  C   UNK N   1      26.611  43.063  51.372  0.00  0.00     0.085 A 
HETATM   13  C   UNK N   1      28.818  42.381  52.446  0.00  0.00     0.167 C 
HETATM   14  C   UNK N   1      25.290  43.515  51.525  0.00  0.00     0.074 A 
HETATM   15  C   UNK N   1      24.758  43.741  52.803  0.00  0.00     0.071 A 
HETATM   16  O   UNK N   1      29.334  42.057  51.388  0.00  0.00    -0.292 OA
HETATM   17  C   UNK N   1      29.623  42.349  53.720  0.00  0.00     0.121 C 
BRANCH  12  18
HETATM   18  O   UNK N   1      27.116  42.855  50.139  0.00  0.00    -0.360 OA
HETATM   19  H   UNK N   1      27.597  42.046  49.915  0.00  0.00     0.217 HD
ENDBRANCH  12  18
BRANCH  15  20
HETATM   20  O   UNK N   1      23.491  44.182  52.953  0.00  0.00    -0.361 OA
HETATM   21  H   UNK N   1      23.283  44.960  53.490  0.00  0.00     0.217 HD
ENDBRANCH  15  20
ENDBRANCH   3   7
BRANCH   2  22
HETATM   22  O   UNK N   1      29.572  39.910  59.231  0.00  0.00    -0.358 OA
HETATM   23  H   UNK N   1      28.858  39.977  59.883  0.00  0.00     0.218 HD
ENDBRANCH   2  22
BRANCH   4  24
HETATM   24  C   UNK N   1      32.002  44.057  57.971  0.00  0.00     0.068 C 
BRANCH  24  25
HETATM   25  C   UNK N   1      31.432  45.372  57.489  0.00  0.00    -0.020 C 
HETATM   26  C   UNK N   1      30.660  46.235  58.199  0.00  0.00    -0.091 C 
HETATM   27  C   UNK N   1      30.170  47.496  57.530  0.00  0.00     0.042 C 
HETATM   28  C   UNK N   1      30.244  46.028  59.637  0.00  0.00     0.042 C 
ENDBRANCH  24  25
ENDBRANCH   4  24
BRANCH   1  29
HETATM   29  O   UNK N   1      31.460  41.974  59.838  0.00  0.00    -0.353 OA
HETATM   30  C   UNK N   1      32.567  41.232  60.195  0.00  0.00     0.210 C 
ENDBRANCH   1  29
TORSDOF 7
ENDMDL
MODEL 5
REMARK VINA RESULT:      -5.8     19.366     23.495
REMARK  7 active torsions:
REMARK  status: ('A' for Active; 'I' for Inactive)
REMARK    1  A    between atoms: O_2  and  C_8 
REMARK    2  A    between atoms: O_3  and  C_9 
REMARK    3  A    between atoms: O_4  and  C_10 
REMARK    4  A    between atoms: O_5  and  C_11 
REMARK    5  A    between atoms: C_12  and  C_19 
REMARK    6  A    between atoms: C_14  and  C_22 
REMARK    7  A    between atoms: C_22  and  C_25 
ROOT
HETATM    1  C   UNK N   1      32.516  42.976  59.207  0.00  0.00     0.107 A 
HETATM    2  C   UNK N   1      33.914  42.782  59.387  0.00  0.00     0.100 A 
HETATM    3  C   UNK N   1      33.779  43.773  61.606  0.00  0.00    -0.025 A 
HETATM    4  C   UNK N   1      31.768  43.580  60.247  0.00  0.00    -0.018 A 
HETATM    5  C   UNK N   1      34.526  43.185  60.579  0.00  0.00     0.049 A 
HETATM    6  C   UNK N   1      32.406  43.975  61.432  0.00  0.00     0.020 A 
ENDROOT
BRANCH   3   7
HETATM    7  C   UNK N   1      34.446  44.191  62.891  0.00  0.00     0.169 C 
HETATM    8  O   UNK N   1      35.790  44.476  62.672  0.00  0.00    -0.340 OA
HETATM    9  C   UNK N   1      36.575  45.016  63.640  0.00  0.00     0.089 A 
HETATM   10  C   UNK N   1      35.989  45.669  64.741  0.00  0.00     0.076 A 
HETATM   11  C   UNK N   1      37.965  44.902  63.544  0.00  0.00     0.074 A 
HETATM   12  C   UNK N   1      36.810  46.164  65.777  0.00  0.00     0.085 A 
HETATM   13  C   UNK N   1      34.507  45.800  64.752  0.00  0.00     0.167 C 
HETATM   14  C   UNK N   1      38.204  46.025  65.679  0.00  0.00     0.074 A 
HETATM   15  C   UNK N   1      38.782  45.403  64.561  0.00  0.00     0.071 A 
HETATM   16  O   UNK N   1      33.909  46.229  65.726  0.00  0.00    -0.292 OA
HETATM   17  C   UNK N   1      33.747  45.407  63.511  0.00  0.00     0.121 C 
BRANCH  12  18
HETATM   18  O   UNK N   1      36.265  46.769  66.852  0.00  0.00    -0.360 OA
HETATM   19  H   UNK N   1      35.610  47.475  66.763  0.00  0.00     0.217 HD
ENDBRANCH  12  18
BRANCH  15  20
HETATM   20  O   UNK N   1      40.120  45.274  64.460  0.00  0.00    -0.361 OA
HETATM   21  H   UNK N   1      40.552  45.096  63.613  0.00  0.00     0.217 HD
ENDBRANCH  15  20
ENDBRANCH   3   7
BRANCH   2  22
HETATM   22  O   UNK N   1      34.672  42.214  58.426  0.00  0.00    -0.358 OA
HETATM   23  H   UNK N   1      34.735  41.253  58.322  0.00  0.00     0.218 HD
ENDBRANCH   2  22
BRANCH   4  24
HETATM   24  C   UNK N   1      30.281  43.818  60.108  0.00  0.00     0.068 C 
BRANCH  24  25
HETATM   25  C   UNK N   1      29.949  45.238  60.507  0.00  0.00    -0.020 C 
HETATM   26  C   UNK N   1      29.988  46.339  59.712  0.00  0.00    -0.091 C 
HETATM   27  C   UNK N   1      29.637  47.681  60.306  0.00  0.00     0.042 C 
HETATM   28  C   UNK N   1      30.364  46.325  58.249  0.00  0.00     0.042 C 
ENDBRANCH  24  25
ENDBRANCH   4  24
BRANCH   1  29
HETATM   29  O   UNK N   1      31.861  42.615  58.065  0.00  0.00    -0.353 OA
HETATM   30  C   UNK N   1      31.879  43.270  56.851  0.00  0.00     0.210 C 
ENDBRANCH   1  29
TORSDOF 7
ENDMDL
MODEL 6
REMARK VINA RESULT:      -5.8      2.428      6.828
REMARK  7 active torsions:
REMARK  status: ('A' for Active; 'I' for Inactive)
REMARK    1  A    between atoms: O_2  and  C_8 
REMARK    2  A    between atoms: O_3  and  C_9 
REMARK    3  A    between atoms: O_4  and  C_10 
REMARK    4  A    between atoms: O_5  and  C_11 
REMARK    5  A    between atoms: C_12  and  C_19 
REMARK    6  A    between atoms: C_14  and  C_22 
REMARK    7  A    between atoms: C_22  and  C_25 
ROOT
HETATM    1  C   UNK N   1      27.677  52.804  38.304  0.00  0.00     0.107 A 
HETATM    2  C   UNK N   1      27.696  51.704  39.207  0.00  0.00     0.100 A 
HETATM    3  C   UNK N   1      29.850  52.436  40.074  0.00  0.00    -0.025 A 
HETATM    4  C   UNK N   1      28.767  53.709  38.303  0.00  0.00    -0.018 A 
HETATM    5  C   UNK N   1      28.780  51.534  40.075  0.00  0.00     0.049 A 
HETATM    6  C   UNK N   1      29.842  53.515  39.183  0.00  0.00     0.020 A 
ENDROOT
BRANCH   3   7
HETATM    7  C   UNK N   1      31.006  52.250  41.023  0.00  0.00     0.169 C 
HETATM    8  O   UNK N   1      30.965  53.207  42.033  0.00  0.00    -0.340 OA
HETATM    9  C   UNK N   1      31.810  53.164  43.095  0.00  0.00     0.089 A 
HETATM   10  C   UNK N   1      32.470  51.964  43.424  0.00  0.00     0.076 A 
HETATM   11  C   UNK N   1      32.033  54.322  43.846  0.00  0.00     0.074 A 
HETATM   12  C   UNK N   1      33.399  51.948  44.486  0.00  0.00     0.085 A 
HETATM   13  C   UNK N   1      32.144  50.759  42.615  0.00  0.00     0.167 C 
HETATM   14  C   UNK N   1      33.631  53.123  45.219  0.00  0.00     0.074 A 
HETATM   15  C   UNK N   1      32.943  54.305  44.907  0.00  0.00     0.071 A 
HETATM   16  O   UNK N   1      32.766  49.716  42.742  0.00  0.00    -0.292 OA
HETATM   17  C   UNK N   1      31.003  50.844  41.635  0.00  0.00     0.121 C 
BRANCH  12  18
HETATM   18  O   UNK N   1      34.061  50.815  44.798  0.00  0.00    -0.360 OA
HETATM   19  H   UNK N   1      35.010  50.717  44.636  0.00  0.00     0.217 HD
ENDBRANCH  12  18
BRANCH  15  20
HETATM   20  O   UNK N   1      33.157  55.434  45.613  0.00  0.00    -0.361 OA
HETATM   21  H   UNK N   1      32.698  56.260  45.405  0.00  0.00     0.217 HD
ENDBRANCH  15  20
ENDBRANCH   3   7
BRANCH   2  22
HETATM   22  O   UNK N   1      26.684  50.813  39.246  0.00  0.00    -0.358 OA
HETATM   23  H   UNK N   1      26.802  49.915  39.589  0.00  0.00     0.218 HD
ENDBRANCH   2  22
BRANCH   4  24
HETATM   24  C   UNK N   1      28.805  54.891  37.361  0.00  0.00     0.068 C 
BRANCH  24  25
HETATM   25  C   UNK N   1      29.365  56.100  38.075  0.00  0.00    -0.020 C 
HETATM   26  C   UNK N   1      28.665  57.030  38.776  0.00  0.00    -0.091 C 
HETATM   27  C   UNK N   1      29.409  58.183  39.405  0.00  0.00     0.042 C 
HETATM   28  C   UNK N   1      27.169  57.001  38.979  0.00  0.00     0.042 C 
ENDBRANCH  24  25
ENDBRANCH   4  24
BRANCH   1  29
HETATM   29  O   UNK N   1      26.656  53.022  37.426  0.00  0.00    -0.353 OA
HETATM   30  C   UNK N   1      25.476  53.694  37.671  0.00  0.00     0.210 C 
ENDBRANCH   1  29
TORSDOF 7
ENDMDL
MODEL 7
REMARK VINA RESULT:      -5.7     15.808     18.724
REMARK  7 active torsions:
REMARK  status: ('A' for Active; 'I' for Inactive)
REMARK    1  A    between atoms: O_2  and  C_8 
REMARK    2  A    between atoms: O_3  and  C_9 
REMARK    3  A    between atoms: O_4  and  C_10 
REMARK    4  A    between atoms: O_5  and  C_11 
REMARK    5  A    between atoms: C_12  and  C_19 
REMARK    6  A    between atoms: C_14  and  C_22 
REMARK    7  A    between atoms: C_22  and  C_25 
ROOT
HETATM    1  C   UNK N   1      32.048  43.115  59.196  0.00  0.00     0.107 A 
HETATM    2  C   UNK N   1      31.939  43.612  57.867  0.00  0.00     0.100 A 
HETATM    3  C   UNK N   1      30.624  45.498  58.666  0.00  0.00    -0.025 A 
HETATM    4  C   UNK N   1      31.426  43.829  60.249  0.00  0.00    -0.018 A 
HETATM    5  C   UNK N   1      31.229  44.792  57.620  0.00  0.00     0.049 A 
HETATM    6  C   UNK N   1      30.719  45.009  59.974  0.00  0.00     0.020 A 
ENDROOT
BRANCH   3   7
HETATM    7  C   UNK N   1      29.872  46.774  58.391  0.00  0.00     0.169 C 
HETATM    8  O   UNK N   1      30.509  47.508  57.394  0.00  0.00    -0.340 OA
HETATM    9  C   UNK N   1      29.951  48.625  56.861  0.00  0.00     0.089 A 
HETATM   10  C   UNK N   1      28.568  48.857  56.994  0.00  0.00     0.076 A 
HETATM   11  C   UNK N   1      30.761  49.551  56.195  0.00  0.00     0.074 A 
HETATM   12  C   UNK N   1      28.010  50.054  56.498  0.00  0.00     0.085 A 
HETATM   13  C   UNK N   1      27.759  47.805  57.666  0.00  0.00     0.167 C 
HETATM   14  C   UNK N   1      28.838  50.986  55.850  0.00  0.00     0.074 A 
HETATM   15  C   UNK N   1      30.209  50.731  55.691  0.00  0.00     0.071 A 
HETATM   16  O   UNK N   1      26.583  47.982  57.944  0.00  0.00    -0.292 OA
HETATM   17  C   UNK N   1      28.421  46.490  57.986  0.00  0.00     0.121 C 
BRANCH  12  18
HETATM   18  O   UNK N   1      26.693  50.305  56.640  0.00  0.00    -0.360 OA
HETATM   19  H   UNK N   1      26.334  50.708  57.443  0.00  0.00     0.217 HD
ENDBRANCH  12  18
BRANCH  15  20
HETATM   20  O   UNK N   1      31.006  51.620  55.064  0.00  0.00    -0.361 OA
HETATM   21  H   UNK N   1      31.282  52.445  55.488  0.00  0.00     0.217 HD
ENDBRANCH  15  20
ENDBRANCH   3   7
BRANCH   2  22
HETATM   22  O   UNK N   1      32.511  42.967  56.829  0.00  0.00    -0.358 OA
HETATM   23  H   UNK N   1      32.626  42.005  56.822  0.00  0.00     0.218 HD
ENDBRANCH   2  22
BRANCH   4  24
HETATM   24  C   UNK N   1      31.501  43.344  61.679  0.00  0.00     0.068 C 
BRANCH  24  25
HETATM   25  C   UNK N   1      31.879  44.490  62.591  0.00  0.00    -0.020 C 
HETATM   26  C   UNK N   1      33.134  44.861  62.957  0.00  0.00    -0.091 C 
HETATM   27  C   UNK N   1      33.304  46.028  63.899  0.00  0.00     0.042 C 
HETATM   28  C   UNK N   1      34.399  44.183  62.486  0.00  0.00     0.042 C 
ENDBRANCH  24  25
ENDBRANCH   4  24
BRANCH   1  29
HETATM   29  O   UNK N   1      32.718  41.966  59.503  0.00  0.00    -0.353 OA
HETATM   30  C   UNK N   1      34.082  41.808  59.636  0.00  0.00     0.210 C 
ENDBRANCH   1  29
TORSDOF 7
ENDMDL
MODEL 8
REMARK VINA RESULT:      -5.6      8.456     12.996
REMARK  7 active torsions:
REMARK  status: ('A' for Active; 'I' for Inactive)
REMARK    1  A    between atoms: O_2  and  C_8 
REMARK    2  A    between atoms: O_3  and  C_9 
REMARK    3  A    between atoms: O_4  and  C_10 
REMARK    4  A    between atoms: O_5  and  C_11 
REMARK    5  A    between atoms: C_12  and  C_19 
REMARK    6  A    between atoms: C_14  and  C_22 
REMARK    7  A    between atoms: C_22  and  C_25 
ROOT
HETATM    1  C   UNK N   1      40.057  44.175  48.616  0.00  0.00     0.107 A 
HETATM    2  C   UNK N   1      39.032  45.157  48.512  0.00  0.00     0.100 A 
HETATM    3  C   UNK N   1      40.158  46.147  46.595  0.00  0.00    -0.025 A 
HETATM    4  C   UNK N   1      41.132  44.205  47.695  0.00  0.00    -0.018 A 
HETATM    5  C   UNK N   1      39.097  46.128  47.507  0.00  0.00     0.049 A 
HETATM    6  C   UNK N   1      41.174  45.191  46.698  0.00  0.00     0.020 A 
ENDROOT
BRANCH   3   7
HETATM    7  C   UNK N   1      40.212  47.190  45.508  0.00  0.00     0.169 C 
HETATM    8  O   UNK N   1      38.926  47.554  45.119  0.00  0.00    -0.340 OA
HETATM    9  C   UNK N   1      38.701  48.582  44.261  0.00  0.00     0.089 A 
HETATM   10  C   UNK N   1      39.696  49.556  44.051  0.00  0.00     0.076 A 
HETATM   11  C   UNK N   1      37.485  48.655  43.576  0.00  0.00     0.074 A 
HETATM   12  C   UNK N   1      39.481  50.580  43.104  0.00  0.00     0.085 A 
HETATM   13  C   UNK N   1      40.944  49.446  44.853  0.00  0.00     0.167 C 
HETATM   14  C   UNK N   1      38.262  50.631  42.406  0.00  0.00     0.074 A 
HETATM   15  C   UNK N   1      37.263  49.676  42.648  0.00  0.00     0.071 A 
HETATM   16  O   UNK N   1      41.908  50.164  44.639  0.00  0.00    -0.292 OA
HETATM   17  C   UNK N   1      40.991  48.429  45.964  0.00  0.00     0.121 C 
BRANCH  12  18
HETATM   18  O   UNK N   1      40.432  51.507  42.870  0.00  0.00    -0.360 OA
HETATM   19  H   UNK N   1      40.780  52.070  43.575  0.00  0.00     0.217 HD
ENDBRANCH  12  18
BRANCH  15  20
HETATM   20  O   UNK N   1      36.090  49.725  41.985  0.00  0.00    -0.361 OA
HETATM   21  H   UNK N   1      35.249  49.849  42.447  0.00  0.00     0.217 HD
ENDBRANCH  15  20
ENDBRANCH   3   7
BRANCH   2  22
HETATM   22  O   UNK N   1      37.988  45.173  49.367  0.00  0.00    -0.358 OA
HETATM   23  H   UNK N   1      37.132  45.557  49.127  0.00  0.00     0.218 HD
ENDBRANCH   2  22
BRANCH   4  24
HETATM   24  C   UNK N   1      42.253  43.192  47.763  0.00  0.00     0.068 C 
BRANCH  24  25
HETATM   25  C   UNK N   1      42.986  43.148  46.441  0.00  0.00    -0.020 C 
HETATM   26  C   UNK N   1      43.364  42.039  45.755  0.00  0.00    -0.091 C 
HETATM   27  C   UNK N   1      44.110  42.204  44.454  0.00  0.00     0.042 C 
HETATM   28  C   UNK N   1      43.089  40.621  46.201  0.00  0.00     0.042 C 
ENDBRANCH  24  25
ENDBRANCH   4  24
BRANCH   1  29
HETATM   29  O   UNK N   1      40.057  43.206  49.578  0.00  0.00    -0.353 OA
HETATM   30  C   UNK N   1      40.426  43.346  50.900  0.00  0.00     0.210 C 
ENDBRANCH   1  29
TORSDOF 7
ENDMDL
MODEL 9
REMARK VINA RESULT:      -5.6     19.097     22.684
REMARK  7 active torsions:
REMARK  status: ('A' for Active; 'I' for Inactive)
REMARK    1  A    between atoms: O_2  and  C_8 
REMARK    2  A    between atoms: O_3  and  C_9 
REMARK    3  A    between atoms: O_4  and  C_10 
REMARK    4  A    between atoms: O_5  and  C_11 
REMARK    5  A    between atoms: C_12  and  C_19 
REMARK    6  A    between atoms: C_14  and  C_22 
REMARK    7  A    between atoms: C_22  and  C_25 
ROOT
HETATM    1  C   UNK N   1      33.753  44.340  65.397  0.00  0.00     0.107 A 
HETATM    2  C   UNK N   1      32.486  43.764  65.097  0.00  0.00     0.100 A 
HETATM    3  C   UNK N   1      33.091  43.626  62.743  0.00  0.00    -0.025 A 
HETATM    4  C   UNK N   1      34.675  44.555  64.344  0.00  0.00    -0.018 A 
HETATM    5  C   UNK N   1      32.172  43.419  63.778  0.00  0.00     0.049 A 
HETATM    6  C   UNK N   1      34.335  44.200  63.030  0.00  0.00     0.020 A 
ENDROOT
BRANCH   3   7
HETATM    7  C   UNK N   1      32.748  43.237  61.328  0.00  0.00     0.169 C 
HETATM    8  O   UNK N   1      31.718  44.036  60.840  0.00  0.00    -0.340 OA
HETATM    9  C   UNK N   1      31.326  43.986  59.542  0.00  0.00     0.089 A 
HETATM   10  C   UNK N   1      32.183  43.440  58.566  0.00  0.00     0.076 A 
HETATM   11  C   UNK N   1      30.061  44.462  59.183  0.00  0.00     0.074 A 
HETATM   12  C   UNK N   1      31.739  43.326  57.232  0.00  0.00     0.085 A 
HETATM   13  C   UNK N   1      33.535  43.002  59.009  0.00  0.00     0.167 C 
HETATM   14  C   UNK N   1      30.458  43.789  56.889  0.00  0.00     0.074 A 
HETATM   15  C   UNK N   1      29.624  44.363  57.860  0.00  0.00     0.071 A 
HETATM   16  O   UNK N   1      34.287  42.396  58.262  0.00  0.00    -0.292 OA
HETATM   17  C   UNK N   1      33.972  43.342  60.410  0.00  0.00     0.121 C 
BRANCH  12  18
HETATM   18  O   UNK N   1      32.535  42.781  56.289  0.00  0.00    -0.360 OA
HETATM   19  H   UNK N   1      32.972  43.321  55.616  0.00  0.00     0.217 HD
ENDBRANCH  12  18
BRANCH  15  20
HETATM   20  O   UNK N   1      28.395  44.814  57.533  0.00  0.00    -0.361 OA
HETATM   21  H   UNK N   1      27.990  44.614  56.678  0.00  0.00     0.217 HD
ENDBRANCH  15  20
ENDBRANCH   3   7
BRANCH   2  22
HETATM   22  O   UNK N   1      31.572  43.542  66.064  0.00  0.00    -0.358 OA
HETATM   23  H   UNK N   1      30.625  43.473  65.871  0.00  0.00     0.218 HD
ENDBRANCH   2  22
BRANCH   4  24
HETATM   24  C   UNK N   1      36.032  45.170  64.602  0.00  0.00     0.068 C 
BRANCH  24  25
HETATM   25  C   UNK N   1      36.277  46.301  63.628  0.00  0.00    -0.020 C 
HETATM   26  C   UNK N   1      37.276  46.386  62.712  0.00  0.00    -0.091 C 
HETATM   27  C   UNK N   1      37.363  47.614  61.839  0.00  0.00     0.042 C 
HETATM   28  C   UNK N   1      38.329  45.325  62.492  0.00  0.00     0.042 C 
ENDBRANCH  24  25
ENDBRANCH   4  24
BRANCH   1  29
HETATM   29  O   UNK N   1      34.117  44.708  66.660  0.00  0.00    -0.353 OA
HETATM   30  C   UNK N   1      33.749  45.855  67.332  0.00  0.00     0.210 C 
ENDBRANCH   1  29
TORSDOF 7
ENDMDL
