MODEL 1
REMARK VINA RESULT:      -5.9      0.000      0.000
REMARK  3 active torsions:
REMARK  status: ('A' for Active; 'I' for Inactive)
REMARK    1  A    between atoms: O_1  and  C_7 
REMARK    2  A    between atoms: O_1  and  C_15 
REMARK    3  A    between atoms: C_11  and  C_14 
ROOT
HETATM    1  O   UNK N   1      22.381  45.296  49.261  0.00  0.00    -0.260 OA
HETATM    2  O   UNK N   1      23.064  43.191  49.471  0.00  0.00    -0.307 OA
HETATM    3  C   UNK N   1      26.515  40.490  52.098  0.00  0.00     0.145 C 
HETATM    4  C   UNK N   1      25.882  41.083  53.423  0.00  0.00     0.011 C 
HETATM    5  C   UNK N   1      24.594  42.954  51.986  0.00  0.00    -0.015 C 
HETATM    6  C   UNK N   1      25.625  42.611  53.162  0.00  0.00     0.013 C 
HETATM    7  C   UNK N   1      28.147  41.490  56.574  0.00  0.00     0.008 C 
HETATM    8  C   UNK N   1      26.781  41.818  55.862  0.00  0.00    -0.016 C 
HETATM    9  C   UNK N   1      24.643  41.853  50.843  0.00  0.00     0.035 C 
HETATM   10  C   UNK N   1      23.175  44.517  49.759  0.00  0.00     0.283 C 
HETATM   11  C   UNK N   1      24.117  42.283  49.407  0.00  0.00     0.068 C 
HETATM   12  C   UNK N   1      26.844  40.938  54.636  0.00  0.00    -0.064 C 
HETATM   13  C   UNK N   1      26.040  41.188  50.782  0.00  0.00     0.042 C 
HETATM   14  C   UNK N   1      24.963  44.362  51.492  0.00  0.00    -0.011 C 
HETATM   15  C   UNK N   1      25.364  43.421  54.470  0.00  0.00     0.008 C 
HETATM   16  C   UNK N   1      28.391  40.016  56.140  0.00  0.00     0.033 C 
HETATM   17  C   UNK N   1      26.556  43.277  55.428  0.00  0.00     0.014 C 
HETATM   18  C   UNK N   1      24.608  40.270  53.789  0.00  0.00     0.023 C 
HETATM   19  C   UNK N   1      23.138  43.026  52.554  0.00  0.00     0.020 C 
HETATM   20  C   UNK N   1      25.651  41.361  56.828  0.00  0.00     0.020 C 
HETATM   21  C   UNK N   1      24.295  45.058  50.557  0.00  0.00     0.079 C 
HETATM   22  C   UNK N   1      27.703  39.936  54.823  0.00  0.00    -0.022 C 
HETATM   23  C   UNK N   1      25.229  42.856  48.479  0.00  0.00     0.047 C 
HETATM   24  C   UNK N   1      23.551  41.037  48.690  0.00  0.00     0.047 C 
ENDROOT
BRANCH   7  25
HETATM   25  C   UNK N   1      29.380  42.394  56.198  0.00  0.00     0.025 C 
HETATM   26  C   UNK N   1      30.391  41.703  55.243  0.00  0.00     0.184 C 
HETATM   27  O   UNK N   1      31.562  42.394  55.435  0.00  0.00    -0.321 OA
HETATM   28  C   UNK N   1      31.580  42.962  56.642  0.00  0.00     0.259 C 
HETATM   29  O   UNK N   1      32.596  43.427  57.132  0.00  0.00    -0.265 OA
HETATM   30  C   UNK N   1      30.308  42.809  57.375  0.00  0.00     0.118 C 
ENDBRANCH   7  25
BRANCH   3  31
HETATM   31  O   UNK N   1      27.899  40.604  52.134  0.00  0.00    -0.315 OA
BRANCH  31  32
HETATM   32  C   UNK N   1      28.628  41.473  51.387  0.00  0.00     0.255 C 
HETATM   33  O   UNK N   1      29.082  41.140  50.301  0.00  0.00    -0.266 OA
HETATM   34  C   UNK N   1      28.903  42.840  51.924  0.00  0.00     0.126 C 
ENDBRANCH  31  32
ENDBRANCH   3  31
TORSDOF 3
ENDMDL
MODEL 2
REMARK VINA RESULT:      -5.8      7.121     10.814
REMARK  3 active torsions:
REMARK  status: ('A' for Active; 'I' for Inactive)
REMARK    1  A    between atoms: O_1  and  C_7 
REMARK    2  A    between atoms: O_1  and  C_15 
REMARK    3  A    between atoms: C_11  and  C_14 
ROOT
HETATM    1  O   UNK N   1      26.577  46.615  58.870  0.00  0.00    -0.260 OA
HETATM    2  O   UNK N   1      27.637  44.752  59.460  0.00  0.00    -0.307 OA
HETATM    3  C   UNK N   1      32.187  43.304  61.278  0.00  0.00     0.145 C 
HETATM    4  C   UNK N   1      31.959  44.308  62.481  0.00  0.00     0.011 C 
HETATM    5  C   UNK N   1      29.957  45.490  61.132  0.00  0.00    -0.015 C 
HETATM    6  C   UNK N   1      31.372  45.630  61.867  0.00  0.00     0.013 C 
HETATM    7  C   UNK N   1      35.067  45.902  64.220  0.00  0.00     0.008 C 
HETATM    8  C   UNK N   1      33.504  45.901  64.020  0.00  0.00    -0.016 C 
HETATM    9  C   UNK N   1      29.795  44.055  60.472  0.00  0.00     0.035 C 
HETATM   10  C   UNK N   1      27.614  46.097  59.246  0.00  0.00     0.283 C 
HETATM   11  C   UNK N   1      28.742  43.923  59.290  0.00  0.00     0.068 C 
HETATM   12  C   UNK N   1      33.290  44.643  63.213  0.00  0.00    -0.064 C 
HETATM   13  C   UNK N   1      31.177  43.466  60.096  0.00  0.00     0.042 C 
HETATM   14  C   UNK N   1      29.888  46.641  60.115  0.00  0.00    -0.011 C 
HETATM   15  C   UNK N   1      31.445  46.844  62.845  0.00  0.00     0.008 C 
HETATM   16  C   UNK N   1      35.393  44.381  64.218  0.00  0.00     0.033 C 
HETATM   17  C   UNK N   1      32.900  47.098  63.266  0.00  0.00     0.014 C 
HETATM   18  C   UNK N   1      31.046  43.633  63.545  0.00  0.00     0.023 C 
HETATM   19  C   UNK N   1      28.796  45.706  62.159  0.00  0.00     0.020 C 
HETATM   20  C   UNK N   1      32.872  45.778  65.436  0.00  0.00     0.020 C 
HETATM   21  C   UNK N   1      28.831  46.930  59.339  0.00  0.00     0.079 C 
HETATM   22  C   UNK N   1      34.317  43.808  63.364  0.00  0.00    -0.022 C 
HETATM   23  C   UNK N   1      29.351  44.167  57.878  0.00  0.00     0.047 C 
HETATM   24  C   UNK N   1      28.183  42.482  59.280  0.00  0.00     0.047 C 
ENDROOT
BRANCH   7  25
HETATM   25  C   UNK N   1      35.922  46.657  63.136  0.00  0.00     0.025 C 
HETATM   26  C   UNK N   1      36.792  45.713  62.260  0.00  0.00     0.184 C 
HETATM   27  O   UNK N   1      37.780  46.528  61.766  0.00  0.00    -0.321 OA
HETATM   28  C   UNK N   1      37.970  47.576  62.570  0.00  0.00     0.259 C 
HETATM   29  O   UNK N   1      38.942  48.308  62.473  0.00  0.00    -0.265 OA
HETATM   30  C   UNK N   1      36.995  47.644  63.676  0.00  0.00     0.118 C 
ENDBRANCH   7  25
BRANCH   3  31
HETATM   31  O   UNK N   1      33.458  43.476  60.744  0.00  0.00    -0.315 OA
BRANCH  31  32
HETATM   32  C   UNK N   1      33.988  42.730  59.741  0.00  0.00     0.255 C 
HETATM   33  O   UNK N   1      34.442  43.260  58.736  0.00  0.00    -0.266 OA
HETATM   34  C   UNK N   1      33.981  41.240  59.861  0.00  0.00     0.126 C 
ENDBRANCH  31  32
ENDBRANCH   3  31
TORSDOF 3
ENDMDL
MODEL 3
REMARK VINA RESULT:      -5.8      8.090     12.711
REMARK  3 active torsions:
REMARK  status: ('A' for Active; 'I' for Inactive)
REMARK    1  A    between atoms: O_1  and  C_7 
REMARK    2  A    between atoms: O_1  and  C_15 
REMARK    3  A    between atoms: C_11  and  C_14 
ROOT
HETATM    1  O   UNK N   1      29.951  41.796  58.261  0.00  0.00    -0.260 OA
HETATM    2  O   UNK N   1      31.804  41.552  59.464  0.00  0.00    -0.307 OA
HETATM    3  C   UNK N   1      34.845  44.334  62.484  0.00  0.00     0.145 C 
HETATM    4  C   UNK N   1      33.567  44.676  63.354  0.00  0.00     0.011 C 
HETATM    5  C   UNK N   1      31.970  43.792  61.382  0.00  0.00    -0.015 C 
HETATM    6  C   UNK N   1      32.402  44.993  62.350  0.00  0.00     0.013 C 
HETATM    7  C   UNK N   1      33.469  48.051  65.311  0.00  0.00     0.008 C 
HETATM    8  C   UNK N   1      32.685  46.788  64.789  0.00  0.00    -0.016 C 
HETATM    9  C   UNK N   1      33.209  42.859  61.041  0.00  0.00     0.035 C 
HETATM   10  C   UNK N   1      30.804  42.323  58.955  0.00  0.00     0.283 C 
HETATM   11  C   UNK N   1      33.104  41.978  59.723  0.00  0.00     0.068 C 
HETATM   12  C   UNK N   1      33.801  45.921  64.258  0.00  0.00    -0.064 C 
HETATM   13  C   UNK N   1      34.533  43.659  61.109  0.00  0.00     0.042 C 
HETATM   14  C   UNK N   1      31.342  44.449  60.142  0.00  0.00    -0.011 C 
HETATM   15  C   UNK N   1      31.191  45.711  63.023  0.00  0.00     0.008 C 
HETATM   16  C   UNK N   1      34.838  47.435  65.720  0.00  0.00     0.033 C 
HETATM   17  C   UNK N   1      31.650  47.023  63.675  0.00  0.00     0.014 C 
HETATM   18  C   UNK N   1      33.278  43.494  64.324  0.00  0.00     0.023 C 
HETATM   19  C   UNK N   1      30.859  42.927  62.063  0.00  0.00     0.020 C 
HETATM   20  C   UNK N   1      32.007  46.138  66.029  0.00  0.00     0.020 C 
HETATM   21  C   UNK N   1      30.781  43.791  59.114  0.00  0.00     0.079 C 
HETATM   22  C   UNK N   1      34.965  46.265  64.807  0.00  0.00    -0.022 C 
HETATM   23  C   UNK N   1      33.674  42.680  58.454  0.00  0.00     0.047 C 
HETATM   24  C   UNK N   1      33.934  40.689  59.918  0.00  0.00     0.047 C 
ENDROOT
BRANCH   7  25
HETATM   25  C   UNK N   1      33.671  49.233  64.292  0.00  0.00     0.025 C 
HETATM   26  C   UNK N   1      34.990  50.024  64.509  0.00  0.00     0.184 C 
HETATM   27  O   UNK N   1      34.756  51.239  63.913  0.00  0.00    -0.321 OA
HETATM   28  C   UNK N   1      33.448  51.499  63.875  0.00  0.00     0.259 C 
HETATM   29  O   UNK N   1      33.008  52.607  63.612  0.00  0.00    -0.265 OA
HETATM   30  C   UNK N   1      32.618  50.376  64.352  0.00  0.00     0.118 C 
ENDBRANCH   7  25
BRANCH   3  31
HETATM   31  O   UNK N   1      35.561  45.492  62.207  0.00  0.00    -0.315 OA
BRANCH  31  32
HETATM   32  C   UNK N   1      36.915  45.571  62.132  0.00  0.00     0.255 C 
HETATM   33  O   UNK N   1      37.603  44.560  62.111  0.00  0.00    -0.266 OA
HETATM   34  C   UNK N   1      37.564  46.917  62.110  0.00  0.00     0.126 C 
ENDBRANCH  31  32
ENDBRANCH   3  31
TORSDOF 3
ENDMDL
MODEL 4
REMARK VINA RESULT:      -5.7      9.482     15.240
REMARK  3 active torsions:
REMARK  status: ('A' for Active; 'I' for Inactive)
REMARK    1  A    between atoms: O_1  and  C_7 
REMARK    2  A    between atoms: O_1  and  C_15 
REMARK    3  A    between atoms: C_11  and  C_14 
ROOT
HETATM    1  O   UNK N   1      38.839  44.268  63.669  0.00  0.00    -0.260 OA
HETATM    2  O   UNK N   1      37.990  46.043  64.702  0.00  0.00    -0.307 OA
HETATM    3  C   UNK N   1      33.957  49.161  64.348  0.00  0.00     0.145 C 
HETATM    4  C   UNK N   1      33.033  47.878  64.434  0.00  0.00     0.011 C 
HETATM    5  C   UNK N   1      35.151  46.302  63.929  0.00  0.00    -0.015 C 
HETATM    6  C   UNK N   1      33.682  46.784  63.512  0.00  0.00     0.013 C 
HETATM    7  C   UNK N   1      29.529  47.960  62.721  0.00  0.00     0.008 C 
HETATM    8  C   UNK N   1      30.659  47.103  63.406  0.00  0.00    -0.016 C 
HETATM    9  C   UNK N   1      35.964  47.478  64.621  0.00  0.00     0.035 C 
HETATM   10  C   UNK N   1      37.976  45.128  63.694  0.00  0.00     0.283 C 
HETATM   11  C   UNK N   1      37.548  47.360  64.609  0.00  0.00     0.068 C 
HETATM   12  C   UNK N   1      31.592  48.169  63.927  0.00  0.00    -0.064 C 
HETATM   13  C   UNK N   1      35.473  48.856  64.115  0.00  0.00     0.042 C 
HETATM   14  C   UNK N   1      35.810  45.780  62.642  0.00  0.00    -0.011 C 
HETATM   15  C   UNK N   1      32.713  45.606  63.184  0.00  0.00     0.008 C 
HETATM   16  C   UNK N   1      29.544  49.258  63.578  0.00  0.00     0.033 C 
HETATM   17  C   UNK N   1      31.445  46.138  62.501  0.00  0.00     0.014 C 
HETATM   18  C   UNK N   1      32.883  47.456  65.924  0.00  0.00     0.023 C 
HETATM   19  C   UNK N   1      35.058  45.099  64.925  0.00  0.00     0.020 C 
HETATM   20  C   UNK N   1      29.985  46.324  64.571  0.00  0.00     0.020 C 
HETATM   21  C   UNK N   1      37.026  45.214  62.566  0.00  0.00     0.079 C 
HETATM   22  C   UNK N   1      30.953  49.333  64.050  0.00  0.00    -0.022 C 
HETATM   23  C   UNK N   1      38.216  48.036  63.375  0.00  0.00     0.047 C 
HETATM   24  C   UNK N   1      38.110  48.077  65.857  0.00  0.00     0.047 C 
ENDROOT
BRANCH   7  25
HETATM   25  C   UNK N   1      29.719  48.297  61.195  0.00  0.00     0.025 C 
HETATM   26  C   UNK N   1      29.196  49.705  60.798  0.00  0.00     0.184 C 
HETATM   27  O   UNK N   1      28.986  49.617  59.444  0.00  0.00    -0.321 OA
HETATM   28  C   UNK N   1      28.772  48.350  59.084  0.00  0.00     0.259 C 
HETATM   29  O   UNK N   1      28.333  48.047  57.986  0.00  0.00    -0.265 OA
HETATM   30  C   UNK N   1      28.948  47.392  60.193  0.00  0.00     0.118 C 
ENDBRANCH   7  25
BRANCH   3  31
HETATM   31  O   UNK N   1      33.549  49.976  63.300  0.00  0.00    -0.315 OA
BRANCH  31  32
HETATM   32  C   UNK N   1      33.869  51.289  63.164  0.00  0.00     0.255 C 
HETATM   33  O   UNK N   1      34.558  51.674  62.229  0.00  0.00    -0.266 OA
HETATM   34  C   UNK N   1      33.399  52.263  64.195  0.00  0.00     0.126 C 
ENDBRANCH  31  32
ENDBRANCH   3  31
TORSDOF 3
ENDMDL
MODEL 5
REMARK VINA RESULT:      -5.4     21.663     23.978
REMARK  3 active torsions:
REMARK  status: ('A' for Active; 'I' for Inactive)
REMARK    1  A    between atoms: O_1  and  C_7 
REMARK    2  A    between atoms: O_1  and  C_15 
REMARK    3  A    between atoms: C_11  and  C_14 
ROOT
HETATM    1  O   UNK N   1      43.236  60.680  57.634  0.00  0.00    -0.260 OA
HETATM    2  O   UNK N   1      42.661  60.341  59.754  0.00  0.00    -0.307 OA
HETATM    3  C   UNK N   1      42.655  56.570  63.202  0.00  0.00     0.145 C 
HETATM    4  C   UNK N   1      44.206  56.403  62.934  0.00  0.00     0.011 C 
HETATM    5  C   UNK N   1      43.993  57.879  60.698  0.00  0.00    -0.015 C 
HETATM    6  C   UNK N   1      44.414  56.493  61.379  0.00  0.00     0.013 C 
HETATM    7  C   UNK N   1      45.843  52.899  63.454  0.00  0.00     0.008 C 
HETATM    8  C   UNK N   1      45.977  54.363  62.888  0.00  0.00    -0.016 C 
HETATM    9  C   UNK N   1      42.782  58.553  61.473  0.00  0.00     0.035 C 
HETATM   10  C   UNK N   1      43.113  59.888  58.552  0.00  0.00     0.283 C 
HETATM   11  C   UNK N   1      41.909  59.607  60.666  0.00  0.00     0.068 C 
HETATM   12  C   UNK N   1      44.733  55.026  63.430  0.00  0.00    -0.064 C 
HETATM   13  C   UNK N   1      41.911  57.478  62.169  0.00  0.00     0.042 C 
HETATM   14  C   UNK N   1      43.671  57.553  59.230  0.00  0.00    -0.011 C 
HETATM   15  C   UNK N   1      45.811  55.975  60.916  0.00  0.00     0.008 C 
HETATM   16  C   UNK N   1      45.063  53.136  64.779  0.00  0.00     0.033 C 
HETATM   17  C   UNK N   1      46.008  54.517  61.357  0.00  0.00     0.014 C 
HETATM   18  C   UNK N   1      44.984  57.476  63.749  0.00  0.00     0.023 C 
HETATM   19  C   UNK N   1      45.205  58.868  60.700  0.00  0.00     0.020 C 
HETATM   20  C   UNK N   1      47.261  54.971  63.519  0.00  0.00     0.020 C 
HETATM   21  C   UNK N   1      43.345  58.453  58.287  0.00  0.00     0.079 C 
HETATM   22  C   UNK N   1      44.269  54.361  64.488  0.00  0.00    -0.022 C 
HETATM   23  C   UNK N   1      40.688  58.977  59.932  0.00  0.00     0.047 C 
HETATM   24  C   UNK N   1      41.333  60.641  61.660  0.00  0.00     0.047 C 
ENDROOT
BRANCH   7  25
HETATM   25  C   UNK N   1      45.096  51.852  62.546  0.00  0.00     0.025 C 
HETATM   26  C   UNK N   1      44.133  50.920  63.333  0.00  0.00     0.184 C 
HETATM   27  O   UNK N   1      43.986  49.824  62.519  0.00  0.00    -0.321 OA
HETATM   28  C   UNK N   1      45.040  49.693  61.712  0.00  0.00     0.259 C 
HETATM   29  O   UNK N   1      45.252  48.677  61.070  0.00  0.00    -0.265 OA
HETATM   30  C   UNK N   1      45.996  50.814  61.817  0.00  0.00     0.118 C 
ENDBRANCH   7  25
BRANCH   3  31
HETATM   31  O   UNK N   1      42.026  55.331  63.169  0.00  0.00    -0.315 OA
BRANCH  31  32
HETATM   32  C   UNK N   1      40.742  55.099  63.546  0.00  0.00     0.255 C 
HETATM   33  O   UNK N   1      39.924  54.657  62.751  0.00  0.00    -0.266 OA
HETATM   34  C   UNK N   1      40.325  55.424  64.943  0.00  0.00     0.126 C 
ENDBRANCH  31  32
ENDBRANCH   3  31
TORSDOF 3
ENDMDL
MODEL 6
REMARK VINA RESULT:      -5.4     14.136     18.339
REMARK  3 active torsions:
REMARK  status: ('A' for Active; 'I' for Inactive)
REMARK    1  A    between atoms: O_1  and  C_7 
REMARK    2  A    between atoms: O_1  and  C_15 
REMARK    3  A    between atoms: C_11  and  C_14 
ROOT
HETATM    1  O   UNK N   1      33.855  53.193  45.902  0.00  0.00    -0.260 OA
HETATM    2  O   UNK N   1      33.266  52.453  43.891  0.00  0.00    -0.307 OA
HETATM    3  C   UNK N   1      29.414  52.935  40.569  0.00  0.00     0.145 C 
HETATM    4  C   UNK N   1      29.642  54.501  40.624  0.00  0.00     0.011 C 
HETATM    5  C   UNK N   1      31.148  54.218  42.831  0.00  0.00    -0.015 C 
HETATM    6  C   UNK N   1      29.868  54.877  42.132  0.00  0.00     0.013 C 
HETATM    7  C   UNK N   1      26.612  56.870  39.967  0.00  0.00     0.008 C 
HETATM    8  C   UNK N   1      28.095  56.710  40.473  0.00  0.00    -0.016 C 
HETATM    9  C   UNK N   1      31.464  52.789  42.215  0.00  0.00     0.035 C 
HETATM   10  C   UNK N   1      33.005  53.153  45.029  0.00  0.00     0.283 C 
HETATM   11  C   UNK N   1      32.321  51.794  43.109  0.00  0.00     0.068 C 
HETATM   12  C   UNK N   1      28.407  55.283  40.092  0.00  0.00    -0.064 C 
HETATM   13  C   UNK N   1      30.174  52.129  41.672  0.00  0.00     0.042 C 
HETATM   14  C   UNK N   1      30.839  54.178  44.337  0.00  0.00    -0.011 C 
HETATM   15  C   UNK N   1      29.729  56.407  42.409  0.00  0.00     0.008 C 
HETATM   16  C   UNK N   1      26.577  55.893  38.757  0.00  0.00     0.033 C 
HETATM   17  C   UNK N   1      28.339  56.899  41.980  0.00  0.00     0.014 C 
HETATM   18  C   UNK N   1      30.822  54.878  39.683  0.00  0.00     0.023 C 
HETATM   19  C   UNK N   1      32.398  55.139  42.638  0.00  0.00     0.020 C 
HETATM   20  C   UNK N   1      28.958  57.714  39.656  0.00  0.00     0.020 C 
HETATM   21  C   UNK N   1      31.686  53.764  45.293  0.00  0.00     0.079 C 
HETATM   22  C   UNK N   1      27.590  54.866  39.125  0.00  0.00    -0.022 C 
HETATM   23  C   UNK N   1      31.458  50.871  44.020  0.00  0.00     0.047 C 
HETATM   24  C   UNK N   1      33.128  50.859  42.180  0.00  0.00     0.047 C 
ENDROOT
BRANCH   7  25
HETATM   25  C   UNK N   1      25.470  56.528  40.993  0.00  0.00     0.025 C 
HETATM   26  C   UNK N   1      24.263  55.784  40.358  0.00  0.00     0.184 C 
HETATM   27  O   UNK N   1      23.226  56.020  41.227  0.00  0.00    -0.321 OA
HETATM   28  C   UNK N   1      23.437  57.142  41.916  0.00  0.00     0.259 C 
HETATM   29  O   UNK N   1      22.561  57.683  42.571  0.00  0.00    -0.265 OA
HETATM   30  C   UNK N   1      24.762  57.742  41.659  0.00  0.00     0.118 C 
ENDBRANCH   7  25
BRANCH   3  31
HETATM   31  O   UNK N   1      28.064  52.641  40.718  0.00  0.00    -0.315 OA
BRANCH  31  32
HETATM   32  C   UNK N   1      27.437  51.564  40.178  0.00  0.00     0.255 C 
HETATM   33  O   UNK N   1      27.804  51.094  39.109  0.00  0.00    -0.266 OA
HETATM   34  C   UNK N   1      26.264  50.974  40.890  0.00  0.00     0.126 C 
ENDBRANCH  31  32
ENDBRANCH   3  31
TORSDOF 3
ENDMDL
MODEL 7
REMARK VINA RESULT:      -5.2      4.607      8.712
REMARK  3 active torsions:
REMARK  status: ('A' for Active; 'I' for Inactive)
REMARK    1  A    between atoms: O_1  and  C_7 
REMARK    2  A    between atoms: O_1  and  C_15 
REMARK    3  A    between atoms: C_11  and  C_14 
ROOT
HETATM    1  O   UNK N   1      32.938  43.860  61.974  0.00  0.00    -0.260 OA
HETATM    2  O   UNK N   1      31.506  44.218  60.312  0.00  0.00    -0.307 OA
HETATM    3  C   UNK N   1      28.942  41.561  56.780  0.00  0.00     0.145 C 
HETATM    4  C   UNK N   1      28.338  40.693  57.958  0.00  0.00     0.011 C 
HETATM    5  C   UNK N   1      30.199  41.655  59.641  0.00  0.00    -0.015 C 
HETATM    6  C   UNK N   1      29.517  40.383  58.949  0.00  0.00     0.013 C 
HETATM    7  C   UNK N   1      27.306  36.999  57.240  0.00  0.00     0.008 C 
HETATM    8  C   UNK N   1      27.584  38.123  58.308  0.00  0.00    -0.016 C 
HETATM    9  C   UNK N   1      30.153  42.921  58.683  0.00  0.00     0.035 C 
HETATM   10  C   UNK N   1      32.303  43.392  61.045  0.00  0.00     0.283 C 
HETATM   11  C   UNK N   1      31.213  44.071  58.959  0.00  0.00     0.068 C 
HETATM   12  C   UNK N   1      27.751  39.348  57.442  0.00  0.00    -0.064 C 
HETATM   13  C   UNK N   1      30.133  42.484  57.198  0.00  0.00     0.042 C 
HETATM   14  C   UNK N   1      31.628  41.224  60.012  0.00  0.00    -0.011 C 
HETATM   15  C   UNK N   1      29.188  39.234  59.953  0.00  0.00     0.008 C 
HETATM   16  C   UNK N   1      26.602  37.800  56.106  0.00  0.00     0.033 C 
HETATM   17  C   UNK N   1      28.833  37.950  59.189  0.00  0.00     0.014 C 
HETATM   18  C   UNK N   1      27.145  41.460  58.598  0.00  0.00     0.023 C 
HETATM   19  C   UNK N   1      29.457  42.004  60.973  0.00  0.00     0.020 C 
HETATM   20  C   UNK N   1      26.309  38.226  59.192  0.00  0.00     0.020 C 
HETATM   21  C   UNK N   1      32.517  41.976  60.681  0.00  0.00     0.079 C 
HETATM   22  C   UNK N   1      27.174  39.166  56.254  0.00  0.00    -0.022 C 
HETATM   23  C   UNK N   1      32.542  43.901  58.164  0.00  0.00     0.047 C 
HETATM   24  C   UNK N   1      30.610  45.422  58.515  0.00  0.00     0.047 C 
ENDROOT
BRANCH   7  25
HETATM   25  C   UNK N   1      28.556  36.224  56.681  0.00  0.00     0.025 C 
HETATM   26  C   UNK N   1      28.518  36.003  55.144  0.00  0.00     0.184 C 
HETATM   27  O   UNK N   1      29.361  34.940  54.935  0.00  0.00    -0.321 OA
HETATM   28  C   UNK N   1      29.452  34.190  56.034  0.00  0.00     0.259 C 
HETATM   29  O   UNK N   1      29.947  33.074  56.027  0.00  0.00    -0.265 OA
HETATM   30  C   UNK N   1      28.743  34.767  57.193  0.00  0.00     0.118 C 
ENDBRANCH   7  25
BRANCH   3  31
HETATM   31  O   UNK N   1      29.413  40.734  55.768  0.00  0.00    -0.315 OA
BRANCH  31  32
HETATM   32  C   UNK N   1      29.910  41.164  54.579  0.00  0.00     0.255 C 
HETATM   33  O   UNK N   1      31.115  41.164  54.365  0.00  0.00    -0.266 OA
HETATM   34  C   UNK N   1      28.966  41.675  53.539  0.00  0.00     0.126 C 
ENDBRANCH  31  32
ENDBRANCH   3  31
TORSDOF 3
ENDMDL
MODEL 8
REMARK VINA RESULT:      -5.1      2.698      4.043
REMARK  3 active torsions:
REMARK  status: ('A' for Active; 'I' for Inactive)
REMARK    1  A    between atoms: O_1  and  C_7 
REMARK    2  A    between atoms: O_1  and  C_15 
REMARK    3  A    between atoms: C_11  and  C_14 
ROOT
HETATM    1  O   UNK N   1      24.053  44.349  52.319  0.00  0.00    -0.260 OA
HETATM    2  O   UNK N   1      25.472  42.707  51.840  0.00  0.00    -0.307 OA
HETATM    3  C   UNK N   1      28.925  39.771  54.201  0.00  0.00     0.145 C 
HETATM    4  C   UNK N   1      27.783  39.344  55.211  0.00  0.00     0.011 C 
HETATM    5  C   UNK N   1      26.252  41.385  54.364  0.00  0.00    -0.015 C 
HETATM    6  C   UNK N   1      26.988  40.648  55.580  0.00  0.00     0.013 C 
HETATM    7  C   UNK N   1      28.768  38.315  58.844  0.00  0.00     0.008 C 
HETATM    8  C   UNK N   1      27.626  38.703  57.830  0.00  0.00    -0.016 C 
HETATM    9  C   UNK N   1      27.051  41.185  53.006  0.00  0.00     0.035 C 
HETATM   10  C   UNK N   1      24.941  43.610  52.709  0.00  0.00     0.283 C 
HETATM   11  C   UNK N   1      26.785  42.245  51.854  0.00  0.00     0.068 C 
HETATM   12  C   UNK N   1      28.366  38.728  56.514  0.00  0.00    -0.064 C 
HETATM   13  C   UNK N   1      28.561  40.984  53.284  0.00  0.00     0.042 C 
HETATM   14  C   UNK N   1      26.113  42.858  54.779  0.00  0.00    -0.011 C 
HETATM   15  C   UNK N   1      26.084  40.479  56.841  0.00  0.00     0.008 C 
HETATM   16  C   UNK N   1      29.709  37.452  57.955  0.00  0.00     0.033 C 
HETATM   17  C   UNK N   1      26.933  40.059  58.049  0.00  0.00     0.014 C 
HETATM   18  C   UNK N   1      26.917  38.226  54.561  0.00  0.00     0.023 C 
HETATM   19  C   UNK N   1      24.807  40.813  54.187  0.00  0.00     0.020 C 
HETATM   20  C   UNK N   1      26.583  37.550  57.870  0.00  0.00     0.020 C 
HETATM   21  C   UNK N   1      25.483  43.809  54.069  0.00  0.00     0.079 C 
HETATM   22  C   UNK N   1      29.484  38.007  56.591  0.00  0.00    -0.022 C 
HETATM   23  C   UNK N   1      27.755  43.463  51.888  0.00  0.00     0.047 C 
HETATM   24  C   UNK N   1      26.999  41.557  50.486  0.00  0.00     0.047 C 
ENDROOT
BRANCH   7  25
HETATM   25  C   UNK N   1      29.561  39.501  59.508  0.00  0.00     0.025 C 
HETATM   26  C   UNK N   1      31.030  39.145  59.868  0.00  0.00     0.184 C 
HETATM   27  O   UNK N   1      31.371  40.058  60.835  0.00  0.00    -0.321 OA
HETATM   28  C   UNK N   1      30.283  40.500  61.468  0.00  0.00     0.259 C 
HETATM   29  O   UNK N   1      30.343  41.130  62.511  0.00  0.00    -0.265 OA
HETATM   30  C   UNK N   1      29.024  40.000  60.880  0.00  0.00     0.118 C 
ENDBRANCH   7  25
BRANCH   3  31
HETATM   31  O   UNK N   1      30.073  40.127  54.897  0.00  0.00    -0.315 OA
BRANCH  31  32
HETATM   32  C   UNK N   1      30.571  41.387  54.984  0.00  0.00     0.255 C 
HETATM   33  O   UNK N   1      31.463  41.764  54.236  0.00  0.00    -0.266 OA
HETATM   34  C   UNK N   1      30.041  42.308  56.035  0.00  0.00     0.126 C 
ENDBRANCH  31  32
ENDBRANCH   3  31
TORSDOF 3
ENDMDL
MODEL 9
REMARK VINA RESULT:      -5.1      4.768      7.465
REMARK  3 active torsions:
REMARK  status: ('A' for Active; 'I' for Inactive)
REMARK    1  A    between atoms: O_1  and  C_7 
REMARK    2  A    between atoms: O_1  and  C_15 
REMARK    3  A    between atoms: C_11  and  C_14 
ROOT
HETATM    1  O   UNK N   1      25.748  38.098  55.596  0.00  0.00    -0.260 OA
HETATM    2  O   UNK N   1      27.426  38.556  56.980  0.00  0.00    -0.307 OA
HETATM    3  C   UNK N   1      30.057  42.602  58.658  0.00  0.00     0.145 C 
HETATM    4  C   UNK N   1      28.678  43.238  59.106  0.00  0.00     0.011 C 
HETATM    5  C   UNK N   1      27.349  41.440  57.614  0.00  0.00    -0.015 C 
HETATM    6  C   UNK N   1      27.655  42.977  57.942  0.00  0.00     0.013 C 
HETATM    7  C   UNK N   1      28.338  47.124  59.206  0.00  0.00     0.008 C 
HETATM    8  C   UNK N   1      27.624  45.720  59.256  0.00  0.00    -0.016 C 
HETATM    9  C   UNK N   1      28.618  40.530  57.903  0.00  0.00     0.035 C 
HETATM   10  C   UNK N   1      26.504  38.937  56.053  0.00  0.00     0.283 C 
HETATM   11  C   UNK N   1      28.682  39.129  57.157  0.00  0.00     0.068 C 
HETATM   12  C   UNK N   1      28.796  44.772  59.333  0.00  0.00    -0.064 C 
HETATM   13  C   UNK N   1      29.925  41.344  57.739  0.00  0.00     0.042 C 
HETATM   14  C   UNK N   1      26.891  41.400  56.147  0.00  0.00    -0.011 C 
HETATM   15  C   UNK N   1      26.369  43.855  58.048  0.00  0.00     0.008 C 
HETATM   16  C   UNK N   1      29.639  46.852  60.015  0.00  0.00     0.033 C 
HETATM   17  C   UNK N   1      26.745  45.345  58.050  0.00  0.00     0.014 C 
HETATM   18  C   UNK N   1      28.259  42.635  60.477  0.00  0.00     0.023 C 
HETATM   19  C   UNK N   1      26.155  40.933  58.488  0.00  0.00     0.020 C 
HETATM   20  C   UNK N   1      26.786  45.691  60.566  0.00  0.00     0.020 C 
HETATM   21  C   UNK N   1      26.467  40.305  55.495  0.00  0.00     0.079 C 
HETATM   22  C   UNK N   1      29.880  45.401  59.786  0.00  0.00    -0.022 C 
HETATM   23  C   UNK N   1      29.416  39.184  55.784  0.00  0.00     0.047 C 
HETATM   24  C   UNK N   1      29.474  38.133  58.034  0.00  0.00     0.047 C 
ENDROOT
BRANCH   7  25
HETATM   25  C   UNK N   1      28.677  47.698  57.780  0.00  0.00     0.025 C 
HETATM   26  C   UNK N   1      30.122  48.256  57.661  0.00  0.00     0.184 C 
HETATM   27  O   UNK N   1      30.063  49.119  56.594  0.00  0.00    -0.321 OA
HETATM   28  C   UNK N   1      28.818  49.567  56.422  0.00  0.00     0.259 C 
HETATM   29  O   UNK N   1      28.558  50.514  55.697  0.00  0.00    -0.265 OA
HETATM   30  C   UNK N   1      27.839  48.925  57.320  0.00  0.00     0.118 C 
ENDBRANCH   7  25
BRANCH   3  31
HETATM   31  O   UNK N   1      30.808  43.534  57.952  0.00  0.00    -0.315 OA
BRANCH  31  32
HETATM   32  C   UNK N   1      32.115  43.385  57.613  0.00  0.00     0.255 C 
HETATM   33  O   UNK N   1      32.471  43.447  56.444  0.00  0.00    -0.266 OA
HETATM   34  C   UNK N   1      33.117  43.108  58.686  0.00  0.00     0.126 C 
ENDBRANCH  31  32
ENDBRANCH   3  31
TORSDOF 3
ENDMDL
