MODEL 1
REMARK VINA RESULT:      -6.0      0.000      0.000
REMARK  3 active torsions:
REMARK  status: ('A' for Active; 'I' for Inactive)
REMARK    1  A    between atoms: O_1  and  C_6 
REMARK    2  A    between atoms: O_1  and  C_14 
REMARK    3  A    between atoms: C_10  and  C_13 
ROOT
HETATM    1  O   UNK N   1      49.372  35.560  54.601  0.00  0.00    -0.297 OA
HETATM    2  C   UNK N   1      50.765  30.833  51.265  0.00  0.00     0.145 C 
HETATM    3  C   UNK N   1      49.819  31.133  50.056  0.00  0.00     0.011 C 
HETATM    4  C   UNK N   1      48.334  32.702  51.693  0.00  0.00    -0.034 C 
HETATM    5  C   UNK N   1      49.100  32.514  50.316  0.00  0.00     0.009 C 
HETATM    6  C   UNK N   1      50.843  31.569  46.431  0.00  0.00     0.008 C 
HETATM    7  C   UNK N   1      50.388  32.338  47.714  0.00  0.00    -0.016 C 
HETATM    8  C   UNK N   1      49.255  32.271  52.916  0.00  0.00     0.012 C 
HETATM    9  C   UNK N   1      49.019  34.583  53.956  0.00  0.00     0.135 C 
HETATM   10  C   UNK N   1      50.622  31.252  48.740  0.00  0.00    -0.064 C 
HETATM   11  C   UNK N   1      50.019  30.934  52.624  0.00  0.00     0.040 C 
HETATM   12  C   UNK N   1      50.013  33.446  53.686  0.00  0.00     0.018 C 
HETATM   13  C   UNK N   1      47.897  34.205  51.830  0.00  0.00     0.017 C 
HETATM   14  C   UNK N   1      48.320  33.072  49.075  0.00  0.00     0.007 C 
HETATM   15  C   UNK N   1      51.996  30.679  46.929  0.00  0.00     0.033 C 
HETATM   16  C   UNK N   1      48.877  32.642  47.701  0.00  0.00     0.014 C 
HETATM   17  C   UNK N   1      48.854  29.933  49.834  0.00  0.00     0.023 C 
HETATM   18  C   UNK N   1      47.014  31.867  51.760  0.00  0.00     0.016 C 
HETATM   19  C   UNK N   1      51.270  33.590  47.963  0.00  0.00     0.020 C 
HETATM   20  C   UNK N   1      51.496  30.345  48.294  0.00  0.00    -0.022 C 
HETATM   21  C   UNK N   1      47.669  34.599  53.290  0.00  0.00     0.080 C 
HETATM   22  C   UNK N   1      50.535  32.932  55.053  0.00  0.00     0.023 C 
HETATM   23  C   UNK N   1      51.204  34.066  52.930  0.00  0.00     0.023 C 
ENDROOT
BRANCH   6  24
HETATM   24  C   UNK N   1      51.146  32.374  45.145  0.00  0.00     0.025 C 
HETATM   25  C   UNK N   1      50.577  31.793  43.836  0.00  0.00     0.184 C 
HETATM   26  O   UNK N   1      51.345  32.393  42.868  0.00  0.00    -0.321 OA
HETATM   27  C   UNK N   1      52.521  32.794  43.371  0.00  0.00     0.259 C 
HETATM   28  O   UNK N   1      53.444  33.155  42.663  0.00  0.00    -0.265 OA
HETATM   29  C   UNK N   1      52.639  32.555  44.830  0.00  0.00     0.118 C 
ENDBRANCH   6  24
BRANCH   2  30
HETATM   30  O   UNK N   1      51.865  31.677  51.249  0.00  0.00    -0.315 OA
BRANCH  30  31
HETATM   31  C   UNK N   1      53.148  31.282  51.499  0.00  0.00     0.255 C 
HETATM   32  O   UNK N   1      53.433  30.663  52.514  0.00  0.00    -0.266 OA
HETATM   33  C   UNK N   1      54.225  31.607  50.516  0.00  0.00     0.126 C 
ENDBRANCH  30  31
ENDBRANCH   2  30
TORSDOF 3
ENDMDL
MODEL 2
REMARK VINA RESULT:      -5.4     22.716     26.582
REMARK  3 active torsions:
REMARK  status: ('A' for Active; 'I' for Inactive)
REMARK    1  A    between atoms: O_1  and  C_6 
REMARK    2  A    between atoms: O_1  and  C_14 
REMARK    3  A    between atoms: C_10  and  C_13 
ROOT
HETATM    1  O   UNK N   1      29.505  39.417  63.231  0.00  0.00    -0.297 OA
HETATM    2  C   UNK N   1      30.568  42.573  58.300  0.00  0.00     0.145 C 
HETATM    3  C   UNK N   1      29.316  43.508  58.365  0.00  0.00     0.011 C 
HETATM    4  C   UNK N   1      28.117  41.679  59.967  0.00  0.00    -0.034 C 
HETATM    5  C   UNK N   1      28.524  43.188  59.693  0.00  0.00     0.009 C 
HETATM    6  C   UNK N   1      29.320  47.299  58.470  0.00  0.00     0.008 C 
HETATM    7  C   UNK N   1      29.117  46.014  59.337  0.00  0.00    -0.016 C 
HETATM    8  C   UNK N   1      29.365  40.713  59.772  0.00  0.00     0.012 C 
HETATM    9  C   UNK N   1      29.122  39.856  62.156  0.00  0.00     0.135 C 
HETATM   10  C   UNK N   1      29.736  44.996  58.405  0.00  0.00    -0.064 C 
HETATM   11  C   UNK N   1      30.187  41.080  58.488  0.00  0.00     0.040 C 
HETATM   12  C   UNK N   1      30.145  40.280  61.095  0.00  0.00     0.018 C 
HETATM   13  C   UNK N   1      27.549  41.564  61.428  0.00  0.00     0.017 C 
HETATM   14  C   UNK N   1      27.390  44.221  60.025  0.00  0.00     0.007 C 
HETATM   15  C   UNK N   1      30.661  47.050  57.757  0.00  0.00     0.033 C 
HETATM   16  C   UNK N   1      27.627  45.650  59.493  0.00  0.00     0.014 C 
HETATM   17  C   UNK N   1      28.480  43.358  57.062  0.00  0.00     0.023 C 
HETATM   18  C   UNK N   1      26.970  41.189  59.024  0.00  0.00     0.016 C 
HETATM   19  C   UNK N   1      29.873  46.120  60.687  0.00  0.00     0.020 C 
HETATM   20  C   UNK N   1      30.570  45.577  57.539  0.00  0.00    -0.022 C 
HETATM   21  C   UNK N   1      27.655  40.136  61.966  0.00  0.00     0.080 C 
HETATM   22  C   UNK N   1      31.058  39.062  60.796  0.00  0.00     0.023 C 
HETATM   23  C   UNK N   1      31.018  41.377  61.733  0.00  0.00     0.023 C 
ENDROOT
BRANCH   6  24
HETATM   24  C   UNK N   1      29.184  48.685  59.143  0.00  0.00     0.025 C 
HETATM   25  C   UNK N   1      27.769  49.068  59.619  0.00  0.00     0.184 C 
HETATM   26  O   UNK N   1      27.836  50.435  59.729  0.00  0.00    -0.321 OA
HETATM   27  C   UNK N   1      28.812  50.930  58.956  0.00  0.00     0.259 C 
HETATM   28  O   UNK N   1      28.922  52.121  58.726  0.00  0.00    -0.265 OA
HETATM   29  C   UNK N   1      29.594  49.877  58.264  0.00  0.00     0.118 C 
ENDBRANCH   6  24
BRANCH   2  30
HETATM   30  O   UNK N   1      31.516  42.957  59.237  0.00  0.00    -0.315 OA
BRANCH  30  31
HETATM   31  C   UNK N   1      32.863  42.977  59.013  0.00  0.00     0.255 C 
HETATM   32  O   UNK N   1      33.314  43.029  57.877  0.00  0.00    -0.266 OA
HETATM   33  C   UNK N   1      33.805  42.938  60.172  0.00  0.00     0.126 C 
ENDBRANCH  30  31
ENDBRANCH   2  30
TORSDOF 3
ENDMDL
MODEL 3
REMARK VINA RESULT:      -5.0     22.024     25.821
REMARK  3 active torsions:
REMARK  status: ('A' for Active; 'I' for Inactive)
REMARK    1  A    between atoms: O_1  and  C_6 
REMARK    2  A    between atoms: O_1  and  C_14 
REMARK    3  A    between atoms: C_10  and  C_13 
ROOT
HETATM    1  O   UNK N   1      24.989  44.559  52.569  0.00  0.00    -0.297 OA
HETATM    2  C   UNK N   1      27.003  40.855  56.768  0.00  0.00     0.145 C 
HETATM    3  C   UNK N   1      28.523  40.920  56.405  0.00  0.00     0.011 C 
HETATM    4  C   UNK N   1      27.826  41.765  53.925  0.00  0.00    -0.034 C 
HETATM    5  C   UNK N   1      28.711  41.956  55.229  0.00  0.00     0.009 C 
HETATM    6  C   UNK N   1      31.359  41.966  58.696  0.00  0.00     0.008 C 
HETATM    7  C   UNK N   1      30.467  42.432  57.499  0.00  0.00    -0.016 C 
HETATM    8  C   UNK N   1      26.295  41.568  54.306  0.00  0.00     0.012 C 
HETATM    9  C   UNK N   1      25.645  43.576  52.882  0.00  0.00     0.135 C 
HETATM   10  C   UNK N   1      29.361  41.406  57.610  0.00  0.00    -0.064 C 
HETATM   11  C   UNK N   1      26.120  40.591  55.518  0.00  0.00     0.040 C 
HETATM   12  C   UNK N   1      25.365  42.861  54.210  0.00  0.00     0.018 C 
HETATM   13  C   UNK N   1      28.011  43.021  52.998  0.00  0.00     0.017 C 
HETATM   14  C   UNK N   1      30.208  42.321  54.932  0.00  0.00     0.007 C 
HETATM   15  C   UNK N   1      30.340  41.473  59.739  0.00  0.00     0.033 C 
HETATM   16  C   UNK N   1      31.162  42.215  56.140  0.00  0.00     0.014 C 
HETATM   17  C   UNK N   1      29.051  39.489  56.096  0.00  0.00     0.023 C 
HETATM   18  C   UNK N   1      28.278  40.535  53.073  0.00  0.00     0.016 C 
HETATM   19  C   UNK N   1      29.955  43.882  57.709  0.00  0.00     0.020 C 
HETATM   20  C   UNK N   1      29.309  40.881  58.837  0.00  0.00    -0.022 C 
HETATM   21  C   UNK N   1      26.833  43.196  52.039  0.00  0.00     0.080 C 
HETATM   22  C   UNK N   1      23.872  42.442  54.223  0.00  0.00     0.023 C 
HETATM   23  C   UNK N   1      25.570  43.903  55.327  0.00  0.00     0.023 C 
ENDROOT
BRANCH   6  24
HETATM   24  C   UNK N   1      32.441  42.927  59.241  0.00  0.00     0.025 C 
HETATM   25  C   UNK N   1      33.876  42.683  58.736  0.00  0.00     0.184 C 
HETATM   26  O   UNK N   1      34.651  43.316  59.677  0.00  0.00    -0.321 OA
HETATM   27  C   UNK N   1      33.992  43.433  60.838  0.00  0.00     0.259 C 
HETATM   28  O   UNK N   1      34.545  43.764  61.872  0.00  0.00    -0.265 OA
HETATM   29  C   UNK N   1      32.600  42.925  60.769  0.00  0.00     0.118 C 
ENDBRANCH   6  24
BRANCH   2  30
HETATM   30  O   UNK N   1      26.602  42.016  57.412  0.00  0.00    -0.315 OA
BRANCH  30  31
HETATM   31  C   UNK N   1      25.855  42.050  58.554  0.00  0.00     0.255 C 
HETATM   32  O   UNK N   1      24.826  41.395  58.656  0.00  0.00    -0.266 OA
HETATM   33  C   UNK N   1      26.298  42.897  59.702  0.00  0.00     0.126 C 
ENDBRANCH  30  31
ENDBRANCH   2  30
TORSDOF 3
ENDMDL
MODEL 4
REMARK VINA RESULT:      -4.9     23.442     25.636
REMARK  3 active torsions:
REMARK  status: ('A' for Active; 'I' for Inactive)
REMARK    1  A    between atoms: O_1  and  C_6 
REMARK    2  A    between atoms: O_1  and  C_14 
REMARK    3  A    between atoms: C_10  and  C_13 
ROOT
HETATM    1  O   UNK N   1      27.060  46.305  62.917  0.00  0.00    -0.297 OA
HETATM    2  C   UNK N   1      30.994  43.790  59.228  0.00  0.00     0.145 C 
HETATM    3  C   UNK N   1      30.224  42.453  58.966  0.00  0.00     0.011 C 
HETATM    4  C   UNK N   1      28.848  42.875  61.264  0.00  0.00    -0.034 C 
HETATM    5  C   UNK N   1      28.836  42.523  59.716  0.00  0.00     0.009 C 
HETATM    6  C   UNK N   1      29.115  41.097  55.603  0.00  0.00     0.008 C 
HETATM    7  C   UNK N   1      28.613  41.797  56.908  0.00  0.00    -0.016 C 
HETATM    8  C   UNK N   1      29.740  44.161  61.544  0.00  0.00     0.012 C 
HETATM    9  C   UNK N   1      27.758  45.349  62.611  0.00  0.00     0.135 C 
HETATM   10  C   UNK N   1      29.944  42.261  57.458  0.00  0.00    -0.064 C 
HETATM   11  C   UNK N   1      31.087  44.118  60.743  0.00  0.00     0.040 C 
HETATM   12  C   UNK N   1      28.966  45.548  61.686  0.00  0.00     0.018 C 
HETATM   13  C   UNK N   1      27.369  43.110  61.741  0.00  0.00     0.017 C 
HETATM   14  C   UNK N   1      27.847  41.366  59.336  0.00  0.00     0.007 C 
HETATM   15  C   UNK N   1      30.310  41.962  55.162  0.00  0.00     0.033 C 
HETATM   16  C   UNK N   1      28.024  40.790  57.915  0.00  0.00     0.014 C 
HETATM   17  C   UNK N   1      31.118  41.246  59.370  0.00  0.00     0.023 C 
HETATM   18  C   UNK N   1      29.397  41.701  62.138  0.00  0.00     0.016 C 
HETATM   19  C   UNK N   1      27.661  42.978  56.583  0.00  0.00     0.020 C 
HETATM   20  C   UNK N   1      30.866  42.337  56.494  0.00  0.00    -0.022 C 
HETATM   21  C   UNK N   1      27.312  43.966  63.007  0.00  0.00     0.080 C 
HETATM   22  C   UNK N   1      29.894  46.610  62.333  0.00  0.00     0.023 C 
HETATM   23  C   UNK N   1      28.424  46.138  60.370  0.00  0.00     0.023 C 
ENDROOT
BRANCH   6  24
HETATM   24  C   UNK N   1      28.094  40.774  54.487  0.00  0.00     0.025 C 
HETATM   25  C   UNK N   1      28.051  39.308  54.016  0.00  0.00     0.184 C 
HETATM   26  O   UNK N   1      27.451  39.394  52.783  0.00  0.00    -0.321 OA
HETATM   27  C   UNK N   1      27.599  40.620  52.264  0.00  0.00     0.259 C 
HETATM   28  O   UNK N   1      27.341  40.872  51.100  0.00  0.00    -0.265 OA
HETATM   29  C   UNK N   1      28.290  41.559  53.181  0.00  0.00     0.118 C 
ENDBRANCH   6  24
BRANCH   2  30
HETATM   30  O   UNK N   1      30.406  44.839  58.537  0.00  0.00    -0.315 OA
BRANCH  30  31
HETATM   31  C   UNK N   1      31.081  45.714  57.736  0.00  0.00     0.255 C 
HETATM   32  O   UNK N   1      32.127  45.393  57.189  0.00  0.00    -0.266 OA
HETATM   33  C   UNK N   1      30.534  47.087  57.517  0.00  0.00     0.126 C 
ENDBRANCH  30  31
ENDBRANCH   2  30
TORSDOF 3
ENDMDL
MODEL 5
REMARK VINA RESULT:      -4.9     22.080     24.533
REMARK  3 active torsions:
REMARK  status: ('A' for Active; 'I' for Inactive)
REMARK    1  A    between atoms: O_1  and  C_6 
REMARK    2  A    between atoms: O_1  and  C_14 
REMARK    3  A    between atoms: C_10  and  C_13 
ROOT
HETATM    1  O   UNK N   1      25.703  34.431  59.601  0.00  0.00    -0.297 OA
HETATM    2  C   UNK N   1      29.812  37.830  56.960  0.00  0.00     0.145 C 
HETATM    3  C   UNK N   1      29.255  37.751  55.500  0.00  0.00     0.011 C 
HETATM    4  C   UNK N   1      27.938  35.487  56.196  0.00  0.00    -0.034 C 
HETATM    5  C   UNK N   1      27.911  36.924  55.524  0.00  0.00     0.009 C 
HETATM    6  C   UNK N   1      28.222  40.669  53.309  0.00  0.00     0.008 C 
HETATM    7  C   UNK N   1      27.676  39.498  54.190  0.00  0.00    -0.016 C 
HETATM    8  C   UNK N   1      28.625  35.546  57.629  0.00  0.00     0.012 C 
HETATM    9  C   UNK N   1      26.531  34.590  58.714  0.00  0.00     0.135 C 
HETATM   10  C   UNK N   1      28.939  39.162  54.951  0.00  0.00    -0.064 C 
HETATM   11  C   UNK N   1      29.922  36.426  57.614  0.00  0.00     0.040 C 
HETATM   12  C   UNK N   1      27.646  35.628  58.886  0.00  0.00     0.018 C 
HETATM   13  C   UNK N   1      26.465  34.951  56.309  0.00  0.00     0.017 C 
HETATM   14  C   UNK N   1      27.102  36.981  54.181  0.00  0.00     0.007 C 
HETATM   15  C   UNK N   1      29.241  41.370  54.225  0.00  0.00     0.033 C 
HETATM   16  C   UNK N   1      27.303  38.263  53.346  0.00  0.00     0.014 C 
HETATM   17  C   UNK N   1      30.348  37.182  54.551  0.00  0.00     0.023 C 
HETATM   18  C   UNK N   1      28.708  34.437  55.330  0.00  0.00     0.016 C 
HETATM   19  C   UNK N   1      26.533  39.980  55.122  0.00  0.00     0.020 C 
HETATM   20  C   UNK N   1      29.792  40.190  54.953  0.00  0.00    -0.022 C 
HETATM   21  C   UNK N   1      26.330  33.886  57.398  0.00  0.00     0.080 C 
HETATM   22  C   UNK N   1      28.422  35.287  60.185  0.00  0.00     0.023 C 
HETATM   23  C   UNK N   1      26.956  36.991  59.095  0.00  0.00     0.023 C 
ENDROOT
BRANCH   6  24
HETATM   24  C   UNK N   1      27.214  41.610  52.608  0.00  0.00     0.025 C 
HETATM   25  C   UNK N   1      27.594  42.069  51.187  0.00  0.00     0.184 C 
HETATM   26  O   UNK N   1      26.825  43.193  51.005  0.00  0.00    -0.321 OA
HETATM   27  C   UNK N   1      26.477  43.729  52.183  0.00  0.00     0.259 C 
HETATM   28  O   UNK N   1      25.981  44.838  52.273  0.00  0.00    -0.265 OA
HETATM   29  C   UNK N   1      26.942  42.932  53.344  0.00  0.00     0.118 C 
ENDBRANCH   6  24
BRANCH   2  30
HETATM   30  O   UNK N   1      29.033  38.671  57.739  0.00  0.00    -0.315 OA
BRANCH  30  31
HETATM   31  C   UNK N   1      29.526  39.629  58.578  0.00  0.00     0.255 C 
HETATM   32  O   UNK N   1      30.332  39.347  59.454  0.00  0.00    -0.266 OA
HETATM   33  C   UNK N   1      29.079  41.046  58.425  0.00  0.00     0.126 C 
ENDBRANCH  30  31
ENDBRANCH   2  30
TORSDOF 3
ENDMDL
MODEL 6
REMARK VINA RESULT:      -4.8     18.809     22.417
REMARK  3 active torsions:
REMARK  status: ('A' for Active; 'I' for Inactive)
REMARK    1  A    between atoms: O_1  and  C_6 
REMARK    2  A    between atoms: O_1  and  C_14 
REMARK    3  A    between atoms: C_10  and  C_13 
ROOT
HETATM    1  O   UNK N   1      50.519  46.796  59.551  0.00  0.00    -0.297 OA
HETATM    2  C   UNK N   1      52.215  52.490  59.869  0.00  0.00     0.145 C 
HETATM    3  C   UNK N   1      52.568  52.698  58.359  0.00  0.00     0.011 C 
HETATM    4  C   UNK N   1      52.826  50.010  58.120  0.00  0.00    -0.034 C 
HETATM    5  C   UNK N   1      52.216  51.371  57.579  0.00  0.00     0.009 C 
HETATM    6  C   UNK N   1      51.081  55.283  56.017  0.00  0.00     0.008 C 
HETATM    7  C   UNK N   1      51.064  53.766  56.395  0.00  0.00    -0.016 C 
HETATM    8  C   UNK N   1      52.579  49.863  59.684  0.00  0.00     0.012 C 
HETATM    9  C   UNK N   1      51.349  47.664  59.320  0.00  0.00     0.135 C 
HETATM   10  C   UNK N   1      51.736  53.848  57.748  0.00  0.00    -0.064 C 
HETATM   11  C   UNK N   1      52.865  51.203  60.445  0.00  0.00     0.040 C 
HETATM   12  C   UNK N   1      51.335  48.968  60.128  0.00  0.00     0.018 C 
HETATM   13  C   UNK N   1      52.169  48.814  57.339  0.00  0.00     0.017 C 
HETATM   14  C   UNK N   1      52.272  51.515  56.017  0.00  0.00     0.007 C 
HETATM   15  C   UNK N   1      50.880  55.997  57.366  0.00  0.00     0.033 C 
HETATM   16  C   UNK N   1      51.978  52.931  55.477  0.00  0.00     0.014 C 
HETATM   17  C   UNK N   1      54.050  53.154  58.224  0.00  0.00     0.023 C 
HETATM   18  C   UNK N   1      54.363  49.898  57.857  0.00  0.00     0.016 C 
HETATM   19  C   UNK N   1      49.613  53.224  56.485  0.00  0.00     0.020 C 
HETATM   20  C   UNK N   1      51.637  55.077  58.263  0.00  0.00    -0.022 C 
HETATM   21  C   UNK N   1      52.255  47.507  58.128  0.00  0.00     0.080 C 
HETATM   22  C   UNK N   1      51.455  48.602  61.631  0.00  0.00     0.023 C 
HETATM   23  C   UNK N   1      49.951  49.611  59.910  0.00  0.00     0.023 C 
ENDROOT
BRANCH   6  24
HETATM   24  C   UNK N   1      50.168  55.779  54.871  0.00  0.00     0.025 C 
HETATM   25  C   UNK N   1      50.767  55.711  53.453  0.00  0.00     0.184 C 
HETATM   26  O   UNK N   1      49.991  56.594  52.743  0.00  0.00    -0.321 OA
HETATM   27  C   UNK N   1      49.419  57.491  53.559  0.00  0.00     0.259 C 
HETATM   28  O   UNK N   1      48.865  58.492  53.141  0.00  0.00    -0.265 OA
HETATM   29  C   UNK N   1      49.712  57.241  54.991  0.00  0.00     0.118 C 
ENDBRANCH   6  24
BRANCH   2  30
HETATM   30  O   UNK N   1      50.841  52.468  60.053  0.00  0.00    -0.315 OA
BRANCH  30  31
HETATM   31  C   UNK N   1      50.185  53.096  61.072  0.00  0.00     0.255 C 
HETATM   32  O   UNK N   1      50.418  52.818  62.240  0.00  0.00    -0.266 OA
HETATM   33  C   UNK N   1      49.167  54.145  60.760  0.00  0.00     0.126 C 
ENDBRANCH  30  31
ENDBRANCH   2  30
TORSDOF 3
ENDMDL
MODEL 7
REMARK VINA RESULT:      -4.8     24.463     27.554
REMARK  3 active torsions:
REMARK  status: ('A' for Active; 'I' for Inactive)
REMARK    1  A    between atoms: O_1  and  C_6 
REMARK    2  A    between atoms: O_1  and  C_14 
REMARK    3  A    between atoms: C_10  and  C_13 
ROOT
HETATM    1  O   UNK N   1      27.197  40.216  57.400  0.00  0.00    -0.297 OA
HETATM    2  C   UNK N   1      28.587  44.804  60.925  0.00  0.00     0.145 C 
HETATM    3  C   UNK N   1      29.721  45.422  60.042  0.00  0.00     0.011 C 
HETATM    4  C   UNK N   1      29.995  43.014  58.827  0.00  0.00    -0.034 C 
HETATM    5  C   UNK N   1      29.822  44.587  58.706  0.00  0.00     0.009 C 
HETATM    6  C   UNK N   1      29.844  48.948  58.653  0.00  0.00     0.008 C 
HETATM    7  C   UNK N   1      29.580  47.454  58.277  0.00  0.00    -0.016 C 
HETATM    8  C   UNK N   1      28.922  42.404  59.830  0.00  0.00     0.012 C 
HETATM    9  C   UNK N   1      28.039  40.864  58.005  0.00  0.00     0.135 C 
HETATM   10  C   UNK N   1      29.395  46.886  59.667  0.00  0.00    -0.064 C 
HETATM   11  C   UNK N   1      28.776  43.275  61.124  0.00  0.00     0.040 C 
HETATM   12  C   UNK N   1      27.616  41.764  59.173  0.00  0.00     0.018 C 
HETATM   13  C   UNK N   1      29.847  42.376  57.399  0.00  0.00     0.017 C 
HETATM   14  C   UNK N   1      30.735  45.242  57.611  0.00  0.00     0.007 C 
HETATM   15  C   UNK N   1      28.950  49.177  59.885  0.00  0.00     0.033 C 
HETATM   16  C   UNK N   1      30.826  46.782  57.667  0.00  0.00     0.014 C 
HETATM   17  C   UNK N   1      31.041  45.497  60.860  0.00  0.00     0.023 C 
HETATM   18  C   UNK N   1      31.418  42.607  59.331  0.00  0.00     0.016 C 
HETATM   19  C   UNK N   1      28.307  47.309  57.403  0.00  0.00     0.020 C 
HETATM   20  C   UNK N   1      29.061  47.841  60.539  0.00  0.00    -0.022 C 
HETATM   21  C   UNK N   1      29.448  40.901  57.476  0.00  0.00     0.080 C 
HETATM   22  C   UNK N   1      26.876  40.883  60.214  0.00  0.00     0.023 C 
HETATM   23  C   UNK N   1      26.601  42.777  58.609  0.00  0.00     0.023 C 
ENDROOT
BRANCH   6  24
HETATM   24  C   UNK N   1      29.729  50.028  57.551  0.00  0.00     0.025 C 
HETATM   25  C   UNK N   1      28.331  50.210  56.928  0.00  0.00     0.184 C 
HETATM   26  O   UNK N   1      28.599  50.838  55.736  0.00  0.00    -0.321 OA
HETATM   27  C   UNK N   1      29.859  50.602  55.345  0.00  0.00     0.259 C 
HETATM   28  O   UNK N   1      30.256  50.873  54.225  0.00  0.00    -0.265 OA
HETATM   29  C   UNK N   1      30.633  49.806  56.328  0.00  0.00     0.118 C 
ENDBRANCH   6  24
BRANCH   2  30
HETATM   30  O   UNK N   1      27.339  45.075  60.383  0.00  0.00    -0.315 OA
BRANCH  30  31
HETATM   31  C   UNK N   1      26.245  45.452  61.107  0.00  0.00     0.255 C 
HETATM   32  O   UNK N   1      25.116  45.344  60.649  0.00  0.00    -0.266 OA
HETATM   33  C   UNK N   1      26.425  46.002  62.485  0.00  0.00     0.126 C 
ENDBRANCH  30  31
ENDBRANCH   2  30
TORSDOF 3
ENDMDL
MODEL 8
REMARK VINA RESULT:      -4.6     22.668     24.580
REMARK  3 active torsions:
REMARK  status: ('A' for Active; 'I' for Inactive)
REMARK    1  A    between atoms: O_1  and  C_6 
REMARK    2  A    between atoms: O_1  and  C_14 
REMARK    3  A    between atoms: C_10  and  C_13 
ROOT
HETATM    1  O   UNK N   1      34.065  43.361  58.782  0.00  0.00    -0.297 OA
HETATM    2  C   UNK N   1      29.002  40.720  60.455  0.00  0.00     0.145 C 
HETATM    3  C   UNK N   1      28.392  40.496  59.032  0.00  0.00     0.011 C 
HETATM    4  C   UNK N   1      30.012  42.461  58.102  0.00  0.00    -0.034 C 
HETATM    5  C   UNK N   1      29.440  40.988  57.958  0.00  0.00     0.009 C 
HETATM    6  C   UNK N   1      27.353  37.184  57.507  0.00  0.00     0.008 C 
HETATM    7  C   UNK N   1      28.457  38.291  57.486  0.00  0.00    -0.016 C 
HETATM    8  C   UNK N   1      30.513  42.730  59.587  0.00  0.00     0.012 C 
HETATM    9  C   UNK N   1      32.845  43.296  58.738  0.00  0.00     0.135 C 
HETATM   10  C   UNK N   1      28.113  38.997  58.778  0.00  0.00    -0.064 C 
HETATM   11  C   UNK N   1      29.500  42.178  60.649  0.00  0.00     0.040 C 
HETATM   12  C   UNK N   1      32.078  42.571  59.852  0.00  0.00     0.018 C 
HETATM   13  C   UNK N   1      31.188  42.650  57.077  0.00  0.00     0.017 C 
HETATM   14  C   UNK N   1      29.078  40.588  56.485  0.00  0.00     0.007 C 
HETATM   15  C   UNK N   1      27.202  36.849  59.002  0.00  0.00     0.033 C 
HETATM   16  C   UNK N   1      28.244  39.299  56.339  0.00  0.00     0.014 C 
HETATM   17  C   UNK N   1      27.001  41.188  58.943  0.00  0.00     0.023 C 
HETATM   18  C   UNK N   1      28.951  43.551  57.741  0.00  0.00     0.016 C 
HETATM   19  C   UNK N   1      29.878  37.670  57.508  0.00  0.00     0.020 C 
HETATM   20  C   UNK N   1      27.417  38.201  59.595  0.00  0.00    -0.022 C 
HETATM   21  C   UNK N   1      32.134  43.775  57.501  0.00  0.00     0.080 C 
HETATM   22  C   UNK N   1      32.457  43.232  61.203  0.00  0.00     0.023 C 
HETATM   23  C   UNK N   1      32.597  41.120  59.876  0.00  0.00     0.023 C 
ENDROOT
BRANCH   6  24
HETATM   24  C   UNK N   1      27.504  35.959  56.574  0.00  0.00     0.025 C 
HETATM   25  C   UNK N   1      26.317  35.677  55.634  0.00  0.00     0.184 C 
HETATM   26  O   UNK N   1      26.495  34.358  55.292  0.00  0.00    -0.321 OA
HETATM   27  C   UNK N   1      27.230  33.721  56.213  0.00  0.00     0.259 C 
HETATM   28  O   UNK N   1      27.339  32.508  56.236  0.00  0.00    -0.265 OA
HETATM   29  C   UNK N   1      27.710  34.617  57.294  0.00  0.00     0.118 C 
ENDBRANCH   6  24
BRANCH   2  30
HETATM   30  O   UNK N   1      30.027  39.818  60.698  0.00  0.00    -0.315 OA
BRANCH  30  31
HETATM   31  C   UNK N   1      30.097  38.999  61.788  0.00  0.00     0.255 C 
HETATM   32  O   UNK N   1      29.790  39.401  62.901  0.00  0.00    -0.266 OA
HETATM   33  C   UNK N   1      30.553  37.586  61.622  0.00  0.00     0.126 C 
ENDBRANCH  30  31
ENDBRANCH   2  30
TORSDOF 3
ENDMDL
MODEL 9
REMARK VINA RESULT:      -4.6     22.496     26.303
REMARK  3 active torsions:
REMARK  status: ('A' for Active; 'I' for Inactive)
REMARK    1  A    between atoms: O_1  and  C_6 
REMARK    2  A    between atoms: O_1  and  C_14 
REMARK    3  A    between atoms: C_10  and  C_13 
ROOT
HETATM    1  O   UNK N   1      51.560  53.597  53.129  0.00  0.00    -0.297 OA
HETATM    2  C   UNK N   1      51.226  56.459  58.335  0.00  0.00     0.145 C 
HETATM    3  C   UNK N   1      49.874  57.207  58.087  0.00  0.00     0.011 C 
HETATM    4  C   UNK N   1      50.256  56.873  55.424  0.00  0.00    -0.034 C 
HETATM    5  C   UNK N   1      49.303  56.752  56.687  0.00  0.00     0.009 C 
HETATM    6  C   UNK N   1      46.739  56.986  60.208  0.00  0.00     0.008 C 
HETATM    7  C   UNK N   1      47.387  56.520  58.864  0.00  0.00    -0.016 C 
HETATM    8  C   UNK N   1      51.678  56.227  55.725  0.00  0.00     0.012 C 
HETATM    9  C   UNK N   1      51.414  54.639  53.753  0.00  0.00     0.135 C 
HETATM   10  C   UNK N   1      48.832  56.843  59.170  0.00  0.00    -0.064 C 
HETATM   11  C   UNK N   1      52.208  56.627  57.144  0.00  0.00     0.040 C 
HETATM   12  C   UNK N   1      51.908  54.737  55.202  0.00  0.00     0.018 C 
HETATM   13  C   UNK N   1      49.571  56.163  54.202  0.00  0.00     0.017 C 
HETATM   14  C   UNK N   1      47.829  57.217  56.417  0.00  0.00     0.007 C 
HETATM   15  C   UNK N   1      47.802  56.637  61.265  0.00  0.00     0.033 C 
HETATM   16  C   UNK N   1      46.958  57.406  57.677  0.00  0.00     0.014 C 
HETATM   17  C   UNK N   1      50.089  58.741  58.231  0.00  0.00     0.023 C 
HETATM   18  C   UNK N   1      50.479  58.357  54.985  0.00  0.00     0.016 C 
HETATM   19  C   UNK N   1      47.156  55.005  58.622  0.00  0.00     0.020 C 
HETATM   20  C   UNK N   1      49.044  56.915  60.487  0.00  0.00    -0.022 C 
HETATM   21  C   UNK N   1      50.593  55.743  53.143  0.00  0.00     0.080 C 
HETATM   22  C   UNK N   1      53.422  54.399  55.215  0.00  0.00     0.023 C 
HETATM   23  C   UNK N   1      51.175  53.640  55.997  0.00  0.00     0.023 C 
ENDROOT
BRANCH   6  24
HETATM   24  C   UNK N   1      45.302  56.521  60.546  0.00  0.00     0.025 C 
HETATM   25  C   UNK N   1      44.171  57.493  60.161  0.00  0.00     0.184 C 
HETATM   26  O   UNK N   1      43.124  57.083  60.951  0.00  0.00    -0.321 OA
HETATM   27  C   UNK N   1      43.569  56.424  62.029  0.00  0.00     0.259 C 
HETATM   28  O   UNK N   1      42.847  56.153  62.972  0.00  0.00    -0.265 OA
HETATM   29  C   UNK N   1      45.042  56.249  62.036  0.00  0.00     0.118 C 
ENDBRANCH   6  24
BRANCH   2  30
HETATM   30  O   UNK N   1      51.003  55.116  58.598  0.00  0.00    -0.315 OA
BRANCH  30  31
HETATM   31  C   UNK N   1      51.592  54.416  59.612  0.00  0.00     0.255 C 
HETATM   32  O   UNK N   1      52.807  54.411  59.754  0.00  0.00    -0.266 OA
HETATM   33  C   UNK N   1      50.742  53.646  60.569  0.00  0.00     0.126 C 
ENDBRANCH  30  31
ENDBRANCH   2  30
TORSDOF 3
ENDMDL
