MODEL 1
REMARK VINA RESULT:      -6.4      0.000      0.000
REMARK  9 active torsions:
REMARK  status: ('A' for Active; 'I' for Inactive)
REMARK    1  A    between atoms: O_1  and  C_11 
REMARK    2  A    between atoms: O_1  and  C_12 
REMARK    3  A    between atoms: O_4  and  C_13 
REMARK    4  A    between atoms: O_5  and  C_14 
REMARK    5  A    between atoms: O_6  and  C_15 
REMARK    6  A    between atoms: O_9  and  C_20 
REMARK    7  A    between atoms: O_10  and  C_22 
REMARK    8  A    between atoms: C_16  and  C_22 
REMARK    9  A    between atoms: C_20  and  C_25 
ROOT
HETATM    1  O   UNK N   1      48.079  31.417  47.614  0.00  0.00    -0.328 OA
ENDROOT
BRANCH   1   2
HETATM    2  C   UNK N   1      47.354  32.558  48.027  0.00  0.00     0.294 C 
HETATM    3  O   UNK N   1      47.599  32.825  49.402  0.00  0.00    -0.348 OA
HETATM    4  C   UNK N   1      46.916  34.000  49.815  0.00  0.00     0.179 C 
HETATM    5  C   UNK N   1      45.389  33.758  49.770  0.00  0.00     0.180 C 
HETATM    6  C   UNK N   1      45.001  33.400  48.323  0.00  0.00     0.183 C 
HETATM    7  C   UNK N   1      45.860  32.230  47.820  0.00  0.00     0.204 C 
BRANCH   4   8
HETATM    8  C   UNK N   1      47.379  34.365  51.232  0.00  0.00     0.198 C 
BRANCH   8   9
HETATM    9  O   UNK N   1      46.428  33.959  52.179  0.00  0.00    -0.398 OA
HETATM   10  H   UNK N   1      46.109  33.061  51.902  0.00  0.00     0.209 HD
ENDBRANCH   8   9
ENDBRANCH   4   8
BRANCH   5  11
HETATM   11  O   UNK N   1      44.706  34.916  50.178  0.00  0.00    -0.390 OA
HETATM   12  H   UNK N   1      45.129  35.680  49.707  0.00  0.00     0.210 HD
ENDBRANCH   5  11
BRANCH   6  13
HETATM   13  O   UNK N   1      43.632  33.099  48.220  0.00  0.00    -0.390 OA
HETATM   14  H   UNK N   1      43.191  33.413  49.053  0.00  0.00     0.210 HD
ENDBRANCH   6  13
BRANCH   7  15
HETATM   15  O   UNK N   1      45.583  32.009  46.460  0.00  0.00    -0.388 OA
HETATM   16  H   UNK N   1      46.332  31.471  46.093  0.00  0.00     0.210 HD
ENDBRANCH   7  15
ENDBRANCH   1   2
BRANCH   1  17
HETATM   17  C   UNK N   1      48.824  31.629  46.430  0.00  0.00     0.273 C 
HETATM   18  O   UNK N   1      48.229  31.010  45.344  0.00  0.00    -0.331 OA
HETATM   19  C   UNK N   1      48.865  30.941  44.145  0.00  0.00     0.152 C 
HETATM   20  C   UNK N   1      50.214  31.019  44.066  0.00  0.00     0.051 C 
HETATM   21  C   UNK N   1      51.058  31.119  45.336  0.00  0.00     0.105 C 
HETATM   22  C   UNK N   1      50.222  31.011  46.636  0.00  0.00     0.061 C 
HETATM   23  C   UNK N   1      51.717  32.454  45.515  0.00  0.00     0.136 C 
HETATM   24  C   UNK N   1      51.034  31.816  47.674  0.00  0.00    -0.002 C 
HETATM   25  C   UNK N   1      51.547  33.035  46.878  0.00  0.00     0.083 C 
HETATM   26  C   UNK N   1      52.216  30.975  48.196  0.00  0.00     0.011 C 
HETATM   27  O   UNK N   1      52.350  33.016  44.635  0.00  0.00    -0.297 OA
BRANCH  20  28
HETATM   28  C   UNK N   1      50.890  31.002  42.741  0.00  0.00     0.291 C 
HETATM   29  O   UNK N   1      51.649  30.086  42.458  0.00  0.00    -0.260 OA
BRANCH  28  30
HETATM   30  O   UNK N   1      50.705  32.031  41.871  0.00  0.00    -0.323 OA
HETATM   31  C   UNK N   1      50.501  31.849  40.519  0.00  0.00     0.213 C 
ENDBRANCH  28  30
ENDBRANCH  20  28
ENDBRANCH   1  17
TORSDOF 9
ENDMDL
MODEL 2
REMARK VINA RESULT:      -6.2     11.493     14.613
REMARK  9 active torsions:
REMARK  status: ('A' for Active; 'I' for Inactive)
REMARK    1  A    between atoms: O_1  and  C_11 
REMARK    2  A    between atoms: O_1  and  C_12 
REMARK    3  A    between atoms: O_4  and  C_13 
REMARK    4  A    between atoms: O_5  and  C_14 
REMARK    5  A    between atoms: O_6  and  C_15 
REMARK    6  A    between atoms: O_9  and  C_20 
REMARK    7  A    between atoms: O_10  and  C_22 
REMARK    8  A    between atoms: C_16  and  C_22 
REMARK    9  A    between atoms: C_20  and  C_25 
ROOT
HETATM    1  O   UNK N   1      40.324  45.137  49.270  0.00  0.00    -0.328 OA
ENDROOT
BRANCH   1   2
HETATM    2  C   UNK N   1      40.916  44.541  50.407  0.00  0.00     0.294 C 
HETATM    3  O   UNK N   1      39.914  43.977  51.244  0.00  0.00    -0.348 OA
HETATM    4  C   UNK N   1      40.501  43.330  52.364  0.00  0.00     0.179 C 
HETATM    5  C   UNK N   1      41.174  44.380  53.279  0.00  0.00     0.180 C 
HETATM    6  C   UNK N   1      42.256  45.109  52.459  0.00  0.00     0.183 C 
HETATM    7  C   UNK N   1      41.651  45.668  51.163  0.00  0.00     0.204 C 
BRANCH   4   8
HETATM    8  C   UNK N   1      39.407  42.559  53.115  0.00  0.00     0.198 C 
BRANCH   8   9
HETATM    9  O   UNK N   1      39.119  43.183  54.339  0.00  0.00    -0.398 OA
HETATM   10  H   UNK N   1      39.250  42.501  55.048  0.00  0.00     0.209 HD
ENDBRANCH   8   9
ENDBRANCH   4   8
BRANCH   5  11
HETATM   11  O   UNK N   1      41.757  43.748  54.390  0.00  0.00    -0.390 OA
HETATM   12  H   UNK N   1      42.530  43.226  54.051  0.00  0.00     0.210 HD
ENDBRANCH   5  11
BRANCH   6  13
HETATM   13  O   UNK N   1      42.867  46.129  53.210  0.00  0.00    -0.390 OA
HETATM   14  H   UNK N   1      42.535  46.999  52.860  0.00  0.00     0.210 HD
ENDBRANCH   6  13
BRANCH   7  15
HETATM   15  O   UNK N   1      42.679  46.209  50.372  0.00  0.00    -0.388 OA
HETATM   16  H   UNK N   1      42.283  46.431  49.490  0.00  0.00     0.210 HD
ENDBRANCH   7  15
ENDBRANCH   1   2
BRANCH   1  17
HETATM   17  C   UNK N   1      40.776  44.580  48.050  0.00  0.00     0.273 C 
HETATM   18  O   UNK N   1      41.314  43.320  48.241  0.00  0.00    -0.331 OA
HETATM   19  C   UNK N   1      41.962  42.677  47.234  0.00  0.00     0.152 C 
HETATM   20  C   UNK N   1      42.521  43.367  46.212  0.00  0.00     0.051 C 
HETATM   21  C   UNK N   1      42.493  44.895  46.206  0.00  0.00     0.105 C 
HETATM   22  C   UNK N   1      41.881  45.501  47.493  0.00  0.00     0.061 C 
HETATM   23  C   UNK N   1      41.600  45.474  45.150  0.00  0.00     0.136 C 
HETATM   24  C   UNK N   1      41.293  46.852  47.032  0.00  0.00    -0.002 C 
HETATM   25  C   UNK N   1      40.680  46.537  45.651  0.00  0.00     0.083 C 
HETATM   26  C   UNK N   1      42.412  47.904  46.898  0.00  0.00     0.011 C 
HETATM   27  O   UNK N   1      41.624  45.124  43.980  0.00  0.00    -0.297 OA
BRANCH  20  28
HETATM   28  C   UNK N   1      43.175  42.645  45.088  0.00  0.00     0.291 C 
HETATM   29  O   UNK N   1      42.493  42.010  44.296  0.00  0.00    -0.260 OA
BRANCH  28  30
HETATM   30  O   UNK N   1      44.531  42.647  44.978  0.00  0.00    -0.323 OA
HETATM   31  C   UNK N   1      45.356  41.905  45.796  0.00  0.00     0.213 C 
ENDBRANCH  28  30
ENDBRANCH  20  28
ENDBRANCH   1  17
TORSDOF 9
ENDMDL
MODEL 3
REMARK VINA RESULT:      -6.1      3.445      7.508
REMARK  9 active torsions:
REMARK  status: ('A' for Active; 'I' for Inactive)
REMARK    1  A    between atoms: O_1  and  C_11 
REMARK    2  A    between atoms: O_1  and  C_12 
REMARK    3  A    between atoms: O_4  and  C_13 
REMARK    4  A    between atoms: O_5  and  C_14 
REMARK    5  A    between atoms: O_6  and  C_15 
REMARK    6  A    between atoms: O_9  and  C_20 
REMARK    7  A    between atoms: O_10  and  C_22 
REMARK    8  A    between atoms: C_16  and  C_22 
REMARK    9  A    between atoms: C_20  and  C_25 
ROOT
HETATM    1  O   UNK N   1      48.394  32.023  50.499  0.00  0.00    -0.328 OA
ENDROOT
BRANCH   1   2
HETATM    2  C   UNK N   1      47.730  32.717  49.461  0.00  0.00     0.294 C 
HETATM    3  O   UNK N   1      46.322  32.592  49.610  0.00  0.00    -0.348 OA
HETATM    4  C   UNK N   1      45.643  33.329  48.602  0.00  0.00     0.179 C 
HETATM    5  C   UNK N   1      45.908  32.687  47.220  0.00  0.00     0.180 C 
HETATM    6  C   UNK N   1      47.427  32.710  46.963  0.00  0.00     0.183 C 
HETATM    7  C   UNK N   1      48.172  32.057  48.137  0.00  0.00     0.204 C 
BRANCH   4   8
HETATM    8  C   UNK N   1      44.144  33.342  48.930  0.00  0.00     0.198 C 
BRANCH   8   9
HETATM    9  O   UNK N   1      43.544  32.138  48.534  0.00  0.00    -0.398 OA
HETATM   10  H   UNK N   1      44.265  31.457  48.488  0.00  0.00     0.209 HD
ENDBRANCH   8   9
ENDBRANCH   4   8
BRANCH   5  11
HETATM   11  O   UNK N   1      45.240  33.409  46.217  0.00  0.00    -0.390 OA
HETATM   12  H   UNK N   1      44.316  33.050  46.172  0.00  0.00     0.210 HD
ENDBRANCH   5  11
BRANCH   6  13
HETATM   13  O   UNK N   1      47.750  32.078  45.749  0.00  0.00    -0.390 OA
HETATM   14  H   UNK N   1      46.981  31.502  45.496  0.00  0.00     0.210 HD
ENDBRANCH   6  13
BRANCH   7  15
HETATM   15  O   UNK N   1      49.555  32.209  47.944  0.00  0.00    -0.388 OA
HETATM   16  H   UNK N   1      50.009  31.696  48.662  0.00  0.00     0.210 HD
ENDBRANCH   7  15
ENDBRANCH   1   2
BRANCH   1  17
HETATM   17  C   UNK N   1      49.209  32.861  51.297  0.00  0.00     0.273 C 
HETATM   18  O   UNK N   1      50.549  32.688  51.001  0.00  0.00    -0.331 OA
HETATM   19  C   UNK N   1      51.513  33.267  51.766  0.00  0.00     0.152 C 
HETATM   20  C   UNK N   1      51.270  33.608  53.052  0.00  0.00     0.051 C 
HETATM   21  C   UNK N   1      49.921  33.287  53.696  0.00  0.00     0.105 C 
HETATM   22  C   UNK N   1      48.981  32.473  52.772  0.00  0.00     0.061 C 
HETATM   23  C   UNK N   1      49.086  34.499  53.978  0.00  0.00     0.136 C 
HETATM   24  C   UNK N   1      47.562  32.868  53.235  0.00  0.00    -0.002 C 
HETATM   25  C   UNK N   1      47.673  34.382  53.515  0.00  0.00     0.083 C 
HETATM   26  C   UNK N   1      47.189  32.107  54.523  0.00  0.00     0.011 C 
HETATM   27  O   UNK N   1      49.512  35.493  54.546  0.00  0.00    -0.297 OA
BRANCH  20  28
HETATM   28  C   UNK N   1      52.316  34.294  53.857  0.00  0.00     0.291 C 
HETATM   29  O   UNK N   1      52.633  33.847  54.950  0.00  0.00    -0.260 OA
BRANCH  28  30
HETATM   30  O   UNK N   1      52.878  35.446  53.400  0.00  0.00    -0.323 OA
HETATM   31  C   UNK N   1      53.187  36.511  54.219  0.00  0.00     0.213 C 
ENDBRANCH  28  30
ENDBRANCH  20  28
ENDBRANCH   1  17
TORSDOF 9
ENDMDL
MODEL 4
REMARK VINA RESULT:      -5.8      4.115      7.176
REMARK  9 active torsions:
REMARK  status: ('A' for Active; 'I' for Inactive)
REMARK    1  A    between atoms: O_1  and  C_11 
REMARK    2  A    between atoms: O_1  and  C_12 
REMARK    3  A    between atoms: O_4  and  C_13 
REMARK    4  A    between atoms: O_5  and  C_14 
REMARK    5  A    between atoms: O_6  and  C_15 
REMARK    6  A    between atoms: O_9  and  C_20 
REMARK    7  A    between atoms: O_10  and  C_22 
REMARK    8  A    between atoms: C_16  and  C_22 
REMARK    9  A    between atoms: C_20  and  C_25 
ROOT
HETATM    1  O   UNK N   1      48.100  33.626  52.230  0.00  0.00    -0.328 OA
ENDROOT
BRANCH   1   2
HETATM    2  C   UNK N   1      48.747  32.760  53.141  0.00  0.00     0.294 C 
HETATM    3  O   UNK N   1      48.145  32.861  54.426  0.00  0.00    -0.348 OA
HETATM    4  C   UNK N   1      48.754  31.957  55.338  0.00  0.00     0.179 C 
HETATM    5  C   UNK N   1      50.216  32.387  55.599  0.00  0.00     0.180 C 
HETATM    6  C   UNK N   1      50.969  32.372  54.256  0.00  0.00     0.183 C 
HETATM    7  C   UNK N   1      50.218  33.221  53.220  0.00  0.00     0.204 C 
BRANCH   4   8
HETATM    8  C   UNK N   1      47.937  31.947  56.637  0.00  0.00     0.198 C 
BRANCH   8   9
HETATM    9  O   UNK N   1      46.779  32.726  56.495  0.00  0.00    -0.398 OA
HETATM   10  H   UNK N   1      46.831  33.448  57.173  0.00  0.00     0.209 HD
ENDBRANCH   8   9
ENDBRANCH   4   8
BRANCH   5  11
HETATM   11  O   UNK N   1      50.825  31.498  56.501  0.00  0.00    -0.390 OA
HETATM   12  H   UNK N   1      51.182  32.046  57.247  0.00  0.00     0.210 HD
ENDBRANCH   5  11
BRANCH   6  13
HETATM   13  O   UNK N   1      52.294  32.820  54.406  0.00  0.00    -0.390 OA
HETATM   14  H   UNK N   1      52.299  33.802  54.251  0.00  0.00     0.210 HD
ENDBRANCH   6  13
BRANCH   7  15
HETATM   15  O   UNK N   1      50.848  33.085  51.971  0.00  0.00    -0.388 OA
HETATM   16  H   UNK N   1      51.611  32.463  52.094  0.00  0.00     0.210 HD
ENDBRANCH   7  15
ENDBRANCH   1   2
BRANCH   1  17
HETATM   17  C   UNK N   1      47.158  32.965  51.406  0.00  0.00     0.273 C 
HETATM   18  O   UNK N   1      47.480  31.629  51.247  0.00  0.00    -0.331 OA
HETATM   19  C   UNK N   1      46.808  30.849  50.359  0.00  0.00     0.152 C 
HETATM   20  C   UNK N   1      46.171  31.394  49.297  0.00  0.00     0.051 C 
HETATM   21  C   UNK N   1      46.251  32.898  49.036  0.00  0.00     0.105 C 
HETATM   22  C   UNK N   1      47.189  33.641  50.020  0.00  0.00     0.061 C 
HETATM   23  C   UNK N   1      44.954  33.616  49.260  0.00  0.00     0.136 C 
HETATM   24  C   UNK N   1      46.608  35.070  50.089  0.00  0.00    -0.002 C 
HETATM   25  C   UNK N   1      45.080  34.848  50.092  0.00  0.00     0.083 C 
HETATM   26  C   UNK N   1      47.034  35.880  48.848  0.00  0.00     0.011 C 
HETATM   27  O   UNK N   1      43.888  33.241  48.798  0.00  0.00    -0.297 OA
BRANCH  20  28
HETATM   28  C   UNK N   1      45.391  30.534  48.368  0.00  0.00     0.291 C 
HETATM   29  O   UNK N   1      44.374  29.980  48.761  0.00  0.00    -0.260 OA
BRANCH  28  30
HETATM   30  O   UNK N   1      45.841  30.321  47.101  0.00  0.00    -0.323 OA
HETATM   31  C   UNK N   1      47.160  30.054  46.804  0.00  0.00     0.213 C 
ENDBRANCH  28  30
ENDBRANCH  20  28
ENDBRANCH   1  17
TORSDOF 9
ENDMDL
MODEL 5
REMARK VINA RESULT:      -5.6     14.505     17.365
REMARK  9 active torsions:
REMARK  status: ('A' for Active; 'I' for Inactive)
REMARK    1  A    between atoms: O_1  and  C_11 
REMARK    2  A    between atoms: O_1  and  C_12 
REMARK    3  A    between atoms: O_4  and  C_13 
REMARK    4  A    between atoms: O_5  and  C_14 
REMARK    5  A    between atoms: O_6  and  C_15 
REMARK    6  A    between atoms: O_9  and  C_20 
REMARK    7  A    between atoms: O_10  and  C_22 
REMARK    8  A    between atoms: C_16  and  C_22 
REMARK    9  A    between atoms: C_20  and  C_25 
ROOT
HETATM    1  O   UNK N   1      39.742  47.801  46.401  0.00  0.00    -0.328 OA
ENDROOT
BRANCH   1   2
HETATM    2  C   UNK N   1      39.598  48.285  45.080  0.00  0.00     0.294 C 
HETATM    3  O   UNK N   1      39.889  49.676  45.033  0.00  0.00    -0.348 OA
HETATM    4  C   UNK N   1      39.796  50.163  43.701  0.00  0.00     0.179 C 
HETATM    5  C   UNK N   1      38.328  50.094  43.222  0.00  0.00     0.180 C 
HETATM    6  C   UNK N   1      37.870  48.624  43.282  0.00  0.00     0.183 C 
HETATM    7  C   UNK N   1      38.124  48.049  44.683  0.00  0.00     0.204 C 
BRANCH   4   8
HETATM    8  C   UNK N   1      40.325  51.603  43.668  0.00  0.00     0.198 C 
BRANCH   8   9
HETATM    9  O   UNK N   1      39.982  52.224  42.457  0.00  0.00    -0.398 OA
HETATM   10  H   UNK N   1      39.853  51.502  41.789  0.00  0.00     0.209 HD
ENDBRANCH   8   9
ENDBRANCH   4   8
BRANCH   5  11
HETATM   11  O   UNK N   1      38.228  50.574  41.905  0.00  0.00    -0.390 OA
HETATM   12  H   UNK N   1      38.540  49.845  41.309  0.00  0.00     0.210 HD
ENDBRANCH   5  11
BRANCH   6  13
HETATM   13  O   UNK N   1      36.517  48.494  42.923  0.00  0.00    -0.390 OA
HETATM   14  H   UNK N   1      36.467  47.851  42.167  0.00  0.00     0.210 HD
ENDBRANCH   6  13
BRANCH   7  15
HETATM   15  O   UNK N   1      37.826  46.676  44.677  0.00  0.00    -0.388 OA
HETATM   16  H   UNK N   1      37.483  46.447  45.579  0.00  0.00     0.210 HD
ENDBRANCH   7  15
ENDBRANCH   1   2
BRANCH   1  17
HETATM   17  C   UNK N   1      40.637  46.708  46.499  0.00  0.00     0.273 C 
HETATM   18  O   UNK N   1      41.121  46.342  45.255  0.00  0.00    -0.331 OA
HETATM   19  C   UNK N   1      41.859  45.212  45.098  0.00  0.00     0.152 C 
HETATM   20  C   UNK N   1      41.757  44.186  45.975  0.00  0.00     0.051 C 
HETATM   21  C   UNK N   1      40.756  44.252  47.128  0.00  0.00     0.105 C 
HETATM   22  C   UNK N   1      39.859  45.514  47.088  0.00  0.00     0.061 C 
HETATM   23  C   UNK N   1      41.400  44.385  48.476  0.00  0.00     0.136 C 
HETATM   24  C   UNK N   1      39.498  45.767  48.568  0.00  0.00    -0.002 C 
HETATM   25  C   UNK N   1      40.806  45.457  49.327  0.00  0.00     0.083 C 
HETATM   26  C   UNK N   1      38.375  44.810  49.015  0.00  0.00     0.011 C 
HETATM   27  O   UNK N   1      42.319  43.677  48.856  0.00  0.00    -0.297 OA
BRANCH  20  28
HETATM   28  C   UNK N   1      42.614  42.980  45.822  0.00  0.00     0.291 C 
HETATM   29  O   UNK N   1      42.190  41.886  46.165  0.00  0.00    -0.260 OA
BRANCH  28  30
HETATM   30  O   UNK N   1      43.886  43.106  45.354  0.00  0.00    -0.323 OA
HETATM   31  C   UNK N   1      44.503  42.147  44.580  0.00  0.00     0.213 C 
ENDBRANCH  28  30
ENDBRANCH  20  28
ENDBRANCH   1  17
TORSDOF 9
ENDMDL
MODEL 6
REMARK VINA RESULT:      -5.5     14.123     16.192
REMARK  9 active torsions:
REMARK  status: ('A' for Active; 'I' for Inactive)
REMARK    1  A    between atoms: O_1  and  C_11 
REMARK    2  A    between atoms: O_1  and  C_12 
REMARK    3  A    between atoms: O_4  and  C_13 
REMARK    4  A    between atoms: O_5  and  C_14 
REMARK    5  A    between atoms: O_6  and  C_15 
REMARK    6  A    between atoms: O_9  and  C_20 
REMARK    7  A    between atoms: O_10  and  C_22 
REMARK    8  A    between atoms: C_16  and  C_22 
REMARK    9  A    between atoms: C_20  and  C_25 
ROOT
HETATM    1  O   UNK N   1      40.074  43.547  48.799  0.00  0.00    -0.328 OA
ENDROOT
BRANCH   1   2
HETATM    2  C   UNK N   1      40.762  43.502  50.033  0.00  0.00     0.294 C 
HETATM    3  O   UNK N   1      39.841  43.317  51.101  0.00  0.00    -0.348 OA
HETATM    4  C   UNK N   1      40.526  43.218  52.343  0.00  0.00     0.179 C 
HETATM    5  C   UNK N   1      41.190  44.573  52.681  0.00  0.00     0.180 C 
HETATM    6  C   UNK N   1      42.182  44.917  51.553  0.00  0.00     0.183 C 
HETATM    7  C   UNK N   1      41.474  44.862  50.192  0.00  0.00     0.204 C 
BRANCH   4   8
HETATM    8  C   UNK N   1      39.521  42.806  53.426  0.00  0.00     0.198 C 
BRANCH   8   9
HETATM    9  O   UNK N   1      39.263  43.881  54.291  0.00  0.00    -0.398 OA
HETATM   10  H   UNK N   1      38.481  43.625  54.845  0.00  0.00     0.209 HD
ENDBRANCH   8   9
ENDBRANCH   4   8
BRANCH   5  11
HETATM   11  O   UNK N   1      41.869  44.484  53.907  0.00  0.00    -0.390 OA
HETATM   12  H   UNK N   1      41.177  44.446  54.617  0.00  0.00     0.210 HD
ENDBRANCH   5  11
BRANCH   6  13
HETATM   13  O   UNK N   1      42.776  46.175  51.760  0.00  0.00    -0.390 OA
HETATM   14  H   UNK N   1      42.070  46.790  52.094  0.00  0.00     0.210 HD
ENDBRANCH   6  13
BRANCH   7  15
HETATM   15  O   UNK N   1      42.424  45.047  49.173  0.00  0.00    -0.388 OA
HETATM   16  H   UNK N   1      41.927  45.301  48.352  0.00  0.00     0.210 HD
ENDBRANCH   7  15
ENDBRANCH   1   2
BRANCH   1  17
HETATM   17  C   UNK N   1      40.135  44.815  48.173  0.00  0.00     0.273 C 
HETATM   18  O   UNK N   1      39.006  45.566  48.449  0.00  0.00    -0.331 OA
HETATM   19  C   UNK N   1      38.780  46.745  47.812  0.00  0.00     0.152 C 
HETATM   20  C   UNK N   1      39.334  47.003  46.604  0.00  0.00     0.051 C 
HETATM   21  C   UNK N   1      40.175  45.940  45.898  0.00  0.00     0.105 C 
HETATM   22  C   UNK N   1      40.207  44.586  46.650  0.00  0.00     0.061 C 
HETATM   23  C   UNK N   1      41.634  46.277  45.828  0.00  0.00     0.136 C 
HETATM   24  C   UNK N   1      41.562  43.964  46.248  0.00  0.00    -0.002 C 
HETATM   25  C   UNK N   1      42.534  45.164  46.245  0.00  0.00     0.083 C 
HETATM   26  C   UNK N   1      41.469  43.342  44.841  0.00  0.00     0.011 C 
HETATM   27  O   UNK N   1      42.057  47.360  45.452  0.00  0.00    -0.297 OA
BRANCH  20  28
HETATM   28  C   UNK N   1      39.124  48.321  45.948  0.00  0.00     0.291 C 
HETATM   29  O   UNK N   1      39.059  49.335  46.628  0.00  0.00    -0.260 OA
BRANCH  28  30
HETATM   30  O   UNK N   1      38.949  48.388  44.600  0.00  0.00    -0.323 OA
HETATM   31  C   UNK N   1      39.256  49.506  43.854  0.00  0.00     0.213 C 
ENDBRANCH  28  30
ENDBRANCH  20  28
ENDBRANCH   1  17
TORSDOF 9
ENDMDL
MODEL 7
REMARK VINA RESULT:      -5.4      4.098      7.164
REMARK  9 active torsions:
REMARK  status: ('A' for Active; 'I' for Inactive)
REMARK    1  A    between atoms: O_1  and  C_11 
REMARK    2  A    between atoms: O_1  and  C_12 
REMARK    3  A    between atoms: O_4  and  C_13 
REMARK    4  A    between atoms: O_5  and  C_14 
REMARK    5  A    between atoms: O_6  and  C_15 
REMARK    6  A    between atoms: O_9  and  C_20 
REMARK    7  A    between atoms: O_10  and  C_22 
REMARK    8  A    between atoms: C_16  and  C_22 
REMARK    9  A    between atoms: C_20  and  C_25 
ROOT
HETATM    1  O   UNK N   1      49.329  31.857  49.735  0.00  0.00    -0.328 OA
ENDROOT
BRANCH   1   2
HETATM    2  C   UNK N   1      48.014  32.332  49.523  0.00  0.00     0.294 C 
HETATM    3  O   UNK N   1      47.135  31.245  49.263  0.00  0.00    -0.348 OA
HETATM    4  C   UNK N   1      45.801  31.706  49.100  0.00  0.00     0.179 C 
HETATM    5  C   UNK N   1      45.698  32.557  47.813  0.00  0.00     0.180 C 
HETATM    6  C   UNK N   1      46.660  33.752  47.948  0.00  0.00     0.183 C 
HETATM    7  C   UNK N   1      48.073  33.258  48.289  0.00  0.00     0.204 C 
BRANCH   4   8
HETATM    8  C   UNK N   1      44.866  30.490  49.039  0.00  0.00     0.198 C 
BRANCH   8   9
HETATM    9  O   UNK N   1      43.617  30.804  49.597  0.00  0.00    -0.398 OA
HETATM   10  H   UNK N   1      43.226  31.528  49.042  0.00  0.00     0.209 HD
ENDBRANCH   8   9
ENDBRANCH   4   8
BRANCH   5  11
HETATM   11  O   UNK N   1      44.381  33.016  47.643  0.00  0.00    -0.390 OA
HETATM   12  H   UNK N   1      44.188  32.983  46.671  0.00  0.00     0.210 HD
ENDBRANCH   5  11
BRANCH   6  13
HETATM   13  O   UNK N   1      46.670  34.537  46.781  0.00  0.00    -0.390 OA
HETATM   14  H   UNK N   1      46.540  35.484  47.054  0.00  0.00     0.210 HD
ENDBRANCH   6  13
BRANCH   7  15
HETATM   15  O   UNK N   1      48.899  34.366  48.539  0.00  0.00    -0.388 OA
HETATM   16  H   UNK N   1      49.837  34.067  48.413  0.00  0.00     0.210 HD
ENDBRANCH   7  15
ENDBRANCH   1   2
BRANCH   1  17
HETATM   17  C   UNK N   1      49.793  32.074  51.054  0.00  0.00     0.273 C 
HETATM   18  O   UNK N   1      48.848  32.736  51.817  0.00  0.00    -0.331 OA
HETATM   19  C   UNK N   1      49.152  33.196  53.060  0.00  0.00     0.152 C 
HETATM   20  C   UNK N   1      50.431  33.463  53.410  0.00  0.00     0.051 C 
HETATM   21  C   UNK N   1      51.559  33.317  52.389  0.00  0.00     0.105 C 
HETATM   22  C   UNK N   1      51.055  32.956  50.969  0.00  0.00     0.061 C 
HETATM   23  C   UNK N   1      52.485  32.173  52.676  0.00  0.00     0.136 C 
HETATM   24  C   UNK N   1      52.231  32.180  50.338  0.00  0.00    -0.002 C 
HETATM   25  C   UNK N   1      52.761  31.306  51.495  0.00  0.00     0.083 C 
HETATM   26  C   UNK N   1      53.321  33.159  49.857  0.00  0.00     0.011 C 
HETATM   27  O   UNK N   1      52.983  31.969  53.773  0.00  0.00    -0.297 OA
BRANCH  20  28
HETATM   28  C   UNK N   1      50.753  33.909  54.792  0.00  0.00     0.291 C 
HETATM   29  O   UNK N   1      50.637  33.128  55.725  0.00  0.00    -0.260 OA
BRANCH  28  30
HETATM   30  O   UNK N   1      51.122  35.199  55.020  0.00  0.00    -0.323 OA
HETATM   31  C   UNK N   1      52.438  35.606  55.089  0.00  0.00     0.213 C 
ENDBRANCH  28  30
ENDBRANCH  20  28
ENDBRANCH   1  17
TORSDOF 9
ENDMDL
MODEL 8
REMARK VINA RESULT:      -5.3      2.834      5.338
REMARK  9 active torsions:
REMARK  status: ('A' for Active; 'I' for Inactive)
REMARK    1  A    between atoms: O_1  and  C_11 
REMARK    2  A    between atoms: O_1  and  C_12 
REMARK    3  A    between atoms: O_4  and  C_13 
REMARK    4  A    between atoms: O_5  and  C_14 
REMARK    5  A    between atoms: O_6  and  C_15 
REMARK    6  A    between atoms: O_9  and  C_20 
REMARK    7  A    between atoms: O_10  and  C_22 
REMARK    8  A    between atoms: C_16  and  C_22 
REMARK    9  A    between atoms: C_20  and  C_25 
ROOT
HETATM    1  O   UNK N   1      50.073  33.362  50.379  0.00  0.00    -0.328 OA
ENDROOT
BRANCH   1   2
HETATM    2  C   UNK N   1      49.758  32.843  51.656  0.00  0.00     0.294 C 
HETATM    3  O   UNK N   1      48.631  33.520  52.198  0.00  0.00    -0.348 OA
HETATM    4  C   UNK N   1      48.274  32.972  53.459  0.00  0.00     0.179 C 
HETATM    5  C   UNK N   1      49.389  33.264  54.489  0.00  0.00     0.180 C 
HETATM    6  C   UNK N   1      50.694  32.621  53.981  0.00  0.00     0.183 C 
HETATM    7  C   UNK N   1      50.992  33.091  52.550  0.00  0.00     0.204 C 
BRANCH   4   8
HETATM    8  C   UNK N   1      46.937  33.583  53.899  0.00  0.00     0.198 C 
BRANCH   8   9
HETATM    9  O   UNK N   1      46.390  32.852  54.964  0.00  0.00    -0.398 OA
HETATM   10  H   UNK N   1      45.449  33.150  55.065  0.00  0.00     0.209 HD
ENDBRANCH   8   9
ENDBRANCH   4   8
BRANCH   5  11
HETATM   11  O   UNK N   1      49.043  32.725  55.740  0.00  0.00    -0.390 OA
HETATM   12  H   UNK N   1      48.354  33.323  56.129  0.00  0.00     0.210 HD
ENDBRANCH   5  11
BRANCH   6  13
HETATM   13  O   UNK N   1      51.772  32.905  54.838  0.00  0.00    -0.390 OA
HETATM   14  H   UNK N   1      52.369  32.110  54.844  0.00  0.00     0.210 HD
ENDBRANCH   6  13
BRANCH   7  15
HETATM   15  O   UNK N   1      52.108  32.391  52.061  0.00  0.00    -0.388 OA
HETATM   16  H   UNK N   1      51.860  32.030  51.170  0.00  0.00     0.210 HD
ENDBRANCH   7  15
ENDBRANCH   1   2
BRANCH   1  17
HETATM   17  C   UNK N   1      49.477  32.637  49.321  0.00  0.00     0.273 C 
HETATM   18  O   UNK N   1      50.427  31.952  48.583  0.00  0.00    -0.331 OA
HETATM   19  C   UNK N   1      50.094  31.331  47.421  0.00  0.00     0.152 C 
HETATM   20  C   UNK N   1      49.017  31.726  46.703  0.00  0.00     0.051 C 
HETATM   21  C   UNK N   1      48.188  32.929  47.153  0.00  0.00     0.105 C 
HETATM   22  C   UNK N   1      48.777  33.649  48.391  0.00  0.00     0.061 C 
HETATM   23  C   UNK N   1      46.819  32.566  47.643  0.00  0.00     0.136 C 
HETATM   24  C   UNK N   1      47.548  34.276  49.083  0.00  0.00    -0.002 C 
HETATM   25  C   UNK N   1      46.454  33.196  48.944  0.00  0.00     0.083 C 
HETATM   26  C   UNK N   1      47.126  35.569  48.356  0.00  0.00     0.011 C 
HETATM   27  O   UNK N   1      46.058  31.830  47.032  0.00  0.00    -0.297 OA
BRANCH  20  28
HETATM   28  C   UNK N   1      48.632  30.998  45.465  0.00  0.00     0.291 C 
HETATM   29  O   UNK N   1      48.035  29.934  45.546  0.00  0.00    -0.260 OA
BRANCH  28  30
HETATM   30  O   UNK N   1      48.993  31.490  44.249  0.00  0.00    -0.323 OA
HETATM   31  C   UNK N   1      49.384  30.688  43.197  0.00  0.00     0.213 C 
ENDBRANCH  28  30
ENDBRANCH  20  28
ENDBRANCH   1  17
TORSDOF 9
ENDMDL
MODEL 9
REMARK VINA RESULT:      -5.2     24.352     26.202
REMARK  9 active torsions:
REMARK  status: ('A' for Active; 'I' for Inactive)
REMARK    1  A    between atoms: O_1  and  C_11 
REMARK    2  A    between atoms: O_1  and  C_12 
REMARK    3  A    between atoms: O_4  and  C_13 
REMARK    4  A    between atoms: O_5  and  C_14 
REMARK    5  A    between atoms: O_6  and  C_15 
REMARK    6  A    between atoms: O_9  and  C_20 
REMARK    7  A    between atoms: O_10  and  C_22 
REMARK    8  A    between atoms: C_16  and  C_22 
REMARK    9  A    between atoms: C_20  and  C_25 
ROOT
HETATM    1  O   UNK N   1      50.349  56.759  42.052  0.00  0.00    -0.328 OA
ENDROOT
BRANCH   1   2
HETATM    2  C   UNK N   1      49.869  56.897  40.729  0.00  0.00     0.294 C 
HETATM    3  O   UNK N   1      48.511  57.320  40.741  0.00  0.00    -0.348 OA
HETATM    4  C   UNK N   1      48.033  57.511  39.417  0.00  0.00     0.179 C 
HETATM    5  C   UNK N   1      47.971  56.151  38.683  0.00  0.00     0.180 C 
HETATM    6  C   UNK N   1      49.392  55.555  38.654  0.00  0.00     0.183 C 
HETATM    7  C   UNK N   1      49.972  55.502  40.075  0.00  0.00     0.204 C 
BRANCH   4   8
HETATM    8  C   UNK N   1      46.648  58.168  39.485  0.00  0.00     0.198 C 
BRANCH   8   9
HETATM    9  O   UNK N   1      45.643  57.225  39.222  0.00  0.00    -0.398 OA
HETATM   10  H   UNK N   1      46.004  56.602  38.540  0.00  0.00     0.209 HD
ENDBRANCH   8   9
ENDBRANCH   4   8
BRANCH   5  11
HETATM   11  O   UNK N   1      47.499  56.331  37.373  0.00  0.00    -0.390 OA
HETATM   12  H   UNK N   1      46.835  55.613  37.205  0.00  0.00     0.210 HD
ENDBRANCH   5  11
BRANCH   6  13
HETATM   13  O   UNK N   1      49.401  54.281  38.060  0.00  0.00    -0.390 OA
HETATM   14  H   UNK N   1      48.628  54.235  37.436  0.00  0.00     0.210 HD
ENDBRANCH   6  13
BRANCH   7  15
HETATM   15  O   UNK N   1      51.312  55.083  40.008  0.00  0.00    -0.388 OA
HETATM   16  H   UNK N   1      51.814  55.599  40.690  0.00  0.00     0.210 HD
ENDBRANCH   7  15
ENDBRANCH   1   2
BRANCH   1  17
HETATM   17  C   UNK N   1      49.528  57.397  43.011  0.00  0.00     0.273 C 
HETATM   18  O   UNK N   1      49.742  58.764  43.026  0.00  0.00    -0.331 OA
HETATM   19  C   UNK N   1      49.185  59.548  43.987  0.00  0.00     0.152 C 
HETATM   20  C   UNK N   1      48.825  59.032  45.185  0.00  0.00     0.051 C 
HETATM   21  C   UNK N   1      49.103  57.564  45.509  0.00  0.00     0.105 C 
HETATM   22  C   UNK N   1      49.897  56.832  44.398  0.00  0.00     0.061 C 
HETATM   23  C   UNK N   1      47.864  56.723  45.593  0.00  0.00     0.136 C 
HETATM   24  C   UNK N   1      49.457  55.358  44.528  0.00  0.00    -0.002 C 
HETATM   25  C   UNK N   1      47.945  55.448  44.824  0.00  0.00     0.083 C 
HETATM   26  C   UNK N   1      50.196  54.681  45.700  0.00  0.00     0.011 C 
HETATM   27  O   UNK N   1      46.878  57.040  46.241  0.00  0.00    -0.297 OA
BRANCH  20  28
HETATM   28  C   UNK N   1      48.163  59.890  46.204  0.00  0.00     0.291 C 
HETATM   29  O   UNK N   1      48.530  59.843  47.369  0.00  0.00    -0.260 OA
BRANCH  28  30
HETATM   30  O   UNK N   1      47.117  60.683  45.847  0.00  0.00    -0.323 OA
HETATM   31  C   UNK N   1      45.904  60.184  45.420  0.00  0.00     0.213 C 
ENDBRANCH  28  30
ENDBRANCH  20  28
ENDBRANCH   1  17
TORSDOF 9
ENDMDL
