REMARK  9 active torsions:
REMARK  status: ('A' for Active; 'I' for Inactive)
REMARK    1  A    between atoms: O_1  and  C_7 
REMARK    2  A    between atoms: O_2  and  C_8 
REMARK    3  A    between atoms: O_3  and  C_9 
REMARK    4  A    between atoms: O_4  and  C_10 
REMARK    5  A    between atoms: O_6  and  C_23 
REMARK    6  A    between atoms: C_11  and  C_19 
REMARK    7  A    between atoms: C_12  and  C_26 
REMARK    8  A    between atoms: C_20  and  C_23 
REMARK    9  A    between atoms: C_21  and  C_26 
ROOT
HETATM    1  O   UNK N   1       0.976   2.818  -1.476  0.00  0.00    -0.380 OA
HETATM    2  C   UNK N   1       0.810   1.959  -2.599  0.00  0.00     0.161 C 
HETATM    3  C   UNK N   1       1.610   0.670  -2.343  0.00  0.00     0.049 C 
HETATM    4  C   UNK N   1       1.538   0.614  -0.830  0.00  0.00     0.022 C 
HETATM    5  C   UNK N   1       1.657   2.086  -0.471  0.00  0.00     0.174 C 
ENDROOT
BRANCH   4   6
HETATM    6  C   UNK N   1       2.532  -0.347  -0.151  0.00  0.00     0.045 C 
BRANCH   6   7
HETATM    7  C   UNK N   1       2.246  -0.552   1.316  0.00  0.00    -0.055 A 
HETATM    8  C   UNK N   1       1.601  -1.728   1.722  0.00  0.00     0.046 A 
HETATM    9  C   UNK N   1       1.313  -1.964   3.077  0.00  0.00     0.101 A 
HETATM   10  C   UNK N   1       1.701  -1.011   4.039  0.00  0.00     0.099 A 
HETATM   11  C   UNK N   1       2.354   0.163   3.634  0.00  0.00     0.040 A 
HETATM   12  C   UNK N   1       2.619   0.397   2.280  0.00  0.00     0.010 A 
BRANCH   9  13
HETATM   13  O   UNK N   1       0.662  -3.092   3.479  0.00  0.00    -0.353 OA
HETATM   14  C   UNK N   1       0.186  -4.072   2.630  0.00  0.00     0.210 C 
ENDBRANCH   9  13
BRANCH  10  15
HETATM   15  O   UNK N   1       1.453  -1.205   5.351  0.00  0.00    -0.358 OA
HETATM   16  H   UNK N   1       1.007  -1.998   5.682  0.00  0.00     0.218 HD
ENDBRANCH  10  15
ENDBRANCH   6   7
ENDBRANCH   4   6
BRANCH   3  17
HETATM   17  C   UNK N   1       3.040   0.725  -2.946  0.00  0.00     0.172 C 
BRANCH  17  18
HETATM   18  O   UNK N   1       3.810   1.797  -2.476  0.00  0.00    -0.400 OA
HETATM   19  H   UNK N   1       3.571   2.586  -3.027  0.00  0.00     0.209 HD
ENDBRANCH  17  18
ENDBRANCH   3  17
BRANCH   2  20
HETATM   20  C   UNK N   1      -0.665   1.683  -2.854  0.00  0.00    -0.026 A 
HETATM   21  C   UNK N   1      -1.619   1.703  -1.818  0.00  0.00     0.049 A 
HETATM   22  C   UNK N   1      -2.985   1.468  -2.094  0.00  0.00     0.101 A 
HETATM   23  C   UNK N   1      -3.389   1.221  -3.422  0.00  0.00     0.099 A 
HETATM   24  C   UNK N   1      -2.439   1.200  -4.446  0.00  0.00     0.040 A 
HETATM   25  C   UNK N   1      -1.092   1.426  -4.168  0.00  0.00     0.012 A 
BRANCH  22  26
HETATM   26  O   UNK N   1      -3.929   1.478  -1.113  0.00  0.00    -0.353 OA
HETATM   27  C   UNK N   1      -3.684   1.693   0.227  0.00  0.00     0.210 C 
ENDBRANCH  22  26
BRANCH  23  28
HETATM   28  O   UNK N   1      -4.685   1.003  -3.728  0.00  0.00    -0.358 OA
HETATM   29  H   UNK N   1      -5.387   1.015  -3.062  0.00  0.00     0.218 HD
ENDBRANCH  23  28
ENDBRANCH   2  20
TORSDOF 9
