REMARK  6 active torsions:
REMARK  status: ('A' for Active; 'I' for Inactive)
REMARK    1  A    between atoms: O_1  and  C_7 
REMARK    2  A    between atoms: O_2  and  C_8 
REMARK    3  A    between atoms: O_3  and  C_9 
REMARK    4  A    between atoms: O_4  and  C_10 
REMARK    5  A    between atoms: C_11  and  C_19 
REMARK    6  A    between atoms: C_12  and  C_20 
ROOT
HETATM    1  O   UNK N   1      -2.441  -0.800   0.844  0.00  0.00    -0.380 OA
HETATM    2  O   UNK N   1      -0.021   1.922  -0.365  0.00  0.00    -0.380 OA
HETATM    3  C   UNK N   1      -2.623   0.277  -0.067  0.00  0.00     0.161 C 
HETATM    4  C   UNK N   1       0.165   0.787   0.469  0.00  0.00     0.161 C 
HETATM    5  C   UNK N   1      -0.405  -0.428  -0.289  0.00  0.00     0.052 C 
HETATM    6  C   UNK N   1      -1.461   0.186  -1.086  0.00  0.00     0.052 C 
HETATM    7  C   UNK N   1      -1.210  -1.419   0.522  0.00  0.00     0.176 C 
HETATM    8  C   UNK N   1      -0.791   1.493  -1.472  0.00  0.00     0.176 C 
ENDROOT
BRANCH   3   9
HETATM    9  C   UNK N   1      -3.998   0.200  -0.725  0.00  0.00    -0.026 A 
HETATM   10  C   UNK N   1      -4.209   0.659  -2.042  0.00  0.00     0.049 A 
HETATM   11  C   UNK N   1      -5.459   0.535  -2.655  0.00  0.00     0.099 A 
HETATM   12  C   UNK N   1      -6.528  -0.045  -1.951  0.00  0.00     0.098 A 
HETATM   13  C   UNK N   1      -6.335  -0.483  -0.634  0.00  0.00     0.040 A 
HETATM   14  C   UNK N   1      -5.083  -0.361  -0.024  0.00  0.00     0.012 A 
BRANCH  11  15
HETATM   15  O   UNK N   1      -5.612   0.967  -3.924  0.00  0.00    -0.358 OA
HETATM   16  H   UNK N   1      -6.449   0.889  -4.402  0.00  0.00     0.218 HD
ENDBRANCH  11  15
BRANCH  12  17
HETATM   17  O   UNK N   1      -7.733  -0.180  -2.546  0.00  0.00    -0.358 OA
HETATM   18  H   UNK N   1      -8.483  -0.591  -2.093  0.00  0.00     0.218 HD
ENDBRANCH  12  17
ENDBRANCH   3   9
BRANCH   4  19
HETATM   19  C   UNK N   1       1.630   0.554   0.771  0.00  0.00    -0.026 A 
HETATM   20  C   UNK N   1       2.614   0.971  -0.142  0.00  0.00     0.049 A 
HETATM   21  C   UNK N   1       3.966   0.711   0.097  0.00  0.00     0.099 A 
HETATM   22  C   UNK N   1       4.349   0.029   1.266  0.00  0.00     0.098 A 
HETATM   23  C   UNK N   1       3.370  -0.386   2.182  0.00  0.00     0.040 A 
HETATM   24  C   UNK N   1       2.017  -0.130   1.934  0.00  0.00     0.012 A 
BRANCH  21  25
HETATM   25  O   UNK N   1       4.881   1.113  -0.810  0.00  0.00    -0.358 OA
HETATM   26  H   UNK N   1       5.827   0.944  -0.702  0.00  0.00     0.218 HD
ENDBRANCH  21  25
BRANCH  22  27
HETATM   27  O   UNK N   1       5.654  -0.229   1.498  0.00  0.00    -0.358 OA
HETATM   28  H   UNK N   1       5.949  -0.703   2.288  0.00  0.00     0.218 HD
ENDBRANCH  22  27
ENDBRANCH   4  19
TORSDOF 6
