REMARK  6 active torsions:
REMARK  status: ('A' for Active; 'I' for Inactive)
REMARK    1  A    between atoms: O_2  and  C_8 
REMARK    2  A    between atoms: O_3  and  C_9 
REMARK    3  A    between atoms: O_4  and  C_10 
REMARK    4  A    between atoms: O_5  and  C_11 
REMARK    5  A    between atoms: O_6  and  C_20 
REMARK    6  A    between atoms: C_12  and  C_19 
ROOT
HETATM    1  O   UNK N   1      -0.212   0.097  -1.020  0.00  0.00    -0.335 OA
HETATM    2  C   UNK N   1       0.956   0.188  -0.339  0.00  0.00     0.112 A 
HETATM    3  C   UNK N   1       2.106   0.651  -0.995  0.00  0.00     0.133 A 
HETATM    4  C   UNK N   1       3.339   0.700  -0.296  0.00  0.00     0.101 A 
HETATM    5  C   UNK N   1       1.016  -0.192   1.018  0.00  0.00    -0.019 A 
HETATM    6  C   UNK N   1       3.384   0.312   1.050  0.00  0.00     0.040 A 
HETATM    7  C   UNK N   1       2.234  -0.133   1.702  0.00  0.00     0.013 A 
HETATM    8  C   UNK N   1      -1.304  -0.618  -0.555  0.00  0.00     0.191 C 
HETATM    9  C   UNK N   1      -1.504  -0.325   0.947  0.00  0.00     0.156 C 
HETATM   10  C   UNK N   1      -0.224  -0.689   1.719  0.00  0.00     0.076 C 
ENDROOT
BRANCH   8  11
HETATM   11  C   UNK N   1      -2.511  -0.226  -1.375  0.00  0.00    -0.024 A 
HETATM   12  C   UNK N   1      -3.238  -1.192  -2.089  0.00  0.00     0.049 A 
HETATM   13  C   UNK N   1      -4.353  -0.820  -2.851  0.00  0.00     0.099 A 
HETATM   14  C   UNK N   1      -4.746   0.532  -2.903  0.00  0.00     0.098 A 
HETATM   15  C   UNK N   1      -4.018   1.495  -2.193  0.00  0.00     0.040 A 
HETATM   16  C   UNK N   1      -2.910   1.120  -1.435  0.00  0.00     0.013 A 
BRANCH  13  17
HETATM   17  O   UNK N   1      -5.036  -1.769  -3.525  0.00  0.00    -0.358 OA
HETATM   18  H   UNK N   1      -5.813  -1.561  -4.064  0.00  0.00     0.218 HD
ENDBRANCH  13  17
BRANCH  14  19
HETATM   19  O   UNK N   1      -5.819   0.898  -3.636  0.00  0.00    -0.358 OA
HETATM   20  H   UNK N   1      -6.107   1.821  -3.688  0.00  0.00     0.218 HD
ENDBRANCH  14  19
ENDBRANCH   8  11
BRANCH   9  21
HETATM   21  O   UNK N   1      -2.579  -1.054   1.481  0.00  0.00    -0.392 OA
HETATM   22  H   UNK N   1      -3.413  -0.667   1.108  0.00  0.00     0.210 HD
ENDBRANCH   9  21
BRANCH   3  23
HETATM   23  O   UNK N   1       1.996   1.033  -2.289  0.00  0.00    -0.356 OA
HETATM   24  H   UNK N   1       2.713   1.425  -2.801  0.00  0.00     0.218 HD
ENDBRANCH   3  23
BRANCH   4  25
HETATM   25  O   UNK N   1       4.490   1.092  -0.885  0.00  0.00    -0.358 OA
HETATM   26  H   UNK N   1       4.574   1.293  -1.825  0.00  0.00     0.218 HD
ENDBRANCH   4  25
TORSDOF 6
