REMARK  10 active torsions:
REMARK  status: ('A' for Active; 'I' for Inactive)
REMARK    1  A    between atoms: O_1  and  C_7 
REMARK    2  A    between atoms: O_1  and  C_18 
REMARK    3  A    between atoms: O_2  and  C_7 
REMARK    4  A    between atoms: O_3  and  C_8 
REMARK    5  A    between atoms: O_4  and  C_9 
REMARK    6  A    between atoms: O_6  and  C_19 
REMARK    7  A    between atoms: C_11  and  C_16 
REMARK    8  A    between atoms: C_16  and  C_27 
REMARK    9  A    between atoms: C_19  and  C_31 
REMARK   10  A    between atoms: C_27  and  C_32 
ROOT
HETATM    1  C   UNK N   1       3.417   1.992   0.183  0.00  0.00     0.178 C 
HETATM    2  C   UNK N   1      -1.800  -1.252   3.345  0.00  0.00     0.124 C 
HETATM    3  C   UNK N   1      -4.163   1.546   2.169  0.00  0.00     0.124 C 
HETATM    4  C   UNK N   1      -2.774  -0.061   3.249  0.00  0.00     0.030 C 
HETATM    5  C   UNK N   1      -3.466   0.191   1.894  0.00  0.00     0.025 C 
HETATM    6  C   UNK N   1      -2.118   1.318   3.569  0.00  0.00    -0.031 C 
HETATM    7  C   UNK N   1       1.663   0.468   2.269  0.00  0.00    -0.035 C 
HETATM    8  C   UNK N   1       0.239   0.282   2.993  0.00  0.00     0.001 C 
HETATM    9  C   UNK N   1      -0.730   1.482   2.804  0.00  0.00    -0.001 C 
HETATM   10  C   UNK N   1       2.288   1.913   2.559  0.00  0.00     0.007 C 
HETATM   11  C   UNK N   1       3.619   2.282   1.724  0.00  0.00     0.014 C 
HETATM   12  C   UNK N   1       2.885   0.539  -0.012  0.00  0.00     0.070 C 
HETATM   13  C   UNK N   1      -3.135   2.352   2.981  0.00  0.00     0.042 C 
HETATM   14  C   UNK N   1      -0.521  -1.009   2.535  0.00  0.00     0.038 C 
HETATM   15  C   UNK N   1       1.552   0.297   0.724  0.00  0.00     0.015 C 
HETATM   16  C   UNK N   1      -0.021   2.779   3.221  0.00  0.00     0.006 C 
HETATM   17  C   UNK N   1       1.201   3.014   2.364  0.00  0.00     0.007 C 
HETATM   18  C   UNK N   1      -1.981   1.502   5.102  0.00  0.00     0.016 C 
HETATM   19  C   UNK N   1       2.558  -0.666   2.862  0.00  0.00     0.016 C 
HETATM   20  C   UNK N   1       3.998   3.787   1.911  0.00  0.00     0.021 C 
HETATM   21  C   UNK N   1       4.883   1.543   2.264  0.00  0.00     0.021 C 
ENDROOT
BRANCH   5  22
HETATM   22  C   UNK N   1      -4.366  -0.959   1.316  0.00  0.00    -0.008 C 
HETATM   23  C   UNK N   1      -5.469  -1.466   2.269  0.00  0.00     0.011 C 
BRANCH  22  24
HETATM   24  C   UNK N   1      -5.003  -0.511  -0.020  0.00  0.00     0.031 C 
BRANCH  24  25
HETATM   25  C   UNK N   1      -3.981  -0.394  -1.124  0.00  0.00    -0.027 C 
HETATM   26  C   UNK N   1      -4.184   0.182  -2.329  0.00  0.00     0.006 C 
BRANCH  26  27
HETATM   27  C   UNK N   1      -5.401   0.986  -2.800  0.00  0.00     0.068 C 
HETATM   28  C   UNK N   1      -6.768   0.310  -2.564  0.00  0.00     0.050 C 
HETATM   29  C   UNK N   1      -5.373   2.363  -2.117  0.00  0.00     0.050 C 
BRANCH  27  30
HETATM   30  O   UNK N   1      -5.256   1.222  -4.180  0.00  0.00    -0.387 OA
HETATM   31  H   UNK N   1      -5.294   0.343  -4.645  0.00  0.00     0.211 HD
ENDBRANCH  27  30
ENDBRANCH  26  27
ENDBRANCH  24  25
ENDBRANCH  22  24
ENDBRANCH   5  22
BRANCH   3  32
HETATM   32  O   UNK N   1      -5.362   1.402   2.896  0.00  0.00    -0.395 OA
HETATM   33  H   UNK N   1      -5.168   1.233   3.852  0.00  0.00     0.210 HD
ENDBRANCH   3  32
BRANCH   2  34
HETATM   34  O   UNK N   1      -1.467  -1.478   4.691  0.00  0.00    -0.395 OA
HETATM   35  H   UNK N   1      -1.077  -2.389   4.748  0.00  0.00     0.210 HD
ENDBRANCH   2  34
BRANCH   1  36
HETATM   36  O   UNK N   1       4.645   2.150  -0.456  0.00  0.00    -0.283 OA
BRANCH  36  37
HETATM   37  C   UNK N   1       4.898   2.030  -1.790  0.00  0.00     0.257 C 
HETATM   38  O   UNK N   1       4.000   1.826  -2.591  0.00  0.00    -0.266 OA
HETATM   39  C   UNK N   1       6.308   2.150  -2.274  0.00  0.00     0.126 C 
ENDBRANCH  36  37
ENDBRANCH   1  36
BRANCH   1  40
HETATM   40  O   UNK N   1       2.501   2.929  -0.343  0.00  0.00    -0.364 OA
HETATM   41  H   UNK N   1       2.134   2.591  -1.200  0.00  0.00     0.213 HD
ENDBRANCH   1  40
TORSDOF 10
