REMARK  6 active torsions:
REMARK  status: ('A' for Active; 'I' for Inactive)
REMARK    1  A    between atoms: O_2  and  C_7 
REMARK    2  A    between atoms: O_3  and  C_8 
REMARK    3  A    between atoms: O_5  and  C_20 
REMARK    4  A    between atoms: C_9  and  C_18 
REMARK    5  A    between atoms: C_11  and  C_23 
REMARK    6  A    between atoms: C_20  and  C_25 
ROOT
HETATM    1  O   UNK N   1       0.150   1.254  -2.144  0.00  0.00    -0.339 OA
HETATM    2  O   UNK N   1      -3.631   0.137  -1.787  0.00  0.00    -0.292 OA
HETATM    3  C   UNK N   1      -0.673   1.629  -3.167  0.00  0.00     0.099 A 
HETATM    4  C   UNK N   1      -2.897   1.607  -4.177  0.00  0.00     0.087 A 
HETATM    5  C   UNK N   1      -1.075   2.781  -5.278  0.00  0.00     0.084 A 
HETATM    6  C   UNK N   1      -2.021   1.212  -3.150  0.00  0.00     0.077 A 
HETATM    7  C   UNK N   1      -0.180   2.402  -4.247  0.00  0.00     0.032 A 
HETATM    8  C   UNK N   1      -2.415   2.387  -5.232  0.00  0.00     0.075 A 
HETATM    9  C   UNK N   1      -0.329   0.766  -0.932  0.00  0.00     0.169 C 
HETATM   10  C   UNK N   1      -2.452   0.332  -2.035  0.00  0.00     0.167 C 
HETATM   11  C   UNK N   1      -1.380  -0.309  -1.200  0.00  0.00     0.121 C 
ENDROOT
BRANCH   7  12
HETATM   12  C   UNK N   1       1.258   2.793  -4.359  0.00  0.00     0.016 C 
HETATM   13  C   UNK N   1       2.059   3.032  -3.301  0.00  0.00     0.011 C 
BRANCH  13  14
HETATM   14  C   UNK N   1       3.535   3.407  -3.408  0.00  0.00     0.068 C 
HETATM   15  C   UNK N   1       4.193   3.050  -4.759  0.00  0.00     0.050 C 
HETATM   16  C   UNK N   1       3.661   4.917  -3.174  0.00  0.00     0.050 C 
BRANCH  14  17
HETATM   17  O   UNK N   1       4.239   2.746  -2.384  0.00  0.00    -0.387 OA
HETATM   18  H   UNK N   1       4.072   1.770  -2.475  0.00  0.00     0.211 HD
ENDBRANCH  14  17
ENDBRANCH  13  14
ENDBRANCH   7  12
BRANCH   5  19
HETATM   19  O   UNK N   1      -0.665   3.568  -6.300  0.00  0.00    -0.355 OA
HETATM   20  C   UNK N   1      -0.439   4.919  -6.114  0.00  0.00     0.210 C 
ENDBRANCH   5  19
BRANCH   9  21
HETATM   21  C   UNK N   1       0.808   0.240  -0.091  0.00  0.00    -0.029 A 
HETATM   22  C   UNK N   1       0.867   0.557   1.277  0.00  0.00     0.010 A 
HETATM   23  C   UNK N   1       1.908   0.066   2.070  0.00  0.00     0.001 A 
HETATM   24  C   UNK N   1       2.906  -0.729   1.502  0.00  0.00     0.000 A 
HETATM   25  C   UNK N   1       2.861  -1.043   0.140  0.00  0.00     0.001 A 
HETATM   26  C   UNK N   1       1.811  -0.570  -0.654  0.00  0.00     0.010 A 
ENDBRANCH   9  21
BRANCH   4  27
HETATM   27  O   UNK N   1      -4.194   1.233  -4.153  0.00  0.00    -0.355 OA
HETATM   28  C   UNK N   1      -4.659   0.173  -4.899  0.00  0.00     0.210 C 
ENDBRANCH   4  27
TORSDOF 6
