REMARK  2 active torsions:
REMARK  status: ('A' for Active; 'I' for Inactive)
REMARK    1  A    between atoms: O_1  and  C_4 
REMARK    2  A    between atoms: O_2  and  C_5 
ROOT
HETATM    1  O   UNK N   1       5.167   1.390  -1.231  0.00  0.00    -0.293 OA
HETATM    2  C   UNK N   1      -3.707  -0.052  -3.369  0.00  0.00     0.176 C 
HETATM    3  C   UNK N   1      -4.697   1.075  -3.010  0.00  0.00     0.151 C 
HETATM    4  C   UNK N   1       0.328   0.548  -1.623  0.00  0.00    -0.000 C 
HETATM    5  C   UNK N   1      -0.831   1.376  -1.009  0.00  0.00     0.003 C 
HETATM    6  C   UNK N   1       1.678   1.213  -1.280  0.00  0.00     0.010 C 
HETATM    7  C   UNK N   1      -2.222   0.674  -1.299  0.00  0.00    -0.014 C 
HETATM    8  C   UNK N   1       1.912   1.403   0.237  0.00  0.00    -0.009 C 
HETATM    9  C   UNK N   1       3.972   1.386  -1.011  0.00  0.00     0.156 C 
HETATM   10  C   UNK N   1      -2.333   0.276  -2.789  0.00  0.00    -0.044 C 
HETATM   11  C   UNK N   1       3.316   1.953   0.187  0.00  0.00    -0.008 C 
HETATM   12  C   UNK N   1      -4.740   1.297  -1.484  0.00  0.00     0.036 C 
HETATM   13  C   UNK N   1       2.987   0.637  -1.853  0.00  0.00     0.089 C 
HETATM   14  C   UNK N   1      -0.594   1.724   0.499  0.00  0.00     0.007 C 
HETATM   15  C   UNK N   1       0.155   0.492  -3.153  0.00  0.00     0.033 C 
HETATM   16  C   UNK N   1      -3.348   1.710  -0.980  0.00  0.00     0.017 C 
HETATM   17  C   UNK N   1       0.797   2.346   0.753  0.00  0.00     0.015 C 
HETATM   18  C   UNK N   1      -2.422  -0.605  -0.438  0.00  0.00     0.020 C 
HETATM   19  C   UNK N   1       1.953   0.066   1.030  0.00  0.00     0.021 C 
HETATM   20  C   UNK N   1      -1.255   0.231  -3.607  0.00  0.00    -0.020 C 
HETATM   21  C   UNK N   1       3.844   2.780   1.121  0.00  0.00    -0.020 C 
HETATM   22  C   UNK N   1       5.231   3.363   1.079  0.00  0.00     0.036 C 
ENDROOT
BRANCH   2  23
HETATM   23  O   UNK N   1      -4.149  -1.281  -2.853  0.00  0.00    -0.389 OA
HETATM   24  H   UNK N   1      -4.844  -1.628  -3.472  0.00  0.00     0.210 HD
ENDBRANCH   2  23
BRANCH   3  25
HETATM   25  O   UNK N   1      -5.978   0.808  -3.526  0.00  0.00    -0.393 OA
HETATM   26  H   UNK N   1      -6.388   0.088  -2.980  0.00  0.00     0.210 HD
ENDBRANCH   3  25
TORSDOF 2
