REMARK  5 active torsions:
REMARK  status: ('A' for Active; 'I' for Inactive)
REMARK    1  A    between atoms: O_1  and  C_5 
REMARK    2  A    between atoms: O_2  and  C_16 
REMARK    3  A    between atoms: C_14  and  C_21 
REMARK    4  A    between atoms: C_15  and  C_22 
REMARK    5  A    between atoms: C_16  and  C_22 
ROOT
HETATM    1  N   UNK N   1      -1.668   2.155  -2.361  0.00  0.00    -0.357 N 
HETATM    2  N   UNK N   1      -0.895   0.170   0.732  0.00  0.00     0.099 N 
HETATM    3  C   UNK N   1      -5.385   1.284  -3.896  0.00  0.00     0.066 A 
HETATM    4  C   UNK N   1      -2.846   1.945  -2.982  0.00  0.00     0.043 A 
HETATM    5  C   UNK N   1      -1.712   1.431  -1.218  0.00  0.00     0.050 A 
HETATM    6  C   UNK N   1      -3.644   1.109  -2.238  0.00  0.00     0.002 A 
HETATM    7  C   UNK N   1      -2.925   0.784  -1.104  0.00  0.00    -0.019 A 
HETATM    8  C   UNK N   1      -4.926   0.759  -2.664  0.00  0.00     0.051 A 
HETATM    9  C   UNK N   1      -4.549   2.133  -4.660  0.00  0.00     0.039 A 
HETATM   10  C   UNK N   1      -3.263   2.471  -4.200  0.00  0.00     0.033 A 
HETATM   11  C   UNK N   1      -0.624   1.318  -0.178  0.00  0.00     0.273 C 
HETATM   12  C   UNK N   1       1.509  -0.005   1.324  0.00  0.00     0.040 C 
HETATM   13  C   UNK N   1       1.851   1.082   0.266  0.00  0.00    -0.001 C 
HETATM   14  C   UNK N   1       0.069   0.180   1.851  0.00  0.00     0.282 C 
HETATM   15  C   UNK N   1      -2.291   0.183   1.223  0.00  0.00     0.278 C 
HETATM   16  C   UNK N   1      -3.287  -0.074   0.067  0.00  0.00     0.072 C 
HETATM   17  C   UNK N   1       0.751   1.111  -0.821  0.00  0.00     0.047 C 
HETATM   18  H   UNK N   1      -0.881   2.747  -2.708  0.00  0.00     0.166 HD
ENDROOT
BRANCH  13  19
HETATM   19  C   UNK N   1       3.247   0.818  -0.360  0.00  0.00     0.031 C 
BRANCH  19  20
HETATM   20  C   UNK N   1       3.678   1.866  -1.399  0.00  0.00     0.164 C 
BRANCH  20  21
HETATM   21  O   UNK N   1       4.937   1.546  -1.925  0.00  0.00    -0.401 OA
HETATM   22  H   UNK N   1       5.593   1.655  -1.189  0.00  0.00     0.209 HD
ENDBRANCH  20  21
ENDBRANCH  19  20
ENDBRANCH  13  19
BRANCH  12  23
HETATM   23  C   UNK N   1       2.466   0.069   2.499  0.00  0.00    -0.030 C 
HETATM   24  C   UNK N   1       3.267  -0.948   2.834  0.00  0.00     0.007 C 
ENDBRANCH  12  23
BRANCH   3  25
HETATM   25  O   UNK N   1      -6.619   0.988  -4.352  0.00  0.00    -0.361 OA
HETATM   26  H   UNK N   1      -7.225   0.422  -3.854  0.00  0.00     0.217 HD
ENDBRANCH   3  25
TORSDOF 5
