REMARK  9 active torsions:
REMARK  status: ('A' for Active; 'I' for Inactive)
REMARK    1  A    between atoms: O_3  and  C_15 
REMARK    2  A    between atoms: O_3  and  C_23 
REMARK    3  A    between atoms: O_4  and  C_16 
REMARK    4  A    between atoms: O_4  and  C_24 
REMARK    5  A    between atoms: O_9  and  C_25 
REMARK    6  A    between atoms: C_12  and  C_18 
REMARK    7  A    between atoms: C_20  and  C_21 
REMARK    8  A    between atoms: C_22  and  C_32 
REMARK    9  A    between atoms: C_25  and  C_32 
ROOT
HETATM    1  O   UNK N   1       3.598   1.203  -1.366  0.00  0.00    -0.363 OA
HETATM    2  C   UNK N   1       2.281   0.855  -0.991  0.00  0.00     0.121 A 
HETATM    3  C   UNK N   1       0.345   1.025   0.580  0.00  0.00     0.174 C 
HETATM    4  C   UNK N   1      -0.304  -0.187  -0.149  0.00  0.00     0.171 C 
HETATM    5  C   UNK N   1       2.563   2.127  -1.660  0.00  0.00     0.163 A 
HETATM    6  C   UNK N   1       2.517   2.497   0.752  0.00  0.00     0.037 C 
HETATM    7  C   UNK N   1       1.912   1.087   0.468  0.00  0.00     0.031 C 
HETATM    8  C   UNK N   1       0.067  -0.240  -1.691  0.00  0.00     0.061 C 
HETATM    9  C   UNK N   1       1.620  -0.270  -1.740  0.00  0.00    -0.044 C 
HETATM   10  C   UNK N   1       2.422   3.224  -0.608  0.00  0.00     0.046 C 
HETATM   11  C   UNK N   1       2.578   0.002   1.351  0.00  0.00     0.022 C 
HETATM   12  C   UNK N   1       2.410  -1.212  -2.299  0.00  0.00     0.018 C 
ENDROOT
BRANCH   8  13
HETATM   13  C   UNK N   1      -0.802  -1.287  -2.556  0.00  0.00    -0.011 C 
HETATM   14  C   UNK N   1      -2.383  -0.925  -2.475  0.00  0.00     0.023 C 
HETATM   15  C   UNK N   1      -3.353  -2.168  -2.668  0.00  0.00     0.022 C 
HETATM   16  C   UNK N   1      -2.901  -3.225  -1.677  0.00  0.00     0.157 C 
HETATM   17  C   UNK N   1      -4.841  -1.827  -2.381  0.00  0.00     0.024 C 
HETATM   18  C   UNK N   1      -3.307  -2.800  -4.075  0.00  0.00     0.024 C 
HETATM   19  O   UNK N   1      -3.706  -3.865  -1.014  0.00  0.00    -0.292 OA
HETATM   20  C   UNK N   1      -1.477  -3.534  -1.557  0.00  0.00     0.048 C 
HETATM   21  C   UNK N   1      -0.531  -2.692  -1.991  0.00  0.00    -0.013 C 
HETATM   22  C   UNK N   1      -0.336  -1.197  -4.048  0.00  0.00     0.021 C 
BRANCH  14  23
HETATM   23  C   UNK N   1      -2.746   0.361  -3.302  0.00  0.00     0.117 C 
BRANCH  23  24
HETATM   24  C   UNK N   1      -4.050   0.991  -2.900  0.00  0.00     0.258 C 
HETATM   25  O   UNK N   1      -4.921   1.182  -3.730  0.00  0.00    -0.265 OA
BRANCH  24  26
HETATM   26  O   UNK N   1      -4.240   1.323  -1.594  0.00  0.00    -0.326 OA
HETATM   27  C   UNK N   1      -5.457   1.722  -1.086  0.00  0.00     0.213 C 
ENDBRANCH  24  26
ENDBRANCH  23  24
ENDBRANCH  14  23
ENDBRANCH   8  13
BRANCH   4  28
HETATM   28  O   UNK N   1       0.045  -1.363   0.493  0.00  0.00    -0.313 OA
BRANCH  28  29
HETATM   29  C   UNK N   1      -0.748  -2.016   1.388  0.00  0.00     0.255 C 
HETATM   30  O   UNK N   1      -1.827  -1.556   1.728  0.00  0.00    -0.266 OA
HETATM   31  C   UNK N   1      -0.270  -3.298   1.982  0.00  0.00     0.126 C 
ENDBRANCH  28  29
ENDBRANCH   4  28
BRANCH   3  32
HETATM   32  O   UNK N   1      -0.256   2.164   0.065  0.00  0.00    -0.313 OA
BRANCH  32  33
HETATM   33  C   UNK N   1      -1.332   2.772   0.642  0.00  0.00     0.255 C 
HETATM   34  O   UNK N   1      -1.840   2.325   1.659  0.00  0.00    -0.266 OA
HETATM   35  C   UNK N   1      -1.912   3.988   0.004  0.00  0.00     0.126 C 
ENDBRANCH  32  33
ENDBRANCH   3  32
BRANCH   6  36
HETATM   36  C   UNK N   1       1.935   3.265   1.922  0.00  0.00    -0.029 A 
HETATM   37  C   UNK N   1       1.922   2.876   3.248  0.00  0.00     0.148 A 
HETATM   38  O   UNK N   1       1.322   3.801   3.964  0.00  0.00    -0.334 OA
HETATM   39  C   UNK N   1       0.943   4.783   3.177  0.00  0.00     0.142 A 
HETATM   40  C   UNK N   1       1.310   4.497   1.881  0.00  0.00     0.034 A 
ENDBRANCH   6  36
TORSDOF 9
