REMARK  4 active torsions:
REMARK  status: ('A' for Active; 'I' for Inactive)
REMARK    1  A    between atoms: O_2  and  C_10 
REMARK    2  A    between atoms: O_2  and  C_17 
REMARK    3  A    between atoms: O_3  and  C_11 
REMARK    4  A    between atoms: C_8  and  C_12 
ROOT
HETATM    1  O   UNK N   1      -4.057   0.877  -3.446  0.00  0.00    -0.292 OA
HETATM    2  C   UNK N   1       2.392   1.041   0.216  0.00  0.00     0.102 C 
HETATM    3  C   UNK N   1      -1.148   0.225   1.518  0.00  0.00     0.131 C 
HETATM    4  C   UNK N   1       3.690   0.584   0.940  0.00  0.00     0.064 C 
HETATM    5  C   UNK N   1      -0.033   1.310   1.334  0.00  0.00     0.013 C 
HETATM    6  C   UNK N   1      -1.722   2.569  -0.362  0.00  0.00    -0.017 C 
HETATM    7  C   UNK N   1      -0.265   2.024  -0.059  0.00  0.00     0.013 C 
HETATM    8  C   UNK N   1      -2.819   1.465  -0.071  0.00  0.00     0.016 C 
HETATM    9  C   UNK N   1      -3.377   1.306  -2.525  0.00  0.00     0.157 C 
HETATM   10  C   UNK N   1       1.372   0.662   1.265  0.00  0.00    -0.037 C 
HETATM   11  C   UNK N   1      -2.574   0.808   1.321  0.00  0.00     0.039 C 
HETATM   12  C   UNK N   1      -1.798   3.059  -1.808  0.00  0.00    -0.013 C 
HETATM   13  C   UNK N   1      -3.190   0.478  -1.263  0.00  0.00     0.022 C 
HETATM   14  C   UNK N   1       2.294   2.569   0.023  0.00  0.00     0.045 C 
HETATM   15  C   UNK N   1       3.256  -0.642   1.754  0.00  0.00     0.040 C 
HETATM   16  C   UNK N   1       0.890   3.012  -0.449  0.00  0.00     0.010 C 
HETATM   17  C   UNK N   1      -0.005   2.271   2.556  0.00  0.00     0.023 C 
HETATM   18  C   UNK N   1      -2.078   3.838   0.466  0.00  0.00     0.020 C 
HETATM   19  C   UNK N   1      -2.572   2.515  -2.754  0.00  0.00     0.048 C 
HETATM   20  C   UNK N   1       1.867  -0.238   2.119  0.00  0.00    -0.019 C 
HETATM   21  C   UNK N   1      -4.539  -0.232  -0.942  0.00  0.00     0.024 C 
HETATM   22  C   UNK N   1      -2.177  -0.633  -1.610  0.00  0.00     0.024 C 
ENDROOT
BRANCH   4  23
HETATM   23  C   UNK N   1       4.934   0.404   0.105  0.00  0.00    -0.026 A 
HETATM   24  C   UNK N   1       5.378  -0.755  -0.506  0.00  0.00     0.148 A 
HETATM   25  O   UNK N   1       6.486  -0.496  -1.164  0.00  0.00    -0.334 OA
HETATM   26  C   UNK N   1       6.793   0.774  -1.014  0.00  0.00     0.142 A 
HETATM   27  C   UNK N   1       5.844   1.386  -0.220  0.00  0.00     0.034 A 
ENDBRANCH   4  23
BRANCH   2  28
HETATM   28  O   UNK N   1       2.160   0.294  -0.937  0.00  0.00    -0.305 OA
BRANCH  28  29
HETATM   29  C   UNK N   1       2.883   0.374  -2.093  0.00  0.00     0.255 C 
HETATM   30  O   UNK N   1       3.553   1.354  -2.353  0.00  0.00    -0.266 OA
HETATM   31  C   UNK N   1       2.900  -0.802  -3.015  0.00  0.00     0.126 C 
ENDBRANCH  28  29
ENDBRANCH   2  28
BRANCH   3  32
HETATM   32  O   UNK N   1      -1.066  -0.343   2.803  0.00  0.00    -0.394 OA
HETATM   33  H   UNK N   1      -1.688  -1.116   2.826  0.00  0.00     0.210 HD
ENDBRANCH   3  32
TORSDOF 4
