REMARK  6 active torsions:
REMARK  status: ('A' for Active; 'I' for Inactive)
REMARK    1  A    between atoms: O_2  and  C_9 
REMARK    2  A    between atoms: O_3  and  C_10 
REMARK    3  A    between atoms: O_3  and  C_19 
REMARK    4  A    between atoms: O_4  and  C_11 
REMARK    5  A    between atoms: O_4  and  C_20 
REMARK    6  A    between atoms: C_17  and  C_26 
ROOT
HETATM    1  O   UNK N   1      -5.597   0.630  -3.332  0.00  0.00    -0.292 OA
HETATM    2  C   UNK N   1      -1.565   0.505   1.031  0.00  0.00     0.145 C 
HETATM    3  C   UNK N   1       1.782   1.676  -1.609  0.00  0.00     0.145 C 
HETATM    4  C   UNK N   1      -0.413   1.294   0.331  0.00  0.00     0.012 C 
HETATM    5  C   UNK N   1       1.804   0.324  -0.858  0.00  0.00     0.015 C 
HETATM    6  C   UNK N   1      -2.223   2.225  -1.454  0.00  0.00    -0.017 C 
HETATM    7  C   UNK N   1      -0.816   1.542  -1.177  0.00  0.00     0.015 C 
HETATM    8  C   UNK N   1      -3.382   1.481  -0.658  0.00  0.00     0.016 C 
HETATM    9  C   UNK N   1       3.162   0.105  -0.121  0.00  0.00     0.043 C 
HETATM   10  C   UNK N   1      -4.530   0.914  -2.806  0.00  0.00     0.157 C 
HETATM   11  C   UNK N   1       0.904   0.482   0.349  0.00  0.00    -0.061 C 
HETATM   12  C   UNK N   1       0.357   2.094  -2.067  0.00  0.00     0.040 C 
HETATM   13  C   UNK N   1      -2.948   1.189   0.821  0.00  0.00     0.040 C 
HETATM   14  C   UNK N   1      -2.491   2.263  -2.965  0.00  0.00    -0.013 C 
HETATM   15  C   UNK N   1      -4.147   0.338  -1.454  0.00  0.00     0.022 C 
HETATM   16  C   UNK N   1       2.793  -0.646   1.168  0.00  0.00     0.038 C 
HETATM   17  C   UNK N   1      -0.100   2.587   1.140  0.00  0.00     0.023 C 
HETATM   18  C   UNK N   1       1.437  -0.897  -1.740  0.00  0.00     0.023 C 
HETATM   19  C   UNK N   1      -2.255   3.732  -1.063  0.00  0.00     0.020 C 
HETATM   20  C   UNK N   1      -3.553   1.705  -3.559  0.00  0.00     0.048 C 
HETATM   21  C   UNK N   1       1.460  -0.039   1.447  0.00  0.00    -0.021 C 
HETATM   22  C   UNK N   1      -3.370  -0.958  -1.754  0.00  0.00     0.024 C 
HETATM   23  C   UNK N   1      -5.437  -0.075  -0.691  0.00  0.00     0.024 C 
ENDROOT
BRANCH   9  24
HETATM   24  C   UNK N   1       4.327  -0.466  -0.902  0.00  0.00     0.024 A 
HETATM   25  C   UNK N   1       5.438   0.268  -1.443  0.00  0.00     0.292 A 
HETATM   26  O   UNK N   1       6.290  -0.563  -2.064  0.00  0.00    -0.283 OA
HETATM   27  O   UNK N   1       5.592   1.475  -1.387  0.00  0.00    -0.259 OA
HETATM   28  C   UNK N   1       5.837  -1.875  -1.976  0.00  0.00     0.291 A 
HETATM   29  C   UNK N   1       4.539  -1.738  -1.204  0.00  0.00     0.047 A 
BRANCH  28  30
HETATM   30  O   UNK N   1       6.746  -2.658  -1.254  0.00  0.00    -0.367 OA
HETATM   31  H   UNK N   1       7.547  -2.755  -1.833  0.00  0.00     0.213 HD
ENDBRANCH  28  30
ENDBRANCH   9  24
BRANCH   3  32
HETATM   32  O   UNK N   1       2.687   1.695  -2.658  0.00  0.00    -0.315 OA
BRANCH  32  33
HETATM   33  C   UNK N   1       3.156   2.831  -3.240  0.00  0.00     0.255 C 
HETATM   34  O   UNK N   1       2.876   3.931  -2.782  0.00  0.00    -0.266 OA
HETATM   35  C   UNK N   1       4.051   2.731  -4.432  0.00  0.00     0.126 C 
ENDBRANCH  32  33
ENDBRANCH   3  32
BRANCH   2  36
HETATM   36  O   UNK N   1      -1.587  -0.807   0.587  0.00  0.00    -0.315 OA
BRANCH  36  37
HETATM   37  C   UNK N   1      -1.410  -1.904   1.379  0.00  0.00     0.255 C 
HETATM   38  O   UNK N   1      -1.265  -1.792   2.588  0.00  0.00    -0.266 OA
HETATM   39  C   UNK N   1      -1.389  -3.266   0.761  0.00  0.00     0.126 C 
ENDBRANCH  36  37
ENDBRANCH   2  36
TORSDOF 6
