REMARK  12 active torsions:
REMARK  status: ('A' for Active; 'I' for Inactive)
REMARK    1  A    between atoms: O_1  and  C_7 
REMARK    2  A    between atoms: O_2  and  C_8 
REMARK    3  A    between atoms: O_4  and  C_9 
REMARK    4  A    between atoms: O_5  and  C_10 
REMARK    5  A    between atoms: O_6  and  C_12 
REMARK    6  A    between atoms: C_7  and  C_16 
REMARK    7  A    between atoms: C_7  and  C_17 
REMARK    8  A    between atoms: C_8  and  C_18 
REMARK    9  A    between atoms: C_8  and  C_19 
REMARK   10  A    between atoms: C_11  and  C_16 
REMARK   11  A    between atoms: C_19  and  C_27 
REMARK   12  A    between atoms: C_20  and  C_27 
ROOT
HETATM    1  C   UNK N   1      -0.247   0.343   1.860  0.00  0.00    -0.016 C 
HETATM    2  C   UNK N   1      -0.895  -0.929   2.579  0.00  0.00     0.006 C 
HETATM    3  C   UNK N   1      -1.020  -0.704  -0.377  0.00  0.00    -0.048 C 
HETATM    4  C   UNK N   1      -0.311   0.275   0.286  0.00  0.00    -0.066 C 
HETATM    5  C   UNK N   1      -1.180  -0.774   4.151  0.00  0.00    -0.043 C 
HETATM    6  C   UNK N   1      -1.007   1.630   2.310  0.00  0.00     0.014 C 
HETATM    7  C   UNK N   1      -2.167  -1.305   1.803  0.00  0.00     0.011 C 
HETATM    8  C   UNK N   1       1.260   0.437   2.233  0.00  0.00     0.020 C 
HETATM    9  C   UNK N   1      -1.811  -1.735   0.394  0.00  0.00     0.037 C 
HETATM   10  C   UNK N   1      -1.900   0.571   4.422  0.00  0.00     0.009 C 
HETATM   11  C   UNK N   1      -1.137   1.766   3.834  0.00  0.00     0.002 C 
HETATM   12  C   UNK N   1      -2.088  -1.919   4.686  0.00  0.00     0.015 C 
HETATM   13  C   UNK N   1       0.099  -0.886   5.032  0.00  0.00     0.015 C 
ENDROOT
BRANCH   3  14
HETATM   14  C   UNK N   1      -1.076  -0.818  -1.918  0.00  0.00     0.150 C 
BRANCH  14  15
HETATM   15  O   UNK N   1      -0.513  -2.043  -2.318  0.00  0.00    -0.391 OA
HETATM   16  H   UNK N   1      -1.150  -2.769  -2.084  0.00  0.00     0.210 HD
ENDBRANCH  14  15
BRANCH  14  17
HETATM   17  C   UNK N   1      -2.510  -0.669  -2.503  0.00  0.00     0.071 C 
BRANCH  17  18
HETATM   18  C   UNK N   1      -3.175   0.694  -2.157  0.00  0.00     0.155 C 
HETATM   19  O   UNK N   1      -2.423   1.805  -2.641  0.00  0.00    -0.381 OA
HETATM   20  C   UNK N   1      -2.472   1.924  -4.058  0.00  0.00     0.202 C 
HETATM   21  C   UNK N   1      -3.912   2.105  -4.569  0.00  0.00     0.173 C 
HETATM   22  C   UNK N   1      -4.785   0.927  -4.104  0.00  0.00     0.180 C 
HETATM   23  C   UNK N   1      -4.663   0.808  -2.576  0.00  0.00     0.178 C 
BRANCH  21  24
HETATM   24  O   UNK N   1      -3.940   2.240  -5.968  0.00  0.00    -0.391 OA
HETATM   25  H   UNK N   1      -3.599   1.393  -6.359  0.00  0.00     0.210 HD
ENDBRANCH  21  24
BRANCH  22  26
HETATM   26  O   UNK N   1      -6.123   1.103  -4.500  0.00  0.00    -0.390 OA
HETATM   27  H   UNK N   1      -6.461   1.933  -4.071  0.00  0.00     0.210 HD
ENDBRANCH  22  26
BRANCH  23  28
HETATM   28  O   UNK N   1      -5.393  -0.292  -2.095  0.00  0.00    -0.390 OA
HETATM   29  H   UNK N   1      -6.351  -0.033  -2.111  0.00  0.00     0.210 HD
ENDBRANCH  23  28
ENDBRANCH  17  18
ENDBRANCH  14  17
ENDBRANCH   3  14
BRANCH   4  30
HETATM   30  C   UNK N   1       0.439   1.356  -0.512  0.00  0.00     0.038 C 
BRANCH  30  31
HETATM   31  C   UNK N   1       1.802   0.861  -1.054  0.00  0.00     0.040 C 
BRANCH  31  32
HETATM   32  C   UNK N   1       2.608   1.947  -1.812  0.00  0.00     0.140 C 
BRANCH  32  33
HETATM   33  O   UNK N   1       3.839   1.413  -2.238  0.00  0.00    -0.392 OA
HETATM   34  H   UNK N   1       4.318   1.071  -1.436  0.00  0.00     0.210 HD
ENDBRANCH  32  33
BRANCH  32  35
HETATM   35  C   UNK N   1       2.791   3.234  -1.017  0.00  0.00    -0.006 C 
HETATM   36  C   UNK N   1       3.982   3.747  -0.681  0.00  0.00     0.009 C 
ENDBRANCH  32  35
ENDBRANCH  31  32
ENDBRANCH  30  31
ENDBRANCH   4  30
TORSDOF 12
