REMARK  12 active torsions:
REMARK  status: ('A' for Active; 'I' for Inactive)
REMARK    1  A    between atoms: O_1  and  C_7 
REMARK    2  A    between atoms: O_2  and  C_8 
REMARK    3  A    between atoms: O_4  and  C_9 
REMARK    4  A    between atoms: O_5  and  C_10 
REMARK    5  A    between atoms: O_6  and  C_12 
REMARK    6  A    between atoms: C_7  and  C_16 
REMARK    7  A    between atoms: C_7  and  C_17 
REMARK    8  A    between atoms: C_8  and  C_18 
REMARK    9  A    between atoms: C_8  and  C_19 
REMARK   10  A    between atoms: C_11  and  C_16 
REMARK   11  A    between atoms: C_19  and  C_27 
REMARK   12  A    between atoms: C_20  and  C_27 
ROOT
HETATM    1  C   UNK N   1       0.332  -0.522   1.924  0.00  0.00    -0.016 C 
HETATM    2  C   UNK N   1      -0.899  -0.476   2.924  0.00  0.00     0.006 C 
HETATM    3  C   UNK N   1      -1.097   1.030   0.466  0.00  0.00    -0.048 C 
HETATM    4  C   UNK N   1      -0.110   0.060   0.538  0.00  0.00    -0.066 C 
HETATM    5  C   UNK N   1      -0.733  -1.225   4.314  0.00  0.00    -0.043 C 
HETATM    6  C   UNK N   1       0.793  -2.010   1.831  0.00  0.00     0.014 C 
HETATM    7  C   UNK N   1      -1.349   0.981   3.062  0.00  0.00     0.011 C 
HETATM    8  C   UNK N   1       1.559   0.338   2.353  0.00  0.00     0.020 C 
HETATM    9  C   UNK N   1      -1.838   1.507   1.720  0.00  0.00     0.037 C 
HETATM   10  C   UNK N   1      -0.195  -2.654   4.044  0.00  0.00     0.009 C 
HETATM   11  C   UNK N   1       1.077  -2.652   3.196  0.00  0.00     0.002 C 
HETATM   12  C   UNK N   1      -2.124  -1.390   4.983  0.00  0.00     0.015 C 
HETATM   13  C   UNK N   1       0.159  -0.501   5.359  0.00  0.00     0.015 C 
ENDROOT
BRANCH   3  14
HETATM   14  C   UNK N   1      -1.574   1.660  -0.860  0.00  0.00     0.150 C 
BRANCH  14  15
HETATM   15  O   UNK N   1      -1.305   3.041  -0.848  0.00  0.00    -0.391 OA
HETATM   16  H   UNK N   1      -2.005   3.497  -0.311  0.00  0.00     0.210 HD
ENDBRANCH  14  15
BRANCH  14  17
HETATM   17  C   UNK N   1      -3.080   1.380  -1.135  0.00  0.00     0.071 C 
BRANCH  17  18
HETATM   18  C   UNK N   1      -3.574   1.997  -2.475  0.00  0.00     0.155 C 
HETATM   19  O   UNK N   1      -2.838   1.522  -3.601  0.00  0.00    -0.381 OA
HETATM   20  C   UNK N   1      -3.129   0.164  -3.909  0.00  0.00     0.202 C 
HETATM   21  C   UNK N   1      -4.618  -0.042  -4.238  0.00  0.00     0.173 C 
HETATM   22  C   UNK N   1      -5.482   0.422  -3.053  0.00  0.00     0.180 C 
HETATM   23  C   UNK N   1      -5.103   1.874  -2.717  0.00  0.00     0.178 C 
BRANCH  21  24
HETATM   24  O   UNK N   1      -4.883  -1.381  -4.571  0.00  0.00    -0.391 OA
HETATM   25  H   UNK N   1      -4.679  -1.935  -3.772  0.00  0.00     0.210 HD
ENDBRANCH  21  24
BRANCH  22  26
HETATM   26  O   UNK N   1      -6.851   0.304  -3.350  0.00  0.00    -0.390 OA
HETATM   27  H   UNK N   1      -7.045   0.890  -4.129  0.00  0.00     0.210 HD
ENDBRANCH  22  26
BRANCH  23  28
HETATM   28  O   UNK N   1      -5.815   2.335  -1.596  0.00  0.00    -0.390 OA
HETATM   29  H   UNK N   1      -6.748   2.498  -1.892  0.00  0.00     0.210 HD
ENDBRANCH  23  28
ENDBRANCH  17  18
ENDBRANCH  14  17
ENDBRANCH   3  14
BRANCH   4  30
HETATM   30  C   UNK N   1       0.559  -0.466  -0.752  0.00  0.00     0.038 C 
BRANCH  30  31
HETATM   31  C   UNK N   1       1.740   0.404  -1.224  0.00  0.00     0.040 C 
BRANCH  31  32
HETATM   32  C   UNK N   1       2.427  -0.112  -2.513  0.00  0.00     0.140 C 
BRANCH  32  33
HETATM   33  O   UNK N   1       3.467   0.766  -2.878  0.00  0.00    -0.392 OA
HETATM   34  H   UNK N   1       4.084   0.849  -2.103  0.00  0.00     0.210 HD
ENDBRANCH  32  33
BRANCH  32  35
HETATM   35  C   UNK N   1       2.917  -1.552  -2.399  0.00  0.00    -0.006 C 
HETATM   36  C   UNK N   1       4.196  -1.921  -2.547  0.00  0.00     0.009 C 
ENDBRANCH  32  35
ENDBRANCH  31  32
ENDBRANCH  30  31
ENDBRANCH   4  30
TORSDOF 12
