REMARK  1 active torsions:
REMARK  status: ('A' for Active; 'I' for Inactive)
REMARK    1  A    between atoms: O_1  and  C_3 
ROOT
HETATM    1  O   UNK N   1      -4.887   0.853  -3.806  0.00  0.00    -0.297 OA
HETATM    2  C   UNK N   1       2.694   0.451  -0.410  0.00  0.00     0.150 C 
HETATM    3  C   UNK N   1       1.644   1.414   0.276  0.00  0.00    -0.000 C 
HETATM    4  C   UNK N   1       0.321   1.661  -0.610  0.00  0.00    -0.029 C 
HETATM    5  C   UNK N   1      -2.235   0.603  -0.710  0.00  0.00    -0.035 C 
HETATM    6  C   UNK N   1      -0.627   0.347  -0.656  0.00  0.00     0.003 C 
HETATM    7  C   UNK N   1       1.363   0.732   1.668  0.00  0.00     0.019 C 
HETATM    8  C   UNK N   1      -2.481   1.918  -1.525  0.00  0.00     0.009 C 
HETATM    9  C   UNK N   1      -4.468   0.910  -2.659  0.00  0.00     0.135 C 
HETATM   10  C   UNK N   1       3.279  -0.272   0.747  0.00  0.00     0.002 C 
HETATM   11  C   UNK N   1       2.573  -0.127   1.849  0.00  0.00    -0.023 C 
HETATM   12  C   UNK N   1      -3.939   2.216  -2.077  0.00  0.00     0.017 C 
HETATM   13  C   UNK N   1      -0.520   2.824  -0.029  0.00  0.00     0.011 C 
HETATM   14  C   UNK N   1      -2.896  -0.588  -1.494  0.00  0.00     0.017 C 
HETATM   15  C   UNK N   1      -0.230  -0.754   0.383  0.00  0.00     0.007 C 
HETATM   16  C   UNK N   1       0.095  -0.136   1.742  0.00  0.00     0.010 C 
HETATM   17  C   UNK N   1      -1.806   3.143  -0.834  0.00  0.00     0.007 C 
HETATM   18  C   UNK N   1       2.406   2.743   0.619  0.00  0.00     0.020 C 
HETATM   19  C   UNK N   1       0.767   2.078  -2.053  0.00  0.00     0.016 C 
HETATM   20  C   UNK N   1      -2.896   0.661   0.704  0.00  0.00     0.016 C 
HETATM   21  C   UNK N   1      -4.376  -0.349  -1.844  0.00  0.00     0.080 C 
HETATM   22  C   UNK N   1      -3.852   3.292  -3.195  0.00  0.00     0.023 C 
HETATM   23  C   UNK N   1      -4.955   2.761  -1.039  0.00  0.00     0.023 C 
ENDROOT
BRANCH   2  24
HETATM   24  O   UNK N   1       3.721   1.133  -1.088  0.00  0.00    -0.391 OA
HETATM   25  H   UNK N   1       3.394   1.349  -1.996  0.00  0.00     0.210 HD
ENDBRANCH   2  24
TORSDOF 1
