REMARK  18 active torsions:
REMARK  status: ('A' for Active; 'I' for Inactive)
REMARK    1  A    between atoms: O_2  and  C_4 
REMARK    2  A    between atoms: O_3  and  C_5 
REMARK    3  A    between atoms: C_4  and  C_14 
REMARK    4  A    between atoms: C_5  and  C_15 
REMARK    5  A    between atoms: C_6  and  C_7 
REMARK    6  A    between atoms: C_6  and  C_8 
REMARK    7  A    between atoms: C_7  and  C_9 
REMARK    8  A    between atoms: C_8  and  C_10 
REMARK    9  A    between atoms: C_9  and  C_11 
REMARK   10  A    between atoms: C_10  and  C_12 
REMARK   11  A    between atoms: C_12  and  C_15 
REMARK   12  A    between atoms: C_13  and  C_16 
REMARK   13  A    between atoms: C_14  and  C_17 
REMARK   14  A    between atoms: C_16  and  C_18 
REMARK   15  A    between atoms: C_17  and  C_19 
REMARK   16  A    between atoms: C_18  and  C_20 
REMARK   17  A    between atoms: C_19  and  C_21 
REMARK   18  A    between atoms: C_20  and  C_21 
ROOT
HETATM    1  C   UNK N   1       2.002  -0.376   2.189  0.00  0.00    -0.014 C 
HETATM    2  C   UNK N   1       2.789  -0.341   3.094  0.00  0.00    -0.092 C 
ENDROOT
BRANCH   2   3
HETATM    3  C   UNK N   1       3.748  -0.296   4.184  0.00  0.00     0.095 C 
BRANCH   3   4
HETATM    4  C   UNK N   1       4.333   1.088   4.388  0.00  0.00     0.012 C 
BRANCH   4   5
HETATM    5  C   UNK N   1       5.093   1.670   3.193  0.00  0.00     0.001 C 
BRANCH   5   6
HETATM    6  C   UNK N   1       6.313   0.852   2.728  0.00  0.00     0.000 C 
BRANCH   6   7
HETATM    7  C   UNK N   1       7.072   1.426   1.524  0.00  0.00     0.001 C 
BRANCH   7   8
HETATM    8  C   UNK N   1       6.245   1.586   0.235  0.00  0.00     0.010 C 
BRANCH   8   9
HETATM    9  C   UNK N   1       5.657   0.297  -0.324  0.00  0.00     0.110 C 
BRANCH   9  10
HETATM   10  C   UNK N   1       4.870   0.521  -1.581  0.00  0.00     0.139 C 
HETATM   11  O   UNK N   1       4.708   1.608  -2.118  0.00  0.00    -0.650 OA
BRANCH  10  12
HETATM   12  O   UNK N   1       4.342  -0.639  -2.040  0.00  0.00    -0.776 OA
HETATM   13  H   UNK N   1       3.825  -0.507  -2.862  0.00  0.00     0.167 HD
ENDBRANCH  10  12
ENDBRANCH   9  10
ENDBRANCH   8   9
ENDBRANCH   7   8
ENDBRANCH   6   7
ENDBRANCH   5   6
ENDBRANCH   4   5
ENDBRANCH   3   4
ENDBRANCH   2   3
BRANCH   1  14
HETATM   14  C   UNK N   1       1.098  -0.413   1.147  0.00  0.00    -0.001 C 
BRANCH  14  15
HETATM   15  C   UNK N   1       0.312  -0.449   0.241  0.00  0.00    -0.000 C 
BRANCH  15  16
HETATM   16  C   UNK N   1      -0.594  -0.493  -0.798  0.00  0.00    -0.000 C 
BRANCH  16  17
HETATM   17  C   UNK N   1      -1.383  -0.534  -1.704  0.00  0.00    -0.001 C 
BRANCH  17  18
HETATM   18  C   UNK N   1      -2.282  -0.584  -2.750  0.00  0.00    -0.014 C 
BRANCH  18  19
HETATM   19  C   UNK N   1      -3.070  -0.626  -3.654  0.00  0.00    -0.090 C 
BRANCH  19  20
HETATM   20  C   UNK N   1      -4.023  -0.679  -4.761  0.00  0.00     0.121 C 
BRANCH  20  21
HETATM   21  C   UNK N   1      -5.447  -0.387  -4.298  0.00  0.00     0.176 C 
BRANCH  21  22
HETATM   22  O   UNK N   1      -5.539   0.908  -3.722  0.00  0.00    -0.400 OA
HETATM   23  H   UNK N   1      -4.992   0.910  -2.916  0.00  0.00     0.209 HD
ENDBRANCH  21  22
ENDBRANCH  20  21
ENDBRANCH  19  20
ENDBRANCH  18  19
ENDBRANCH  17  18
ENDBRANCH  16  17
ENDBRANCH  15  16
ENDBRANCH  14  15
ENDBRANCH   1  14
TORSDOF 18
