REMARK  7 active torsions:
REMARK  status: ('A' for Active; 'I' for Inactive)
REMARK    1  A    between atoms: O_3  and  C_10 
REMARK    2  A    between atoms: O_4  and  C_11 
REMARK    3  A    between atoms: O_5  and  C_12 
REMARK    4  A    between atoms: O_6  and  C_13 
REMARK    5  A    between atoms: C_15  and  C_16 
REMARK    6  A    between atoms: C_17  and  C_22 
REMARK    7  A    between atoms: C_22  and  C_24 
ROOT
HETATM    1  O   UNK N   1       0.797   0.038  -1.529  0.00  0.00    -0.320 OA
HETATM    2  O   UNK N   1      -0.416   2.623  -4.292  0.00  0.00    -0.286 OA
HETATM    3  C   UNK N   1       1.714   0.834  -2.077  0.00  0.00     0.101 A 
HETATM    4  C   UNK N   1      -0.488   0.078  -1.858  0.00  0.00     0.159 A 
HETATM    5  C   UNK N   1      -0.032   1.837  -3.443  0.00  0.00     0.200 A 
HETATM    6  C   UNK N   1       2.326   2.617  -3.632  0.00  0.00     0.085 A 
HETATM    7  C   UNK N   1       4.032   1.594  -2.221  0.00  0.00     0.077 A 
HETATM    8  C   UNK N   1       1.335   1.777  -3.065  0.00  0.00     0.083 A 
HETATM    9  C   UNK N   1      -0.954   0.974  -2.822  0.00  0.00     0.050 A 
HETATM   10  C   UNK N   1       3.061   0.728  -1.658  0.00  0.00     0.013 A 
HETATM   11  C   UNK N   1       3.656   2.516  -3.198  0.00  0.00     0.074 A 
ENDROOT
BRANCH   9  12
HETATM   12  C   UNK N   1      -2.400   0.977  -3.160  0.00  0.00     0.013 A 
HETATM   13  C   UNK N   1      -3.309   1.792  -2.455  0.00  0.00     0.079 A 
HETATM   14  C   UNK N   1      -4.679   1.745  -2.769  0.00  0.00     0.073 A 
HETATM   15  C   UNK N   1      -5.147   0.890  -3.771  0.00  0.00     0.068 A 
HETATM   16  C   UNK N   1      -4.243   0.076  -4.467  0.00  0.00     0.037 A 
HETATM   17  C   UNK N   1      -2.878   0.119  -4.163  0.00  0.00     0.018 A 
BRANCH  13  18
HETATM   18  O   UNK N   1      -2.868   2.608  -1.474  0.00  0.00    -0.360 OA
HETATM   19  H   UNK N   1      -3.477   3.165  -0.967  0.00  0.00     0.217 HD
ENDBRANCH  13  18
BRANCH  15  20
HETATM   20  O   UNK N   1      -6.466   0.854  -4.054  0.00  0.00    -0.361 OA
HETATM   21  H   UNK N   1      -6.826   0.273  -4.740  0.00  0.00     0.217 HD
ENDBRANCH  15  20
ENDBRANCH   9  12
BRANCH   6  22
HETATM   22  O   UNK N   1       2.008   3.524  -4.581  0.00  0.00    -0.360 OA
HETATM   23  H   UNK N   1       2.676   4.106  -4.974  0.00  0.00     0.217 HD
ENDBRANCH   6  22
BRANCH  10  24
HETATM   24  C   UNK N   1       3.435  -0.315  -0.623  0.00  0.00     0.072 C 
BRANCH  24  25
HETATM   25  C   UNK N   1       3.346   0.274   0.766  0.00  0.00    -0.020 C 
HETATM   26  C   UNK N   1       2.568  -0.183   1.781  0.00  0.00    -0.091 C 
HETATM   27  C   UNK N   1       2.590   0.539   3.104  0.00  0.00     0.042 C 
HETATM   28  C   UNK N   1       1.662  -1.391   1.688  0.00  0.00     0.042 C 
ENDBRANCH  24  25
ENDBRANCH  10  24
BRANCH   7  29
HETATM   29  O   UNK N   1       5.330   1.573  -1.836  0.00  0.00    -0.360 OA
HETATM   30  H   UNK N   1       5.677   1.027  -1.120  0.00  0.00     0.217 HD
ENDBRANCH   7  29
TORSDOF 7
