REMARK  5 active torsions:
REMARK  status: ('A' for Active; 'I' for Inactive)
REMARK    1  A    between atoms: O_2  and  C_7 
REMARK    2  A    between atoms: O_3  and  C_8 
REMARK    3  A    between atoms: O_4  and  C_9 
REMARK    4  A    between atoms: C_6  and  C_20 
REMARK    5  A    between atoms: C_11  and  C_20 
ROOT
HETATM    1  O   UNK N   1       0.538   1.344   0.029  0.00  0.00    -0.311 OA
HETATM    2  C   UNK N   1       1.795   1.045  -0.173  0.00  0.00     0.122 A 
HETATM    3  C   UNK N   1       0.074   0.580   0.993  0.00  0.00     0.059 A 
HETATM    4  C   UNK N   1       2.658   1.594  -1.131  0.00  0.00     0.136 A 
HETATM    5  C   UNK N   1       3.986   1.114  -1.158  0.00  0.00     0.101 A 
HETATM    6  C   UNK N   1       2.190   0.068   0.696  0.00  0.00     0.003 A 
HETATM    7  C   UNK N   1       1.086  -0.258   1.459  0.00  0.00     0.047 A 
HETATM    8  C   UNK N   1       4.402   0.114  -0.239  0.00  0.00     0.040 A 
HETATM    9  C   UNK N   1       3.495  -0.420   0.699  0.00  0.00     0.017 A 
ENDROOT
BRANCH   3  10
HETATM   10  C   UNK N   1      -1.347   0.649   1.456  0.00  0.00     0.103 C 
BRANCH  10  11
HETATM   11  C   UNK N   1      -2.271   0.673   0.261  0.00  0.00    -0.052 A 
HETATM   12  C   UNK N   1      -2.826  -0.510  -0.250  0.00  0.00     0.010 A 
HETATM   13  C   UNK N   1      -3.669  -0.466  -1.369  0.00  0.00     0.037 A 
HETATM   14  C   UNK N   1      -3.965   0.756  -1.985  0.00  0.00     0.065 A 
HETATM   15  C   UNK N   1      -3.410   1.940  -1.480  0.00  0.00     0.037 A 
HETATM   16  C   UNK N   1      -2.567   1.899  -0.366  0.00  0.00     0.010 A 
BRANCH  14  17
HETATM   17  O   UNK N   1      -4.779   0.784  -3.060  0.00  0.00    -0.361 OA
HETATM   18  H   UNK N   1      -5.004   1.613  -3.508  0.00  0.00     0.217 HD
ENDBRANCH  14  17
ENDBRANCH  10  11
ENDBRANCH   3  10
BRANCH   4  19
HETATM   19  O   UNK N   1       2.258   2.541  -2.022  0.00  0.00    -0.351 OA
HETATM   20  C   UNK N   1       0.970   3.037  -2.121  0.00  0.00     0.210 C 
ENDBRANCH   4  19
BRANCH   5  21
HETATM   21  O   UNK N   1       4.852   1.608  -2.068  0.00  0.00    -0.358 OA
HETATM   22  H   UNK N   1       5.765   1.294  -2.126  0.00  0.00     0.218 HD
ENDBRANCH   5  21
TORSDOF 5
