REMARK  7 active torsions:
REMARK  status: ('A' for Active; 'I' for Inactive)
REMARK    1  A    between atoms: O_1  and  C_3 
REMARK    2  A    between atoms: O_2  and  C_10 
REMARK    3  A    between atoms: C_4  and  C_9 
REMARK    4  A    between atoms: C_9  and  C_12 
REMARK    5  A    between atoms: C_10  and  C_14 
REMARK    6  A    between atoms: C_10  and  C_15 
REMARK    7  A    between atoms: C_12  and  C_15 
ROOT
HETATM    1  C   UNK N   1      -0.568  -0.260  -2.645  0.00  0.00     0.014 C 
HETATM    2  C   UNK N   1      -0.076  -1.672  -3.010  0.00  0.00     0.015 C 
ENDROOT
BRANCH   1   3
HETATM    3  C   UNK N   1      -2.047  -0.324  -2.292  0.00  0.00    -0.052 A 
HETATM    4  C   UNK N   1      -2.991   0.329  -3.109  0.00  0.00     0.044 A 
HETATM    5  C   UNK N   1      -4.359   0.257  -2.812  0.00  0.00     0.072 A 
HETATM    6  C   UNK N   1      -4.804  -0.459  -1.688  0.00  0.00    -0.029 A 
HETATM    7  C   UNK N   1      -3.862  -1.105  -0.868  0.00  0.00     0.010 A 
HETATM    8  C   UNK N   1      -6.269  -0.541  -1.361  0.00  0.00     0.051 C 
HETATM    9  C   UNK N   1      -2.501  -1.043  -1.171  0.00  0.00     0.008 A 
BRANCH   5  10
HETATM   10  O   UNK N   1      -5.257   0.883  -3.610  0.00  0.00    -0.360 OA
HETATM   11  H   UNK N   1      -4.980   1.388  -4.387  0.00  0.00     0.217 HD
ENDBRANCH   5  10
ENDBRANCH   1   3
BRANCH   1  12
HETATM   12  C   UNK N   1       0.252   0.383  -1.496  0.00  0.00     0.012 C 
BRANCH  12  13
HETATM   13  C   UNK N   1       1.756   0.493  -1.823  0.00  0.00     0.037 C 
BRANCH  13  14
HETATM   14  C   UNK N   1       2.589   1.133  -0.691  0.00  0.00     0.146 C 
BRANCH  14  15
HETATM   15  O   UNK N   1       3.939   1.233  -1.078  0.00  0.00    -0.391 OA
HETATM   16  H   UNK N   1       4.239   0.340  -1.395  0.00  0.00     0.210 HD
ENDBRANCH  14  15
BRANCH  14  17
HETATM   17  C   UNK N   1       2.486   0.369   0.624  0.00  0.00    -0.065 C 
HETATM   18  C   UNK N   1       1.991   0.970   1.718  0.00  0.00     0.016 C 
HETATM   19  C   UNK N   1       2.943  -1.068   0.698  0.00  0.00     0.045 C 
ENDBRANCH  14  17
ENDBRANCH  13  14
ENDBRANCH  12  13
ENDBRANCH   1  12
TORSDOF 7
