REMARK  9 active torsions:
REMARK  status: ('A' for Active; 'I' for Inactive)
REMARK    1  A    between atoms: O_1  and  C_7 
REMARK    2  A    between atoms: O_1  and  C_19 
REMARK    3  A    between atoms: O_2  and  C_8 
REMARK    4  A    between atoms: O_3  and  C_9 
REMARK    5  A    between atoms: C_9  and  C_16 
REMARK    6  A    between atoms: C_9  and  C_20 
REMARK    7  A    between atoms: C_10  and  C_16 
REMARK    8  A    between atoms: C_20  and  C_32 
REMARK    9  A    between atoms: C_32  and  C_35 
ROOT
HETATM    1  O   UNK N   1       5.657   1.535  -1.434  0.00  0.00    -0.293 OA
HETATM    2  C   UNK N   1      -3.305   2.535   0.965  0.00  0.00     0.138 C 
HETATM    3  C   UNK N   1       1.773   3.213   0.892  0.00  0.00     0.124 C 
HETATM    4  C   UNK N   1      -3.146   1.167   0.211  0.00  0.00     0.031 C 
HETATM    5  C   UNK N   1       2.690   2.061   0.392  0.00  0.00     0.038 C 
HETATM    6  C   UNK N   1       1.876   0.790  -0.057  0.00  0.00    -0.007 A 
HETATM    7  C   UNK N   1      -2.432   0.231   1.252  0.00  0.00    -0.030 C 
HETATM    8  C   UNK N   1       0.490   0.496   0.560  0.00  0.00    -0.023 A 
HETATM    9  C   UNK N   1      -1.493   1.251   2.034  0.00  0.00    -0.029 C 
HETATM   10  C   UNK N   1      -0.256   1.725   1.153  0.00  0.00     0.006 C 
HETATM   11  C   UNK N   1       3.623   2.548  -0.755  0.00  0.00     0.063 C 
HETATM   12  C   UNK N   1       4.463   1.389  -1.223  0.00  0.00     0.153 C 
HETATM   13  C   UNK N   1      -2.459   2.423   2.256  0.00  0.00     0.043 C 
HETATM   14  C   UNK N   1       0.690   2.741   1.865  0.00  0.00     0.038 C 
HETATM   15  C   UNK N   1       1.685  -0.092   1.244  0.00  0.00     0.026 A 
HETATM   16  C   UNK N   1       2.602  -0.178  -0.995  0.00  0.00    -0.012 C 
HETATM   17  C   UNK N   1      -1.572  -0.926   0.642  0.00  0.00     0.011 C 
HETATM   18  C   UNK N   1      -0.415  -0.452  -0.246  0.00  0.00     0.012 C 
HETATM   19  C   UNK N   1      -3.513  -0.429   2.168  0.00  0.00     0.016 C 
HETATM   20  C   UNK N   1      -0.988   0.690   3.393  0.00  0.00     0.016 C 
HETATM   21  C   UNK N   1       2.860   3.108  -1.975  0.00  0.00     0.018 C 
HETATM   22  C   UNK N   1       3.816   0.096  -1.494  0.00  0.00     0.047 C 
ENDROOT
BRANCH   4  23
HETATM   23  C   UNK N   1      -4.424   0.701  -0.593  0.00  0.00     0.025 C 
HETATM   24  C   UNK N   1      -4.272  -0.682  -1.264  0.00  0.00     0.013 C 
BRANCH  23  25
HETATM   25  C   UNK N   1      -4.800   1.757  -1.680  0.00  0.00     0.196 C 
BRANCH  25  26
HETATM   26  O   UNK N   1      -3.741   1.953  -2.591  0.00  0.00    -0.387 OA
HETATM   27  H   UNK N   1      -3.652   1.146  -3.158  0.00  0.00     0.210 HD
ENDBRANCH  25  26
BRANCH  25  28
HETATM   28  C   UNK N   1      -6.105   1.469  -2.411  0.00  0.00     0.184 C 
HETATM   29  O   UNK N   1      -6.092   1.245  -3.613  0.00  0.00    -0.290 OA
BRANCH  28  30
HETATM   30  C   UNK N   1      -7.402   1.762  -1.759  0.00  0.00    -0.016 C 
HETATM   31  C   UNK N   1      -7.991   2.937  -2.036  0.00  0.00     0.023 C 
BRANCH  30  32
HETATM   32  C   UNK N   1      -8.052   0.752  -0.824  0.00  0.00     0.013 C 
HETATM   33  C   UNK N   1      -8.192   1.314   0.596  0.00  0.00     0.015 C 
HETATM   34  C   UNK N   1      -9.424   0.316  -1.364  0.00  0.00     0.015 C 
ENDBRANCH  30  32
ENDBRANCH  28  30
ENDBRANCH  25  28
ENDBRANCH  23  25
ENDBRANCH   4  23
BRANCH   2  35
HETATM   35  O   UNK N   1      -4.625   2.816   1.290  0.00  0.00    -0.316 OA
BRANCH  35  36
HETATM   36  C   UNK N   1      -5.028   3.978   1.880  0.00  0.00     0.255 C 
HETATM   37  O   UNK N   1      -4.234   4.867   2.122  0.00  0.00    -0.266 OA
HETATM   38  C   UNK N   1      -6.472   4.153   2.231  0.00  0.00     0.126 C 
ENDBRANCH  35  36
ENDBRANCH   2  35
BRANCH   3  39
HETATM   39  O   UNK N   1       2.540   4.246   1.460  0.00  0.00    -0.395 OA
HETATM   40  H   UNK N   1       2.974   3.883   2.276  0.00  0.00     0.210 HD
ENDBRANCH   3  39
TORSDOF 9
