REMARK  4 active torsions:
REMARK  status: ('A' for Active; 'I' for Inactive)
REMARK    1  A    between atoms: O_1  and  C_5 
REMARK    2  A    between atoms: O_4  and  C_13 
REMARK    3  A    between atoms: O_4  and  C_15 
REMARK    4  A    between atoms: C_11  and  C_15 
ROOT
HETATM    1  O   UNK N   1      -3.808   1.151   1.261  0.00  0.00    -0.297 OA
HETATM    2  C   UNK N   1       4.462   2.569  -1.469  0.00  0.00     0.150 C 
HETATM    3  C   UNK N   1       3.064   2.407  -2.169  0.00  0.00    -0.000 C 
HETATM    4  C   UNK N   1       2.030   1.372  -1.474  0.00  0.00    -0.029 C 
HETATM    5  C   UNK N   1       0.224   1.082   0.540  0.00  0.00    -0.035 C 
HETATM    6  C   UNK N   1       1.369   1.990  -0.147  0.00  0.00     0.003 C 
HETATM    7  C   UNK N   1      -0.873   0.734  -0.552  0.00  0.00     0.012 C 
HETATM    8  C   UNK N   1      -2.160  -0.037  -0.025  0.00  0.00     0.043 C 
HETATM    9  C   UNK N   1       2.562   3.878  -2.217  0.00  0.00     0.019 C 
HETATM   10  C   UNK N   1      -2.660   0.730   1.203  0.00  0.00     0.137 C 
HETATM   11  C   UNK N   1       4.877   3.928  -1.938  0.00  0.00     0.002 C 
HETATM   12  C   UNK N   1       3.845   4.634  -2.381  0.00  0.00    -0.023 C 
HETATM   13  C   UNK N   1       0.852   1.015  -2.437  0.00  0.00     0.011 C 
HETATM   14  C   UNK N   1      -0.515   1.849   1.705  0.00  0.00     0.017 C 
HETATM   15  C   UNK N   1       0.845   3.440  -0.442  0.00  0.00     0.007 C 
HETATM   16  C   UNK N   1      -0.227   0.102  -1.813  0.00  0.00     0.007 C 
HETATM   17  C   UNK N   1       1.962   4.353  -0.896  0.00  0.00     0.010 C 
HETATM   18  C   UNK N   1       3.344   2.008  -3.673  0.00  0.00     0.020 C 
HETATM   19  C   UNK N   1       2.846   0.073  -1.194  0.00  0.00     0.016 C 
HETATM   20  C   UNK N   1       0.905  -0.153   1.214  0.00  0.00     0.016 C 
HETATM   21  C   UNK N   1      -1.907  -1.519   0.348  0.00  0.00     0.026 C 
HETATM   22  C   UNK N   1      -1.704   1.066   2.309  0.00  0.00     0.080 C 
ENDROOT
BRANCH   8  23
HETATM   23  C   UNK N   1      -3.277  -0.047  -1.116  0.00  0.00     0.196 C 
BRANCH  23  24
HETATM   24  O   UNK N   1      -3.582   1.250  -1.483  0.00  0.00    -0.321 OA
BRANCH  24  25
HETATM   25  C   UNK N   1      -4.558   1.589  -2.358  0.00  0.00     0.254 C 
HETATM   26  O   UNK N   1      -5.236   0.734  -2.906  0.00  0.00    -0.266 OA
HETATM   27  C   UNK N   1      -4.806   3.037  -2.630  0.00  0.00     0.126 C 
ENDBRANCH  24  25
ENDBRANCH  23  24
ENDBRANCH   8  23
BRANCH   2  28
HETATM   28  O   UNK N   1       5.394   1.607  -1.899  0.00  0.00    -0.391 OA
HETATM   29  H   UNK N   1       5.522   0.957  -1.162  0.00  0.00     0.210 HD
ENDBRANCH   2  28
TORSDOF 4
