REMARK  8 active torsions:
REMARK  status: ('A' for Active; 'I' for Inactive)
REMARK    1  A    between atoms: O_3  and  C_10 
REMARK    2  A    between atoms: O_4  and  C_11 
REMARK    3  A    between atoms: O_5  and  C_12 
REMARK    4  A    between atoms: O_6  and  C_22 
REMARK    5  A    between atoms: C_14  and  C_15 
REMARK    6  A    between atoms: C_16  and  C_24 
REMARK    7  A    between atoms: C_22  and  C_24 
REMARK    8  A    between atoms: C_22  and  C_25 
ROOT
HETATM    1  O   UNK N   1      -1.889   2.264  -4.114  0.00  0.00    -0.321 OA
HETATM    2  O   UNK N   1      -0.675  -0.215  -1.248  0.00  0.00    -0.286 OA
HETATM    3  C   UNK N   1      -2.792   1.485  -3.532  0.00  0.00     0.094 A 
HETATM    4  C   UNK N   1      -0.605   2.229  -3.795  0.00  0.00     0.159 A 
HETATM    5  C   UNK N   1      -1.057   0.542  -2.119  0.00  0.00     0.200 A 
HETATM    6  C   UNK N   1      -3.431  -0.263  -1.954  0.00  0.00     0.085 A 
HETATM    7  C   UNK N   1      -5.098   0.762  -3.398  0.00  0.00     0.071 A 
HETATM    8  C   UNK N   1      -2.424   0.576  -2.517  0.00  0.00     0.082 A 
HETATM    9  C   UNK N   1      -0.133   1.384  -2.788  0.00  0.00     0.048 A 
HETATM   10  C   UNK N   1      -4.117   1.579  -3.957  0.00  0.00     0.074 A 
HETATM   11  C   UNK N   1      -4.759  -0.156  -2.411  0.00  0.00     0.074 A 
ENDROOT
BRANCH   9  12
HETATM   12  C   UNK N   1       1.320   1.396  -2.475  0.00  0.00    -0.019 A 
HETATM   13  C   UNK N   1       1.784   1.689  -1.184  0.00  0.00     0.022 A 
HETATM   14  C   UNK N   1       3.165   1.736  -0.909  0.00  0.00    -0.021 A 
HETATM   15  C   UNK N   1       4.088   1.462  -1.943  0.00  0.00     0.074 A 
HETATM   16  C   UNK N   1       3.604   1.157  -3.230  0.00  0.00     0.038 A 
HETATM   17  C   UNK N   1       2.247   1.143  -3.495  0.00  0.00     0.015 A 
BRANCH  14  18
HETATM   18  C   UNK N   1       3.631   2.072   0.492  0.00  0.00     0.077 C 
BRANCH  18  19
HETATM   19  C   UNK N   1       3.794   0.817   1.378  0.00  0.00     0.150 C 
BRANCH  19  20
HETATM   20  O   UNK N   1       4.852  -0.003   0.948  0.00  0.00    -0.391 OA
HETATM   21  H   UNK N   1       4.726  -0.196  -0.013  0.00  0.00     0.210 HD
ENDBRANCH  19  20
BRANCH  19  22
HETATM   22  C   UNK N   1       2.497   0.038   1.558  0.00  0.00    -0.065 C 
HETATM   23  C   UNK N   1       2.194  -1.026   0.788  0.00  0.00     0.016 C 
HETATM   24  C   UNK N   1       1.538   0.485   2.628  0.00  0.00     0.045 C 
ENDBRANCH  19  22
ENDBRANCH  18  19
ENDBRANCH  14  18
BRANCH  15  25
HETATM   25  O   UNK N   1       5.426   1.485  -1.694  0.00  0.00    -0.355 OA
HETATM   26  C   UNK N   1       6.360   1.190  -2.666  0.00  0.00     0.210 C 
ENDBRANCH  15  25
ENDBRANCH   9  12
BRANCH   6  27
HETATM   27  O   UNK N   1      -3.144  -1.167  -0.999  0.00  0.00    -0.360 OA
HETATM   28  H   UNK N   1      -3.840  -1.738  -0.635  0.00  0.00     0.217 HD
ENDBRANCH   6  27
BRANCH   7  29
HETATM   29  O   UNK N   1      -6.375   0.858  -3.817  0.00  0.00    -0.361 OA
HETATM   30  H   UNK N   1      -6.628   1.497  -4.498  0.00  0.00     0.217 HD
ENDBRANCH   7  29
TORSDOF 8
