REMARK  6 active torsions:
REMARK  status: ('A' for Active; 'I' for Inactive)
REMARK    1  A    between atoms: O_3  and  C_9 
REMARK    2  A    between atoms: O_4  and  C_10 
REMARK    3  A    between atoms: O_5  and  C_11 
REMARK    4  A    between atoms: C_13  and  C_14 
REMARK    5  A    between atoms: C_15  and  C_22 
REMARK    6  A    between atoms: C_22  and  C_24 
ROOT
HETATM    1  O   UNK N   1      -3.800  -0.062   0.196  0.00  0.00    -0.321 OA
HETATM    2  O   UNK N   1      -2.796   1.107  -3.466  0.00  0.00    -0.286 OA
HETATM    3  C   UNK N   1      -4.763   0.129  -0.696  0.00  0.00     0.094 A 
HETATM    4  C   UNK N   1      -2.517   0.132  -0.077  0.00  0.00     0.159 A 
HETATM    5  C   UNK N   1      -3.099   0.770  -2.336  0.00  0.00     0.200 A 
HETATM    6  C   UNK N   1      -5.515   0.732  -2.939  0.00  0.00     0.085 A 
HETATM    7  C   UNK N   1      -7.127   0.098  -1.227  0.00  0.00     0.071 A 
HETATM    8  C   UNK N   1      -4.456   0.548  -2.008  0.00  0.00     0.082 A 
HETATM    9  C   UNK N   1      -2.096   0.570  -1.347  0.00  0.00     0.048 A 
HETATM   10  C   UNK N   1      -6.089  -0.091  -0.315  0.00  0.00     0.074 A 
HETATM   11  C   UNK N   1      -6.841   0.506  -2.535  0.00  0.00     0.074 A 
ENDROOT
BRANCH   9  12
HETATM   12  C   UNK N   1      -0.628   0.819  -1.599  0.00  0.00    -0.019 A 
HETATM   13  C   UNK N   1       0.364   0.123  -0.866  0.00  0.00     0.022 A 
HETATM   14  C   UNK N   1       1.734   0.349  -1.096  0.00  0.00    -0.021 A 
HETATM   15  C   UNK N   1       2.131   1.303  -2.056  0.00  0.00     0.074 A 
HETATM   16  C   UNK N   1       1.145   2.008  -2.771  0.00  0.00     0.038 A 
HETATM   17  C   UNK N   1      -0.206   1.766  -2.551  0.00  0.00     0.015 A 
BRANCH  14  18
HETATM   18  C   UNK N   1       2.758  -0.455  -0.320  0.00  0.00     0.068 C 
BRANCH  18  19
HETATM   19  C   UNK N   1       3.099   0.229   0.987  0.00  0.00    -0.020 C 
HETATM   20  C   UNK N   1       2.962  -0.291   2.235  0.00  0.00    -0.091 C 
HETATM   21  C   UNK N   1       3.367   0.544   3.425  0.00  0.00     0.042 C 
HETATM   22  C   UNK N   1       2.426  -1.672   2.534  0.00  0.00     0.042 C 
ENDBRANCH  18  19
ENDBRANCH  14  18
BRANCH  15  23
HETATM   23  O   UNK N   1       3.456   1.535  -2.267  0.00  0.00    -0.355 OA
HETATM   24  C   UNK N   1       3.959   2.455  -3.166  0.00  0.00     0.210 C 
ENDBRANCH  15  23
ENDBRANCH   9  12
BRANCH   6  25
HETATM   25  O   UNK N   1      -5.265   1.128  -4.206  0.00  0.00    -0.360 OA
HETATM   26  H   UNK N   1      -5.977   1.258  -4.850  0.00  0.00     0.217 HD
ENDBRANCH   6  25
BRANCH   7  27
HETATM   27  O   UNK N   1      -8.400  -0.114  -0.836  0.00  0.00    -0.361 OA
HETATM   28  H   UNK N   1      -9.146   0.013  -1.440  0.00  0.00     0.217 HD
ENDBRANCH   7  27
TORSDOF 6
