REMARK  7 active torsions:
REMARK  status: ('A' for Active; 'I' for Inactive)
REMARK    1  A    between atoms: O_3  and  C_10 
REMARK    2  A    between atoms: O_4  and  C_11 
REMARK    3  A    between atoms: O_5  and  C_12 
REMARK    4  A    between atoms: O_6  and  C_13 
REMARK    5  A    between atoms: C_15  and  C_16 
REMARK    6  A    between atoms: C_17  and  C_24 
REMARK    7  A    between atoms: C_24  and  C_26 
ROOT
HETATM    1  O   UNK N   1      -3.761   1.868   0.460  0.00  0.00    -0.321 OA
HETATM    2  O   UNK N   1      -2.715   1.466  -3.356  0.00  0.00    -0.286 OA
HETATM    3  C   UNK N   1      -4.725   1.766  -0.449  0.00  0.00     0.094 A 
HETATM    4  C   UNK N   1      -2.472   1.819   0.146  0.00  0.00     0.159 A 
HETATM    5  C   UNK N   1      -3.046   1.597  -2.190  0.00  0.00     0.200 A 
HETATM    6  C   UNK N   1      -5.471   1.434  -2.758  0.00  0.00     0.087 A 
HETATM    7  C   UNK N   1      -7.094   1.663  -0.943  0.00  0.00     0.071 A 
HETATM    8  C   UNK N   1      -4.414   1.602  -1.820  0.00  0.00     0.082 A 
HETATM    9  C   UNK N   1      -2.060   1.703  -1.186  0.00  0.00     0.048 A 
HETATM   10  C   UNK N   1      -6.055   1.807  -0.026  0.00  0.00     0.074 A 
HETATM   11  C   UNK N   1      -6.807   1.468  -2.298  0.00  0.00     0.074 A 
ENDROOT
BRANCH   9  12
HETATM   12  C   UNK N   1      -0.606   1.680  -1.500  0.00  0.00    -0.017 A 
HETATM   13  C   UNK N   1      -0.077   2.515  -2.492  0.00  0.00     0.052 A 
HETATM   14  C   UNK N   1       1.298   2.516  -2.772  0.00  0.00     0.100 A 
HETATM   15  C   UNK N   1       2.162   1.622  -2.083  0.00  0.00     0.107 A 
HETATM   16  C   UNK N   1       1.618   0.760  -1.103  0.00  0.00    -0.018 A 
HETATM   17  C   UNK N   1       0.250   0.821  -0.795  0.00  0.00     0.023 A 
BRANCH  14  18
HETATM   18  O   UNK N   1       1.779   3.374  -3.695  0.00  0.00    -0.358 OA
HETATM   19  H   UNK N   1       1.211   4.014  -4.148  0.00  0.00     0.218 HD
ENDBRANCH  14  18
BRANCH  15  20
HETATM   20  O   UNK N   1       3.508   1.566  -2.307  0.00  0.00    -0.353 OA
HETATM   21  C   UNK N   1       4.259   2.381  -3.127  0.00  0.00     0.210 C 
ENDBRANCH  15  20
BRANCH  16  22
HETATM   22  C   UNK N   1       2.488  -0.250  -0.388  0.00  0.00     0.068 C 
BRANCH  22  23
HETATM   23  C   UNK N   1       2.968   0.297   0.932  0.00  0.00    -0.020 C 
HETATM   24  C   UNK N   1       2.759  -0.246   2.157  0.00  0.00    -0.091 C 
HETATM   25  C   UNK N   1       3.360   0.430   3.363  0.00  0.00     0.042 C 
HETATM   26  C   UNK N   1       1.960  -1.504   2.410  0.00  0.00     0.042 C 
ENDBRANCH  22  23
ENDBRANCH  16  22
ENDBRANCH   9  12
BRANCH   6  27
HETATM   27  O   UNK N   1      -5.186   1.220  -4.073  0.00  0.00    -0.355 OA
HETATM   28  C   UNK N   1      -6.115   0.934  -5.056  0.00  0.00     0.210 C 
ENDBRANCH   6  27
BRANCH   7  29
HETATM   29  O   UNK N   1      -8.370   1.700  -0.509  0.00  0.00    -0.361 OA
HETATM   30  H   UNK N   1      -9.118   1.596  -1.114  0.00  0.00     0.217 HD
ENDBRANCH   7  29
TORSDOF 7
