REMARK  7 active torsions:
REMARK  status: ('A' for Active; 'I' for Inactive)
REMARK    1  A    between atoms: O_3  and  C_10 
REMARK    2  A    between atoms: O_4  and  C_11 
REMARK    3  A    between atoms: O_5  and  C_12 
REMARK    4  A    between atoms: O_6  and  C_13 
REMARK    5  A    between atoms: C_15  and  C_16 
REMARK    6  A    between atoms: C_17  and  C_25 
REMARK    7  A    between atoms: C_25  and  C_27 
ROOT
HETATM    1  O   UNK N   1       0.154  -1.164   0.157  0.00  0.00    -0.320 OA
HETATM    2  O   UNK N   1      -0.622   0.635  -3.302  0.00  0.00    -0.286 OA
HETATM    3  C   UNK N   1       1.146  -0.519  -0.456  0.00  0.00     0.098 A 
HETATM    4  C   UNK N   1      -1.070  -1.248  -0.351  0.00  0.00     0.159 A 
HETATM    5  C   UNK N   1      -0.382   0.089  -2.237  0.00  0.00     0.198 A 
HETATM    6  C   UNK N   1       3.269   0.763  -1.799  0.00  0.00     0.102 A 
HETATM    7  C   UNK N   1       3.489   0.148  -0.551  0.00  0.00     0.108 A 
HETATM    8  C   UNK N   1       0.916   0.116  -1.695  0.00  0.00     0.052 A 
HETATM    9  C   UNK N   1      -1.394  -0.609  -1.555  0.00  0.00     0.048 A 
HETATM   10  C   UNK N   1       2.428  -0.492   0.127  0.00  0.00     0.016 A 
HETATM   11  C   UNK N   1       1.977   0.751  -2.361  0.00  0.00     0.058 A 
ENDROOT
BRANCH   9  12
HETATM   12  C   UNK N   1      -2.781  -0.680  -2.074  0.00  0.00    -0.017 A 
HETATM   13  C   UNK N   1      -3.461   0.492  -2.433  0.00  0.00     0.052 A 
HETATM   14  C   UNK N   1      -4.797   0.439  -2.881  0.00  0.00     0.102 A 
HETATM   15  C   UNK N   1      -5.434  -0.808  -3.015  0.00  0.00     0.101 A 
HETATM   16  C   UNK N   1      -4.737  -1.984  -2.668  0.00  0.00     0.040 A 
HETATM   17  C   UNK N   1      -3.431  -1.915  -2.182  0.00  0.00     0.015 A 
BRANCH  14  18
HETATM   18  O   UNK N   1      -5.500   1.567  -3.173  0.00  0.00    -0.353 OA
HETATM   19  C   UNK N   1      -5.043   2.857  -2.983  0.00  0.00     0.210 C 
ENDBRANCH  14  18
BRANCH  15  20
HETATM   20  O   UNK N   1      -6.718  -0.842  -3.468  0.00  0.00    -0.353 OA
HETATM   21  C   UNK N   1      -7.454  -1.991  -3.683  0.00  0.00     0.210 C 
ENDBRANCH  15  20
ENDBRANCH   9  12
BRANCH  10  22
HETATM   22  C   UNK N   1       2.659  -1.143   1.475  0.00  0.00     0.072 C 
BRANCH  22  23
HETATM   23  C   UNK N   1       2.368  -0.150   2.581  0.00  0.00    -0.020 C 
HETATM   24  C   UNK N   1       1.464  -0.293   3.585  0.00  0.00    -0.091 C 
HETATM   25  C   UNK N   1       1.334   0.803   4.615  0.00  0.00     0.042 C 
HETATM   26  C   UNK N   1       0.563  -1.492   3.757  0.00  0.00     0.042 C 
ENDBRANCH  22  23
ENDBRANCH  10  22
BRANCH   6  27
HETATM   27  O   UNK N   1       4.319   1.357  -2.433  0.00  0.00    -0.353 OA
HETATM   28  C   UNK N   1       4.269   1.961  -3.673  0.00  0.00     0.210 C 
ENDBRANCH   6  27
BRANCH   7  29
HETATM   29  O   UNK N   1       4.719   0.169   0.011  0.00  0.00    -0.357 OA
HETATM   30  H   UNK N   1       5.478   0.598  -0.409  0.00  0.00     0.218 HD
ENDBRANCH   7  29
TORSDOF 7
