REMARK  8 active torsions:
REMARK  status: ('A' for Active; 'I' for Inactive)
REMARK    1  A    between atoms: O_1  and  C_10 
REMARK    2  A    between atoms: O_1  and  C_14 
REMARK    3  A    between atoms: O_2  and  C_11 
REMARK    4  A    between atoms: O_2  and  C_15 
REMARK    5  A    between atoms: O_3  and  C_8 
REMARK    6  A    between atoms: O_4  and  C_9 
REMARK    7  A    between atoms: C_9  and  C_11 
REMARK    8  A    between atoms: C_9  and  C_14 
ROOT
HETATM    1  O   UNK N   1      -6.290   0.823  -4.163  0.00  0.00    -0.293 OA
HETATM    2  C   UNK N   1      -0.981   0.994  -2.305  0.00  0.00     0.089 C 
HETATM    3  C   UNK N   1      -0.850   0.136  -0.981  0.00  0.00     0.166 C 
HETATM    4  C   UNK N   1      -2.263   0.565  -3.206  0.00  0.00     0.001 C 
HETATM    5  C   UNK N   1      -3.408  -0.073  -2.294  0.00  0.00    -0.027 C 
HETATM    6  C   UNK N   1      -5.094   0.588  -4.069  0.00  0.00     0.156 C 
HETATM    7  C   UNK N   1      -1.343  -1.292  -1.170  0.00  0.00     0.036 C 
HETATM    8  C   UNK N   1      -2.844   1.772  -4.016  0.00  0.00     0.055 C 
HETATM    9  C   UNK N   1      -4.617  -0.515  -3.164  0.00  0.00     0.093 C 
HETATM   10  C   UNK N   1      -2.846  -1.343  -1.554  0.00  0.00     0.013 C 
HETATM   11  C   UNK N   1      -0.993   2.488  -1.858  0.00  0.00     0.049 C 
HETATM   12  C   UNK N   1      -1.799  -0.462  -4.312  0.00  0.00     0.019 C 
HETATM   13  C   UNK N   1      -4.012   0.922  -1.246  0.00  0.00     0.016 C 
HETATM   14  C   UNK N   1      -4.087   1.387  -4.827  0.00  0.00    -0.010 C 
HETATM   15  C   UNK N   1      -4.274   1.730  -6.147  0.00  0.00    -0.078 C 
HETATM   16  C   UNK N   1      -3.317   2.608  -6.930  0.00  0.00     0.043 C 
HETATM   17  C   UNK N   1      -5.451   1.216  -6.954  0.00  0.00     0.043 C 
ENDROOT
BRANCH   3  18
HETATM   18  O   UNK N   1       0.469   0.142  -0.570  0.00  0.00    -0.311 OA
BRANCH  18  19
HETATM   19  C   UNK N   1       0.905  -0.090   0.694  0.00  0.00     0.296 C 
HETATM   20  O   UNK N   1       0.111  -0.262   1.608  0.00  0.00    -0.262 OA
BRANCH  19  21
HETATM   21  C   UNK N   1       2.400  -0.100   0.938  0.00  0.00     0.167 C 
HETATM   22  C   UNK N   1       2.713  -0.357   2.433  0.00  0.00     0.060 C 
BRANCH  21  23
HETATM   23  O   UNK N   1       2.921  -1.160   0.170  0.00  0.00    -0.377 OA
HETATM   24  H   UNK N   1       3.896  -1.228   0.344  0.00  0.00     0.211 HD
ENDBRANCH  21  23
BRANCH  21  25
HETATM   25  C   UNK N   1       3.005   1.249   0.429  0.00  0.00     0.171 C 
HETATM   26  C   UNK N   1       2.457   2.491   1.144  0.00  0.00     0.044 C 
BRANCH  25  27
HETATM   27  O   UNK N   1       4.385   1.230   0.575  0.00  0.00    -0.313 OA
BRANCH  27  28
HETATM   28  C   UNK N   1       5.278   1.353  -0.443  0.00  0.00     0.255 C 
HETATM   29  O   UNK N   1       4.905   1.550  -1.592  0.00  0.00    -0.266 OA
HETATM   30  C   UNK N   1       6.738   1.249  -0.147  0.00  0.00     0.126 C 
ENDBRANCH  27  28
ENDBRANCH  25  27
ENDBRANCH  21  25
ENDBRANCH  19  21
ENDBRANCH  18  19
ENDBRANCH   3  18
BRANCH   2  31
HETATM   31  O   UNK N   1       0.177   0.808  -3.102  0.00  0.00    -0.387 OA
HETATM   32  H   UNK N   1       0.967   1.216  -2.661  0.00  0.00     0.210 HD
ENDBRANCH   2  31
TORSDOF 8
