REMARK  5 active torsions:
REMARK  status: ('A' for Active; 'I' for Inactive)
REMARK    1  A    between atoms: O_1  and  C_11 
REMARK    2  A    between atoms: O_1  and  C_13 
REMARK    3  A    between atoms: O_4  and  C_15 
REMARK    4  A    between atoms: C_5  and  C_13 
REMARK    5  A    between atoms: C_22  and  C_27 
ROOT
HETATM    1  O   UNK N   1      -5.563   0.990  -2.195  0.00  0.00    -0.285 OA
HETATM    2  C   UNK N   1       2.039   0.768  -1.032  0.00  0.00     0.144 C 
HETATM    3  C   UNK N   1      -0.966   0.896  -0.438  0.00  0.00     0.011 A 
HETATM    4  C   UNK N   1      -4.660   1.601  -1.641  0.00  0.00     0.212 A 
HETATM    5  C   UNK N   1      -3.362   0.916  -1.380  0.00  0.00     0.124 A 
HETATM    6  C   UNK N   1      -2.327   1.585  -0.779  0.00  0.00     0.002 A 
HETATM    7  C   UNK N   1       0.102   1.893   0.131  0.00  0.00    -0.057 A 
HETATM    8  C   UNK N   1       1.597   1.441   0.307  0.00  0.00     0.004 C 
HETATM    9  C   UNK N   1       1.057  -0.314  -1.500  0.00  0.00     0.035 C 
HETATM   10  C   UNK N   1      -0.342   0.281  -1.727  0.00  0.00     0.021 C 
HETATM   11  C   UNK N   1      -1.314  -0.197   0.609  0.00  0.00     0.025 C 
HETATM   12  C   UNK N   1      -4.865   3.018  -1.247  0.00  0.00    -0.001 A 
HETATM   13  C   UNK N   1      -2.544   3.014  -0.412  0.00  0.00    -0.025 A 
HETATM   14  C   UNK N   1      -0.240   3.182   0.383  0.00  0.00     0.006 A 
HETATM   15  C   UNK N   1      -3.846   3.677  -0.666  0.00  0.00     0.023 A 
HETATM   16  C   UNK N   1      -1.571   3.729   0.145  0.00  0.00     0.012 A 
HETATM   17  C   UNK N   1       2.571   2.636   0.551  0.00  0.00     0.022 C 
HETATM   18  C   UNK N   1       1.811   0.505   1.525  0.00  0.00     0.022 C 
ENDROOT
BRANCH   2  19
HETATM   19  O   UNK N   1       3.293   0.193  -0.894  0.00  0.00    -0.311 OA
BRANCH  19  20
HETATM   20  C   UNK N   1       4.442   0.651  -1.460  0.00  0.00     0.293 C 
HETATM   21  O   UNK N   1       4.448   1.691  -2.103  0.00  0.00    -0.259 OA
BRANCH  20  22
HETATM   22  C   UNK N   1       5.706  -0.081  -1.216  0.00  0.00     0.039 A 
HETATM   23  C   UNK N   1       6.944   0.484  -1.575  0.00  0.00     0.017 A 
HETATM   24  C   UNK N   1       8.133  -0.205  -1.316  0.00  0.00     0.001 A 
HETATM   25  C   UNK N   1       8.097  -1.464  -0.711  0.00  0.00     0.000 A 
HETATM   26  C   UNK N   1       6.873  -2.036  -0.360  0.00  0.00     0.001 A 
HETATM   27  C   UNK N   1       5.681  -1.348  -0.605  0.00  0.00     0.017 A 
ENDBRANCH  20  22
ENDBRANCH  19  20
ENDBRANCH   2  19
BRANCH   5  28
HETATM   28  O   UNK N   1      -3.230  -0.379  -1.749  0.00  0.00    -0.356 OA
HETATM   29  H   UNK N   1      -3.935  -0.867  -2.196  0.00  0.00     0.218 HD
ENDBRANCH   5  28
BRANCH  12  30
HETATM   30  C   UNK N   1      -6.223   3.678  -1.511  0.00  0.00     0.014 C 
HETATM   31  C   UNK N   1      -7.253   3.156  -0.501  0.00  0.00     0.015 C 
HETATM   32  C   UNK N   1      -6.213   5.217  -1.497  0.00  0.00     0.015 C 
ENDBRANCH  12  30
TORSDOF 5
