REMARK  4 active torsions:
REMARK  status: ('A' for Active; 'I' for Inactive)
REMARK    1  A    between atoms: O_1  and  C_11 
REMARK    2  A    between atoms: O_1  and  C_13 
REMARK    3  A    between atoms: C_5  and  C_13 
REMARK    4  A    between atoms: C_22  and  C_27 
ROOT
HETATM    1  O   UNK N   1       2.111   1.197  -3.468  0.00  0.00    -0.283 OA
HETATM    2  O   UNK N   1       3.694   1.394  -1.297  0.00  0.00    -0.283 OA
HETATM    3  C   UNK N   1      -3.091   0.267  -4.675  0.00  0.00     0.145 C 
HETATM    4  C   UNK N   1      -1.483  -1.266  -3.426  0.00  0.00     0.011 C 
HETATM    5  C   UNK N   1       1.757   0.705  -2.407  0.00  0.00     0.233 A 
HETATM    6  C   UNK N   1       2.629   0.799  -1.224  0.00  0.00     0.229 A 
HETATM    7  C   UNK N   1      -2.563  -1.190  -4.615  0.00  0.00    -0.006 C 
HETATM    8  C   UNK N   1      -0.572  -0.027  -3.369  0.00  0.00    -0.034 C 
HETATM    9  C   UNK N   1      -2.049  -1.402  -2.011  0.00  0.00    -0.011 C 
HETATM   10  C   UNK N   1      -1.955   1.243  -5.032  0.00  0.00     0.061 C 
HETATM   11  C   UNK N   1      -0.589  -2.532  -3.617  0.00  0.00     0.025 C 
HETATM   12  C   UNK N   1       0.460  -0.013  -2.288  0.00  0.00     0.035 A 
HETATM   13  C   UNK N   1       2.213   0.130   0.039  0.00  0.00     0.000 A 
HETATM   14  C   UNK N   1       0.123  -0.599  -1.106  0.00  0.00    -0.021 A 
HETATM   15  C   UNK N   1      -0.763   1.071  -4.137  0.00  0.00    -0.015 C 
HETATM   16  C   UNK N   1      -1.249  -1.183  -0.941  0.00  0.00     0.009 C 
HETATM   17  C   UNK N   1       1.036  -0.542   0.073  0.00  0.00     0.024 A 
HETATM   18  C   UNK N   1      -3.754  -2.166  -4.400  0.00  0.00     0.019 C 
HETATM   19  C   UNK N   1      -1.951  -1.564  -6.002  0.00  0.00     0.019 C 
ENDROOT
BRANCH   3  20
HETATM   20  O   UNK N   1      -4.093   0.403  -5.623  0.00  0.00    -0.311 OA
BRANCH  20  21
HETATM   21  C   UNK N   1      -5.413   0.589  -5.345  0.00  0.00     0.293 C 
HETATM   22  O   UNK N   1      -5.816   0.550  -4.192  0.00  0.00    -0.259 OA
BRANCH  21  23
HETATM   23  C   UNK N   1      -6.370   0.762  -6.462  0.00  0.00     0.039 A 
HETATM   24  C   UNK N   1      -5.900   0.946  -7.774  0.00  0.00     0.017 A 
HETATM   25  C   UNK N   1      -6.803   1.100  -8.830  0.00  0.00     0.001 A 
HETATM   26  C   UNK N   1      -8.178   1.060  -8.588  0.00  0.00     0.000 A 
HETATM   27  C   UNK N   1      -8.654   0.876  -7.288  0.00  0.00     0.001 A 
HETATM   28  C   UNK N   1      -7.757   0.733  -6.225  0.00  0.00     0.017 A 
ENDBRANCH  21  23
ENDBRANCH  20  21
ENDBRANCH   3  20
BRANCH  13  29
HETATM   29  C   UNK N   1       3.115   0.208   1.269  0.00  0.00     0.014 C 
HETATM   30  C   UNK N   1       2.356   0.673   2.523  0.00  0.00     0.015 C 
HETATM   31  C   UNK N   1       3.812  -1.132   1.510  0.00  0.00     0.015 C 
ENDBRANCH  13  29
TORSDOF 4
