REMARK  5 active torsions:
REMARK  status: ('A' for Active; 'I' for Inactive)
REMARK    1  A    between atoms: O_1  and  C_6 
REMARK    2  A    between atoms: O_1  and  C_8 
REMARK    3  A    between atoms: O_4  and  C_10 
REMARK    4  A    between atoms: O_5  and  C_11 
REMARK    5  A    between atoms: C_11  and  C_18 
ROOT
HETATM    1  O   UNK N   1      -5.521  -0.465  -3.216  0.00  0.00    -0.285 OA
HETATM    2  C   UNK N   1       1.556   0.802  -0.636  0.00  0.00     0.144 C 
HETATM    3  C   UNK N   1      -1.302  -0.306  -0.700  0.00  0.00     0.011 C 
HETATM    4  C   UNK N   1      -4.951  -0.094  -2.204  0.00  0.00     0.214 A 
HETATM    5  C   UNK N   1      -3.506  -0.423  -2.027  0.00  0.00     0.125 A 
HETATM    6  C   UNK N   1      -2.810   0.032  -0.941  0.00  0.00     0.002 A 
HETATM    7  C   UNK N   1      -0.683   0.495   0.498  0.00  0.00    -0.057 C 
HETATM    8  C   UNK N   1       0.869   0.506   0.731  0.00  0.00     0.004 C 
HETATM    9  C   UNK N   1       1.057  -0.122  -1.756  0.00  0.00     0.035 C 
HETATM   10  C   UNK N   1      -0.456   0.058  -1.960  0.00  0.00     0.021 C 
HETATM   11  C   UNK N   1      -1.270  -1.830  -0.417  0.00  0.00     0.025 C 
HETATM   12  C   UNK N   1      -5.699   0.664  -1.152  0.00  0.00     0.029 A 
HETATM   13  C   UNK N   1      -3.550   0.848   0.062  0.00  0.00    -0.025 A 
HETATM   14  C   UNK N   1      -1.480   1.254   1.292  0.00  0.00     0.006 C 
HETATM   15  C   UNK N   1      -5.005   1.093  -0.077  0.00  0.00     0.026 A 
HETATM   16  C   UNK N   1      -2.919   1.386   1.101  0.00  0.00     0.012 C 
HETATM   17  C   UNK N   1       1.337   1.634   1.703  0.00  0.00     0.022 C 
HETATM   18  C   UNK N   1       1.378  -0.812   1.364  0.00  0.00     0.022 C 
ENDROOT
BRANCH  12  19
HETATM   19  C   UNK N   1      -7.216   0.951  -1.317  0.00  0.00     0.082 C 
HETATM   20  C   UNK N   1      -8.010  -0.371  -1.451  0.00  0.00     0.051 C 
HETATM   21  C   UNK N   1      -7.837   1.714  -0.124  0.00  0.00     0.051 C 
BRANCH  19  22
HETATM   22  O   UNK N   1      -7.413   1.764  -2.451  0.00  0.00    -0.386 OA
HETATM   23  H   UNK N   1      -7.283   1.222  -3.269  0.00  0.00     0.211 HD
ENDBRANCH  19  22
ENDBRANCH  12  19
BRANCH   5  24
HETATM   24  O   UNK N   1      -2.900  -1.180  -2.971  0.00  0.00    -0.356 OA
HETATM   25  H   UNK N   1      -3.361  -1.497  -3.760  0.00  0.00     0.218 HD
ENDBRANCH   5  24
BRANCH   2  26
HETATM   26  O   UNK N   1       2.933   0.694  -0.508  0.00  0.00    -0.315 OA
BRANCH  26  27
HETATM   27  C   UNK N   1       3.835   1.313  -1.311  0.00  0.00     0.255 C 
HETATM   28  O   UNK N   1       3.474   2.103  -2.172  0.00  0.00    -0.266 OA
HETATM   29  C   UNK N   1       5.290   1.036  -1.117  0.00  0.00     0.126 C 
ENDBRANCH  26  27
ENDBRANCH   2  26
TORSDOF 5
