REMARK  9 active torsions:
REMARK  status: ('A' for Active; 'I' for Inactive)
REMARK    1  A    between atoms: O_1  and  C_6 
REMARK    2  A    between atoms: O_1  and  C_16 
REMARK    3  A    between atoms: O_2  and  C_7 
REMARK    4  A    between atoms: O_3  and  C_8 
REMARK    5  A    between atoms: O_5  and  C_17 
REMARK    6  A    between atoms: C_7  and  C_9 
REMARK    7  A    between atoms: C_7  and  C_21 
REMARK    8  A    between atoms: C_17  and  C_30 
REMARK    9  A    between atoms: C_21  and  C_31 
ROOT
HETATM    1  C   UNK N   1      -3.716  -0.851  -2.214  0.00  0.00     0.140 C 
HETATM    2  C   UNK N   1       2.110   2.909   0.618  0.00  0.00     0.126 C 
HETATM    3  C   UNK N   1       2.686   1.990  -0.495  0.00  0.00     0.053 C 
HETATM    4  C   UNK N   1       1.665   0.532   1.186  0.00  0.00    -0.034 C 
HETATM    5  C   UNK N   1      -0.858  -1.553  -1.247  0.00  0.00    -0.035 C 
HETATM    6  C   UNK N   1       2.888   0.630   0.238  0.00  0.00     0.003 C 
HETATM    7  C   UNK N   1       0.335   0.170   0.388  0.00  0.00    -0.001 C 
HETATM    8  C   UNK N   1       0.483  -1.125  -0.469  0.00  0.00    -0.001 C 
HETATM    9  C   UNK N   1      -2.122  -1.542  -0.262  0.00  0.00     0.004 C 
HETATM   10  C   UNK N   1      -3.554  -1.778  -0.963  0.00  0.00    -0.017 C 
HETATM   11  C   UNK N   1      -2.500  -0.950  -3.162  0.00  0.00     0.034 C 
HETATM   12  C   UNK N   1       1.635   1.970   1.751  0.00  0.00     0.042 C 
HETATM   13  C   UNK N   1      -1.176  -0.599  -2.444  0.00  0.00     0.012 C 
HETATM   14  C   UNK N   1       3.012  -0.643  -0.622  0.00  0.00     0.006 C 
HETATM   15  C   UNK N   1       1.729  -0.956  -1.404  0.00  0.00     0.006 C 
HETATM   16  C   UNK N   1      -0.857   0.008   1.339  0.00  0.00     0.006 C 
HETATM   17  C   UNK N   1      -2.139  -0.219   0.565  0.00  0.00     0.007 C 
HETATM   18  C   UNK N   1       1.941  -0.481   2.336  0.00  0.00     0.016 C 
HETATM   19  C   UNK N   1      -0.567  -2.989  -1.787  0.00  0.00     0.016 C 
HETATM   20  C   UNK N   1      -4.730  -1.494   0.024  0.00  0.00     0.018 C 
HETATM   21  C   UNK N   1      -3.801  -3.259  -1.377  0.00  0.00     0.018 C 
ENDROOT
BRANCH   3  22
HETATM   22  C   UNK N   1       3.882   2.592  -1.329  0.00  0.00     0.064 C 
HETATM   23  C   UNK N   1       3.422   3.898  -2.007  0.00  0.00     0.046 C 
BRANCH  22  24
HETATM   24  O   UNK N   1       4.203   1.690  -2.367  0.00  0.00    -0.389 OA
HETATM   25  H   UNK N   1       4.980   1.135  -2.098  0.00  0.00     0.210 HD
ENDBRANCH  22  24
BRANCH  22  26
HETATM   26  C   UNK N   1       5.136   2.915  -0.444  0.00  0.00     0.065 C 
BRANCH  26  27
HETATM   27  C   UNK N   1       6.333   3.400  -1.242  0.00  0.00    -0.025 C 
HETATM   28  C   UNK N   1       7.323   4.183  -0.757  0.00  0.00     0.006 C 
BRANCH  28  29
HETATM   29  C   UNK N   1       7.377   4.805   0.638  0.00  0.00     0.068 C 
HETATM   30  C   UNK N   1       8.821   5.239   0.953  0.00  0.00     0.050 C 
HETATM   31  C   UNK N   1       6.478   6.054   0.680  0.00  0.00     0.050 C 
BRANCH  29  32
HETATM   32  O   UNK N   1       6.956   3.897   1.628  0.00  0.00    -0.387 OA
HETATM   33  H   UNK N   1       7.499   3.071   1.537  0.00  0.00     0.211 HD
ENDBRANCH  29  32
ENDBRANCH  28  29
ENDBRANCH  26  27
ENDBRANCH  22  26
ENDBRANCH   3  22
BRANCH   2  34
HETATM   34  O   UNK N   1       1.099   3.755   0.127  0.00  0.00    -0.395 OA
HETATM   35  H   UNK N   1       0.302   3.205  -0.074  0.00  0.00     0.210 HD
ENDBRANCH   2  34
BRANCH   1  36
HETATM   36  O   UNK N   1      -3.893   0.471  -1.831  0.00  0.00    -0.316 OA
BRANCH  36  37
HETATM   37  C   UNK N   1      -4.544   1.402  -2.581  0.00  0.00     0.255 C 
HETATM   38  O   UNK N   1      -5.058   1.102  -3.647  0.00  0.00    -0.266 OA
HETATM   39  C   UNK N   1      -4.646   2.806  -2.078  0.00  0.00     0.126 C 
ENDBRANCH  36  37
ENDBRANCH   1  36
TORSDOF 9
