REMARK  8 active torsions:
REMARK  status: ('A' for Active; 'I' for Inactive)
REMARK    1  A    between atoms: O_1  and  C_5 
REMARK    2  A    between atoms: O_2  and  C_6 
REMARK    3  A    between atoms: O_3  and  C_7 
REMARK    4  A    between atoms: O_4  and  C_15 
REMARK    5  A    between atoms: C_6  and  C_8 
REMARK    6  A    between atoms: C_6  and  C_19 
REMARK    7  A    between atoms: C_15  and  C_28 
REMARK    8  A    between atoms: C_19  and  C_29 
ROOT
HETATM    1  C   UNK N   1      -5.717   1.255  -2.646  0.00  0.00     0.126 C 
HETATM    2  C   UNK N   1      -0.737  -1.130   2.504  0.00  0.00     0.126 C 
HETATM    3  C   UNK N   1      -0.144   0.259   2.102  0.00  0.00     0.053 C 
HETATM    4  C   UNK N   1      -2.446  -0.075   1.162  0.00  0.00    -0.034 C 
HETATM    5  C   UNK N   1      -5.258   2.528  -0.064  0.00  0.00    -0.035 C 
HETATM    6  C   UNK N   1      -1.378   0.993   1.479  0.00  0.00     0.003 C 
HETATM    7  C   UNK N   1      -3.843   0.644   1.085  0.00  0.00    -0.001 C 
HETATM    8  C   UNK N   1      -3.840   1.795   0.022  0.00  0.00    -0.001 C 
HETATM    9  C   UNK N   1      -6.486   1.508  -0.182  0.00  0.00     0.004 C 
HETATM   10  C   UNK N   1      -6.912   1.070  -1.679  0.00  0.00    -0.017 C 
HETATM   11  C   UNK N   1      -5.160   2.709  -2.641  0.00  0.00     0.033 C 
HETATM   12  C   UNK N   1      -2.270  -0.977   2.404  0.00  0.00     0.042 C 
HETATM   13  C   UNK N   1      -5.305   3.459  -1.294  0.00  0.00     0.012 C 
HETATM   14  C   UNK N   1      -1.280   2.085   0.408  0.00  0.00     0.006 C 
HETATM   15  C   UNK N   1      -2.654   2.779   0.289  0.00  0.00     0.006 C 
HETATM   16  C   UNK N   1      -5.001  -0.339   0.814  0.00  0.00     0.006 C 
HETATM   17  C   UNK N   1      -6.340   0.386   0.885  0.00  0.00     0.007 C 
HETATM   18  C   UNK N   1      -2.170  -0.889  -0.148  0.00  0.00     0.016 C 
HETATM   19  C   UNK N   1      -5.491   3.415   1.197  0.00  0.00     0.016 C 
HETATM   20  C   UNK N   1      -7.415  -0.398  -1.755  0.00  0.00     0.018 C 
HETATM   21  C   UNK N   1      -8.115   1.928  -2.180  0.00  0.00     0.018 C 
ENDROOT
BRANCH   3  22
HETATM   22  C   UNK N   1       1.255   0.236   1.373  0.00  0.00     0.064 C 
HETATM   23  C   UNK N   1       2.283  -0.443   2.304  0.00  0.00     0.046 C 
BRANCH  22  24
HETATM   24  O   UNK N   1       1.696   1.567   1.208  0.00  0.00    -0.389 OA
HETATM   25  H   UNK N   1       1.427   1.901   0.315  0.00  0.00     0.210 HD
ENDBRANCH  22  24
BRANCH  22  26
HETATM   26  C   UNK N   1       1.240  -0.518   0.004  0.00  0.00     0.065 C 
BRANCH  26  27
HETATM   27  C   UNK N   1       2.583  -0.565  -0.672  0.00  0.00    -0.025 C 
HETATM   28  C   UNK N   1       2.961   0.376  -1.556  0.00  0.00     0.006 C 
BRANCH  28  29
HETATM   29  C   UNK N   1       4.307   0.381  -2.275  0.00  0.00     0.068 C 
HETATM   30  C   UNK N   1       4.031   0.361  -3.784  0.00  0.00     0.050 C 
HETATM   31  C   UNK N   1       5.222  -0.815  -1.927  0.00  0.00     0.050 C 
BRANCH  29  32
HETATM   32  O   UNK N   1       4.981   1.578  -1.971  0.00  0.00    -0.387 OA
HETATM   33  H   UNK N   1       5.113   1.607  -0.986  0.00  0.00     0.211 HD
ENDBRANCH  29  32
ENDBRANCH  28  29
ENDBRANCH  26  27
ENDBRANCH  22  26
ENDBRANCH   3  22
BRANCH   2  34
HETATM   34  O   UNK N   1      -0.300  -1.595   3.755  0.00  0.00    -0.395 OA
HETATM   35  H   UNK N   1      -0.628  -0.955   4.440  0.00  0.00     0.210 HD
ENDBRANCH   2  34
BRANCH   1  36
HETATM   36  O   UNK N   1      -6.050   0.883  -3.961  0.00  0.00    -0.395 OA
HETATM   37  H   UNK N   1      -5.199   0.828  -4.471  0.00  0.00     0.210 HD
ENDBRANCH   1  36
TORSDOF 8
