REMARK  7 active torsions:
REMARK  status: ('A' for Active; 'I' for Inactive)
REMARK    1  A    between atoms: O_3  and  C_10 
REMARK    2  A    between atoms: O_4  and  C_11 
REMARK    3  A    between atoms: O_5  and  C_12 
REMARK    4  A    between atoms: O_6  and  C_13 
REMARK    5  A    between atoms: C_15  and  C_16 
REMARK    6  A    between atoms: C_17  and  C_24 
REMARK    7  A    between atoms: C_24  and  C_26 
ROOT
HETATM    1  O   UNK N   1      -3.719   1.828   0.446  0.00  0.00    -0.321 OA
HETATM    2  O   UNK N   1      -2.654   1.382  -3.358  0.00  0.00    -0.286 OA
HETATM    3  C   UNK N   1      -4.678   1.755  -0.473  0.00  0.00     0.094 A 
HETATM    4  C   UNK N   1      -2.428   1.744   0.145  0.00  0.00     0.159 A 
HETATM    5  C   UNK N   1      -2.988   1.526  -2.195  0.00  0.00     0.200 A 
HETATM    6  C   UNK N   1      -5.403   1.449  -2.786  0.00  0.00     0.085 A 
HETATM    7  C   UNK N   1      -7.044   1.751  -1.015  0.00  0.00     0.071 A 
HETATM    8  C   UNK N   1      -4.354   1.575  -1.837  0.00  0.00     0.082 A 
HETATM    9  C   UNK N   1      -2.007   1.615  -1.184  0.00  0.00     0.048 A 
HETATM   10  C   UNK N   1      -6.014   1.853  -0.073  0.00  0.00     0.074 A 
HETATM   11  C   UNK N   1      -6.738   1.537  -2.361  0.00  0.00     0.074 A 
ENDROOT
BRANCH   9  12
HETATM   12  C   UNK N   1      -0.553   1.588  -1.500  0.00  0.00    -0.017 A 
HETATM   13  C   UNK N   1      -0.043   2.404  -2.517  0.00  0.00     0.052 A 
HETATM   14  C   UNK N   1       1.335   2.420  -2.815  0.00  0.00     0.102 A 
HETATM   15  C   UNK N   1       2.210   1.547  -2.111  0.00  0.00     0.108 A 
HETATM   16  C   UNK N   1       1.684   0.708  -1.100  0.00  0.00    -0.018 A 
HETATM   17  C   UNK N   1       0.319   0.761  -0.779  0.00  0.00     0.023 A 
BRANCH  14  18
HETATM   18  O   UNK N   1       1.833   3.268  -3.756  0.00  0.00    -0.353 OA
HETATM   19  C   UNK N   1       1.120   4.238  -4.431  0.00  0.00     0.210 C 
ENDBRANCH  14  18
BRANCH  15  20
HETATM   20  O   UNK N   1       3.554   1.496  -2.345  0.00  0.00    -0.353 OA
HETATM   21  C   UNK N   1       4.294   2.280  -3.206  0.00  0.00     0.210 C 
ENDBRANCH  15  20
BRANCH  16  22
HETATM   22  C   UNK N   1       2.576  -0.267  -0.363  0.00  0.00     0.068 C 
BRANCH  22  23
HETATM   23  C   UNK N   1       2.995   0.295   0.972  0.00  0.00    -0.020 C 
HETATM   24  C   UNK N   1       2.776  -0.258   2.191  0.00  0.00    -0.091 C 
HETATM   25  C   UNK N   1       3.322   0.438   3.412  0.00  0.00     0.042 C 
HETATM   26  C   UNK N   1       2.021  -1.546   2.422  0.00  0.00     0.042 C 
ENDBRANCH  22  23
ENDBRANCH  16  22
ENDBRANCH   9  12
BRANCH   6  27
HETATM   27  O   UNK N   1      -5.133   1.236  -4.092  0.00  0.00    -0.360 OA
HETATM   28  H   UNK N   1      -5.836   1.113  -4.747  0.00  0.00     0.217 HD
ENDBRANCH   6  27
BRANCH   7  29
HETATM   29  O   UNK N   1      -8.334   1.853  -0.634  0.00  0.00    -0.361 OA
HETATM   30  H   UNK N   1      -8.582   2.017   0.287  0.00  0.00     0.217 HD
ENDBRANCH   7  29
TORSDOF 7
