REMARK  7 active torsions:
REMARK  status: ('A' for Active; 'I' for Inactive)
REMARK    1  A    between atoms: O_3  and  C_10 
REMARK    2  A    between atoms: O_4  and  C_11 
REMARK    3  A    between atoms: O_5  and  C_12 
REMARK    4  A    between atoms: O_6  and  C_13 
REMARK    5  A    between atoms: C_15  and  C_16 
REMARK    6  A    between atoms: C_17  and  C_23 
REMARK    7  A    between atoms: C_23  and  C_25 
ROOT
HETATM    1  O   UNK N   1      -0.297   1.435  -4.964  0.00  0.00    -0.321 OA
HETATM    2  O   UNK N   1      -1.912  -1.500  -2.841  0.00  0.00    -0.286 OA
HETATM    3  C   UNK N   1       0.405   0.956  -3.942  0.00  0.00     0.094 A 
HETATM    4  C   UNK N   1      -1.492   0.974  -5.297  0.00  0.00     0.159 A 
HETATM    5  C   UNK N   1      -1.393  -0.599  -3.470  0.00  0.00     0.200 A 
HETATM    6  C   UNK N   1       2.461   1.051  -2.646  0.00  0.00     0.080 A 
HETATM    7  C   UNK N   1       0.717  -0.567  -2.044  0.00  0.00     0.092 A 
HETATM    8  C   UNK N   1      -0.101  -0.091  -3.130  0.00  0.00     0.083 A 
HETATM    9  C   UNK N   1      -2.084  -0.054  -4.569  0.00  0.00     0.050 A 
HETATM   10  C   UNK N   1       1.995   0.009  -1.818  0.00  0.00     0.013 A 
HETATM   11  C   UNK N   1       1.655   1.509  -3.697  0.00  0.00     0.075 A 
ENDROOT
BRANCH   9  12
HETATM   12  C   UNK N   1      -3.401  -0.577  -5.002  0.00  0.00     0.013 A 
HETATM   13  C   UNK N   1      -4.606  -0.029  -4.519  0.00  0.00     0.079 A 
HETATM   14  C   UNK N   1      -5.835  -0.542  -4.974  0.00  0.00     0.073 A 
HETATM   15  C   UNK N   1      -5.866  -1.588  -5.902  0.00  0.00     0.068 A 
HETATM   16  C   UNK N   1      -4.665  -2.128  -6.380  0.00  0.00     0.037 A 
HETATM   17  C   UNK N   1      -3.441  -1.624  -5.933  0.00  0.00     0.018 A 
BRANCH  13  18
HETATM   18  O   UNK N   1      -4.584   0.983  -3.627  0.00  0.00    -0.360 OA
HETATM   19  H   UNK N   1      -5.401   1.371  -3.280  0.00  0.00     0.217 HD
ENDBRANCH  13  18
BRANCH  15  20
HETATM   20  O   UNK N   1      -7.052  -2.067  -6.329  0.00  0.00    -0.361 OA
HETATM   21  H   UNK N   1      -7.109  -2.790  -6.970  0.00  0.00     0.217 HD
ENDBRANCH  15  20
ENDBRANCH   9  12
BRANCH   7  22
HETATM   22  O   UNK N   1       0.333  -1.565  -1.210  0.00  0.00    -0.359 OA
HETATM   23  H   UNK N   1      -0.488  -2.062  -1.242  0.00  0.00     0.218 HD
ENDBRANCH   7  22
BRANCH  10  24
HETATM   24  C   UNK N   1       2.869  -0.506  -0.684  0.00  0.00     0.072 C 
BRANCH  24  25
HETATM   25  C   UNK N   1       2.601   0.274   0.585  0.00  0.00    -0.020 C 
HETATM   26  C   UNK N   1       2.177  -0.233   1.773  0.00  0.00    -0.091 C 
HETATM   27  C   UNK N   1       1.954   0.705   2.933  0.00  0.00     0.042 C 
HETATM   28  C   UNK N   1       1.904  -1.698   2.032  0.00  0.00     0.042 C 
ENDBRANCH  24  25
ENDBRANCH  10  24
BRANCH   6  29
HETATM   29  O   UNK N   1       3.686   1.601  -2.409  0.00  0.00    -0.355 OA
HETATM   30  C   UNK N   1       4.244   2.633  -3.141  0.00  0.00     0.210 C 
ENDBRANCH   6  29
TORSDOF 7
