REMARK  5 active torsions:
REMARK  status: ('A' for Active; 'I' for Inactive)
REMARK    1  A    between atoms: O_3  and  C_10 
REMARK    2  A    between atoms: O_4  and  C_11 
REMARK    3  A    between atoms: O_5  and  C_12 
REMARK    4  A    between atoms: O_6  and  C_13 
REMARK    5  A    between atoms: C_15  and  C_16 
ROOT
HETATM    1  O   UNK N   1       1.060  -0.321   1.990  0.00  0.00    -0.321 OA
HETATM    2  O   UNK N   1       1.394   0.654  -1.849  0.00  0.00    -0.286 OA
HETATM    3  C   UNK N   1       2.274  -0.074   1.509  0.00  0.00     0.094 A 
HETATM    4  C   UNK N   1      -0.037  -0.240   1.248  0.00  0.00     0.159 A 
HETATM    5  C   UNK N   1       1.303   0.343  -0.674  0.00  0.00     0.200 A 
HETATM    6  C   UNK N   1       4.658   0.122   1.911  0.00  0.00     0.079 A 
HETATM    7  C   UNK N   1       3.760   0.592  -0.317  0.00  0.00     0.091 A 
HETATM    8  C   UNK N   1       2.453   0.288   0.155  0.00  0.00     0.083 A 
HETATM    9  C   UNK N   1       0.036   0.075  -0.115  0.00  0.00     0.050 A 
HETATM   10  C   UNK N   1       4.868   0.506   0.570  0.00  0.00     0.006 A 
HETATM   11  C   UNK N   1       3.370  -0.164   2.367  0.00  0.00     0.075 A 
HETATM   12  C   UNK N   1       6.264   0.825   0.085  0.00  0.00     0.054 C 
ENDROOT
BRANCH   9  13
HETATM   13  C   UNK N   1      -1.223   0.146  -0.912  0.00  0.00     0.014 A 
HETATM   14  C   UNK N   1      -1.383  -0.574  -2.121  0.00  0.00     0.082 A 
HETATM   15  C   UNK N   1      -2.605  -0.476  -2.824  0.00  0.00     0.074 A 
HETATM   16  C   UNK N   1      -3.644   0.324  -2.342  0.00  0.00     0.068 A 
HETATM   17  C   UNK N   1      -3.481   1.027  -1.144  0.00  0.00     0.037 A 
HETATM   18  C   UNK N   1      -2.287   0.929  -0.430  0.00  0.00     0.018 A 
BRANCH  14  19
HETATM   19  O   UNK N   1      -0.377  -1.384  -2.554  0.00  0.00    -0.355 OA
HETATM   20  C   UNK N   1      -0.456  -2.230  -3.644  0.00  0.00     0.210 C 
ENDBRANCH  14  19
BRANCH  16  21
HETATM   21  O   UNK N   1      -4.798   0.405  -3.034  0.00  0.00    -0.361 OA
HETATM   22  H   UNK N   1      -5.539   0.948  -2.730  0.00  0.00     0.217 HD
ENDBRANCH  16  21
ENDBRANCH   9  13
BRANCH   7  23
HETATM   23  O   UNK N   1       3.935   0.970  -1.605  0.00  0.00    -0.359 OA
HETATM   24  H   UNK N   1       4.791   1.218  -1.979  0.00  0.00     0.218 HD
ENDBRANCH   7  23
BRANCH   6  25
HETATM   25  O   UNK N   1       5.695   0.028   2.774  0.00  0.00    -0.355 OA
HETATM   26  C   UNK N   1       6.105   1.105   3.532  0.00  0.00     0.210 C 
ENDBRANCH   6  25
TORSDOF 5
