REMARK  8 active torsions:
REMARK  status: ('A' for Active; 'I' for Inactive)
REMARK    1  A    between atoms: O_3  and  C_11 
REMARK    2  A    between atoms: O_4  and  C_12 
REMARK    3  A    between atoms: O_5  and  C_13 
REMARK    4  A    between atoms: O_6  and  C_14 
REMARK    5  A    between atoms: O_7  and  C_23 
REMARK    6  A    between atoms: C_16  and  C_17 
REMARK    7  A    between atoms: C_18  and  C_25 
REMARK    8  A    between atoms: C_23  and  C_26 
ROOT
HETATM    1  C   UNK N   1       2.865   0.660  -0.441  0.00  0.00     0.111 A 
HETATM    2  C   UNK N   1       2.447   0.884  -1.787  0.00  0.00     0.100 A 
HETATM    3  C   UNK N   1       0.453  -0.451  -1.407  0.00  0.00    -0.017 A 
HETATM    4  C   UNK N   1       2.036  -0.103   0.419  0.00  0.00     0.001 A 
HETATM    5  C   UNK N   1       1.235   0.345  -2.244  0.00  0.00     0.052 A 
HETATM    6  C   UNK N   1       0.854  -0.671  -0.090  0.00  0.00     0.027 A 
ENDROOT
BRANCH   3   7
HETATM    7  C   UNK N   1      -0.791  -1.089  -1.897  0.00  0.00     0.048 A 
HETATM    8  C   UNK N   1      -0.961  -2.469  -1.729  0.00  0.00     0.159 A 
HETATM    9  O   UNK N   1      -2.056  -3.079  -2.161  0.00  0.00    -0.321 OA
HETATM   10  C   UNK N   1      -3.060  -2.423  -2.733  0.00  0.00     0.094 A 
HETATM   11  C   UNK N   1      -2.996  -1.021  -2.916  0.00  0.00     0.082 A 
HETATM   12  C   UNK N   1      -4.191  -3.137  -3.138  0.00  0.00     0.074 A 
HETATM   13  C   UNK N   1      -1.820  -0.350  -2.508  0.00  0.00     0.200 A 
HETATM   14  C   UNK N   1      -4.107  -0.347  -3.481  0.00  0.00     0.085 A 
HETATM   15  O   UNK N   1      -1.706   0.856  -2.643  0.00  0.00    -0.286 OA
HETATM   16  C   UNK N   1      -5.241  -1.082  -3.867  0.00  0.00     0.074 A 
HETATM   17  C   UNK N   1      -5.279  -2.473  -3.704  0.00  0.00     0.071 A 
BRANCH  14  18
HETATM   18  O   UNK N   1      -4.097   0.994  -3.637  0.00  0.00    -0.360 OA
HETATM   19  H   UNK N   1      -4.861   1.475  -3.986  0.00  0.00     0.217 HD
ENDBRANCH  14  18
BRANCH  17  20
HETATM   20  O   UNK N   1      -6.364  -3.180  -4.079  0.00  0.00    -0.361 OA
HETATM   21  H   UNK N   1      -7.142  -2.754  -4.466  0.00  0.00     0.217 HD
ENDBRANCH  17  20
ENDBRANCH   3   7
BRANCH   2  22
HETATM   22  O   UNK N   1       3.201   1.609  -2.640  0.00  0.00    -0.358 OA
HETATM   23  H   UNK N   1       2.939   1.755  -3.561  0.00  0.00     0.218 HD
ENDBRANCH   2  22
BRANCH   4  24
HETATM   24  C   UNK N   1       2.418  -0.311   1.854  0.00  0.00     0.013 C 
HETATM   25  C   UNK N   1       1.510  -0.633   2.807  0.00  0.00     0.011 C 
BRANCH  25  26
HETATM   26  C   UNK N   1       1.841  -0.869   4.272  0.00  0.00     0.068 C 
HETATM   27  C   UNK N   1       1.291  -2.250   4.659  0.00  0.00     0.050 C 
HETATM   28  C   UNK N   1       1.153   0.199   5.147  0.00  0.00     0.050 C 
BRANCH  26  29
HETATM   29  O   UNK N   1       3.231  -0.871   4.506  0.00  0.00    -0.387 OA
HETATM   30  H   UNK N   1       3.559   0.064   4.455  0.00  0.00     0.211 HD
ENDBRANCH  26  29
ENDBRANCH  25  26
ENDBRANCH   4  24
BRANCH   1  31
HETATM   31  O   UNK N   1       4.029   1.164   0.065  0.00  0.00    -0.352 OA
HETATM   32  C   UNK N   1       4.983   1.901  -0.608  0.00  0.00     0.210 C 
ENDBRANCH   1  31
TORSDOF 8
