REMARK  9 active torsions:
REMARK  status: ('A' for Active; 'I' for Inactive)
REMARK    1  A    between atoms: O_3  and  C_11 
REMARK    2  A    between atoms: O_4  and  C_12 
REMARK    3  A    between atoms: O_5  and  C_13 
REMARK    4  A    between atoms: O_6  and  C_23 
REMARK    5  A    between atoms: O_7  and  C_24 
REMARK    6  A    between atoms: C_15  and  C_16 
REMARK    7  A    between atoms: C_17  and  C_26 
REMARK    8  A    between atoms: C_23  and  C_24 
REMARK    9  A    between atoms: C_23  and  C_26 
ROOT
HETATM    1  C   UNK N   1       1.900   1.607  -2.566  0.00  0.00     0.074 A 
HETATM    2  C   UNK N   1      -0.778   2.101  -3.292  0.00  0.00    -0.019 A 
HETATM    3  C   UNK N   1       0.913   1.767  -1.564  0.00  0.00    -0.021 A 
HETATM    4  C   UNK N   1       1.530   1.703  -3.919  0.00  0.00     0.038 A 
HETATM    5  C   UNK N   1      -0.430   1.981  -1.934  0.00  0.00     0.022 A 
HETATM    6  C   UNK N   1       0.213   1.971  -4.273  0.00  0.00     0.015 A 
ENDROOT
BRANCH   2   7
HETATM    7  C   UNK N   1      -2.166   2.403  -3.719  0.00  0.00     0.048 A 
HETATM    8  C   UNK N   1      -2.383   3.464  -4.608  0.00  0.00     0.159 A 
HETATM    9  O   UNK N   1      -3.605   3.774  -5.018  0.00  0.00    -0.321 OA
HETATM   10  C   UNK N   1      -4.678   3.084  -4.651  0.00  0.00     0.094 A 
HETATM   11  C   UNK N   1      -4.560   1.972  -3.782  0.00  0.00     0.082 A 
HETATM   12  C   UNK N   1      -5.926   3.463  -5.149  0.00  0.00     0.074 A 
HETATM   13  C   UNK N   1      -3.272   1.646  -3.289  0.00  0.00     0.200 A 
HETATM   14  C   UNK N   1      -5.722   1.227  -3.458  0.00  0.00     0.085 A 
HETATM   15  O   UNK N   1      -3.110   0.702  -2.536  0.00  0.00    -0.286 OA
HETATM   16  C   UNK N   1      -6.966   1.617  -3.983  0.00  0.00     0.074 A 
HETATM   17  C   UNK N   1      -7.071   2.734  -4.815  0.00  0.00     0.071 A 
BRANCH  14  18
HETATM   18  O   UNK N   1      -5.645   0.137  -2.665  0.00  0.00    -0.360 OA
HETATM   19  H   UNK N   1      -6.422  -0.405  -2.465  0.00  0.00     0.217 HD
ENDBRANCH  14  18
BRANCH  17  20
HETATM   20  O   UNK N   1      -8.277   3.096  -5.298  0.00  0.00    -0.361 OA
HETATM   21  H   UNK N   1      -8.384   3.868  -5.872  0.00  0.00     0.217 HD
ENDBRANCH  17  20
ENDBRANCH   2   7
BRANCH   3  22
HETATM   22  C   UNK N   1       1.311   1.756  -0.103  0.00  0.00     0.076 C 
BRANCH  22  23
HETATM   23  C   UNK N   1       1.135   0.370   0.552  0.00  0.00     0.156 C 
BRANCH  23  24
HETATM   24  O   UNK N   1      -0.225   0.005   0.553  0.00  0.00    -0.392 OA
HETATM   25  H   UNK N   1      -0.730   0.710   1.036  0.00  0.00     0.210 HD
ENDBRANCH  23  24
BRANCH  23  26
HETATM   26  C   UNK N   1       1.753   0.258   1.989  0.00  0.00     0.076 C 
HETATM   27  C   UNK N   1       1.537  -1.171   2.540  0.00  0.00     0.048 C 
HETATM   28  C   UNK N   1       3.277   0.509   1.969  0.00  0.00     0.048 C 
BRANCH  26  29
HETATM   29  O   UNK N   1       1.177   1.209   2.856  0.00  0.00    -0.388 OA
HETATM   30  H   UNK N   1       0.263   0.910   3.097  0.00  0.00     0.210 HD
ENDBRANCH  26  29
ENDBRANCH  23  26
ENDBRANCH  22  23
ENDBRANCH   3  22
BRANCH   1  31
HETATM   31  O   UNK N   1       3.188   1.360  -2.199  0.00  0.00    -0.355 OA
HETATM   32  C   UNK N   1       4.231   1.117  -3.069  0.00  0.00     0.210 C 
ENDBRANCH   1  31
TORSDOF 9
