REMARK  7 active torsions:
REMARK  status: ('A' for Active; 'I' for Inactive)
REMARK    1  A    between atoms: O_3  and  C_10 
REMARK    2  A    between atoms: O_4  and  C_11 
REMARK    3  A    between atoms: O_5  and  C_12 
REMARK    4  A    between atoms: O_6  and  C_13 
REMARK    5  A    between atoms: C_15  and  C_16 
REMARK    6  A    between atoms: C_17  and  C_23 
REMARK    7  A    between atoms: C_24  and  C_25 
ROOT
HETATM    1  O   UNK N   1      -2.722  -2.915  -3.024  0.00  0.00    -0.321 OA
HETATM    2  O   UNK N   1      -2.563   0.993  -3.756  0.00  0.00    -0.286 OA
HETATM    3  C   UNK N   1      -3.839  -2.299  -3.393  0.00  0.00     0.094 A 
HETATM    4  C   UNK N   1      -1.572  -2.275  -2.872  0.00  0.00     0.159 A 
HETATM    5  C   UNK N   1      -2.620  -0.206  -3.543  0.00  0.00     0.200 A 
HETATM    6  C   UNK N   1      -5.065  -0.272  -3.990  0.00  0.00     0.085 A 
HETATM    7  C   UNK N   1      -6.215  -2.417  -3.851  0.00  0.00     0.071 A 
HETATM    8  C   UNK N   1      -3.844  -0.907  -3.652  0.00  0.00     0.082 A 
HETATM    9  C   UNK N   1      -1.468  -0.904  -3.139  0.00  0.00     0.048 A 
HETATM   10  C   UNK N   1      -5.017  -3.041  -3.506  0.00  0.00     0.074 A 
HETATM   11  C   UNK N   1      -6.241  -1.036  -4.084  0.00  0.00     0.074 A 
ENDROOT
BRANCH   9  12
HETATM   12  C   UNK N   1      -0.160  -0.231  -2.961  0.00  0.00    -0.017 A 
HETATM   13  C   UNK N   1       0.401   0.549  -3.973  0.00  0.00     0.052 A 
HETATM   14  C   UNK N   1       1.672   1.122  -3.811  0.00  0.00     0.100 A 
HETATM   15  C   UNK N   1       2.380   0.949  -2.585  0.00  0.00     0.111 A 
HETATM   16  C   UNK N   1       1.779   0.202  -1.542  0.00  0.00     0.001 A 
HETATM   17  C   UNK N   1       0.527  -0.401  -1.760  0.00  0.00     0.027 A 
BRANCH  14  18
HETATM   18  O   UNK N   1       2.204   1.829  -4.829  0.00  0.00    -0.358 OA
HETATM   19  H   UNK N   1       1.744   1.941  -5.674  0.00  0.00     0.218 HD
ENDBRANCH  14  18
BRANCH  15  20
HETATM   20  O   UNK N   1       3.615   1.488  -2.361  0.00  0.00    -0.352 OA
HETATM   21  C   UNK N   1       4.386   2.212  -3.246  0.00  0.00     0.210 C 
ENDBRANCH  15  20
BRANCH  16  22
HETATM   22  C   UNK N   1       2.477   0.048  -0.224  0.00  0.00     0.015 C 
HETATM   23  C   UNK N   1       1.820  -0.279   0.914  0.00  0.00     0.007 C 
BRANCH  23  24
HETATM   24  C   UNK N   1       2.488  -0.440   2.235  0.00  0.00    -0.071 C 
HETATM   25  C   UNK N   1       1.728  -0.613   3.330  0.00  0.00     0.018 C 
HETATM   26  C   UNK N   1       3.990  -0.434   2.360  0.00  0.00     0.047 C 
ENDBRANCH  23  24
ENDBRANCH  16  22
ENDBRANCH   9  12
BRANCH   6  27
HETATM   27  O   UNK N   1      -5.115   1.060  -4.206  0.00  0.00    -0.360 OA
HETATM   28  H   UNK N   1      -5.946   1.516  -4.400  0.00  0.00     0.217 HD
ENDBRANCH   6  27
BRANCH   7  29
HETATM   29  O   UNK N   1      -7.341  -3.152  -3.947  0.00  0.00    -0.361 OA
HETATM   30  H   UNK N   1      -8.192  -2.753  -4.178  0.00  0.00     0.217 HD
ENDBRANCH   7  29
TORSDOF 7
