REMARK  8 active torsions:
REMARK  status: ('A' for Active; 'I' for Inactive)
REMARK    1  A    between atoms: O_3  and  C_11 
REMARK    2  A    between atoms: O_4  and  C_12 
REMARK    3  A    between atoms: O_5  and  C_13 
REMARK    4  A    between atoms: O_6  and  C_14 
REMARK    5  A    between atoms: O_7  and  C_15 
REMARK    6  A    between atoms: C_17  and  C_18 
REMARK    7  A    between atoms: C_19  and  C_26 
REMARK    8  A    between atoms: C_26  and  C_28 
ROOT
HETATM    1  O   UNK N   1       0.436  -0.398   1.401  0.00  0.00    -0.321 OA
HETATM    2  O   UNK N   1       1.081   0.955  -2.283  0.00  0.00    -0.286 OA
HETATM    3  C   UNK N   1       1.685  -0.106   1.049  0.00  0.00     0.094 A 
HETATM    4  C   UNK N   1      -0.592  -0.238   0.580  0.00  0.00     0.159 A 
HETATM    5  C   UNK N   1       0.901   0.537  -1.152  0.00  0.00     0.200 A 
HETATM    6  C   UNK N   1       3.320   0.691  -0.588  0.00  0.00     0.092 A 
HETATM    7  C   UNK N   1       4.021   0.058   1.671  0.00  0.00     0.077 A 
HETATM    8  C   UNK N   1       1.979   0.372  -0.248  0.00  0.00     0.083 A 
HETATM    9  C   UNK N   1      -0.401   0.247  -0.717  0.00  0.00     0.050 A 
HETATM   10  C   UNK N   1       4.349   0.539   0.385  0.00  0.00     0.013 A 
HETATM   11  C   UNK N   1       2.699  -0.263   1.988  0.00  0.00     0.075 A 
ENDROOT
BRANCH   9  12
HETATM   12  C   UNK N   1      -1.581   0.488  -1.566  0.00  0.00     0.016 A 
HETATM   13  C   UNK N   1      -2.293   1.726  -1.543  0.00  0.00     0.115 A 
HETATM   14  C   UNK N   1      -3.483   1.850  -2.319  0.00  0.00     0.136 A 
HETATM   15  C   UNK N   1      -3.916   0.777  -3.118  0.00  0.00     0.104 A 
HETATM   16  C   UNK N   1      -3.186  -0.424  -3.136  0.00  0.00     0.040 A 
HETATM   17  C   UNK N   1      -2.041  -0.566  -2.361  0.00  0.00     0.018 A 
BRANCH  13  18
HETATM   18  O   UNK N   1      -1.891   2.810  -0.816  0.00  0.00    -0.352 OA
HETATM   19  C   UNK N   1      -0.632   3.152  -0.370  0.00  0.00     0.210 C 
ENDBRANCH  13  18
BRANCH  14  20
HETATM   20  O   UNK N   1      -4.245   2.986  -2.339  0.00  0.00    -0.351 OA
HETATM   21  C   UNK N   1      -4.048   4.152  -1.624  0.00  0.00     0.210 C 
ENDBRANCH  14  20
BRANCH  15  22
HETATM   22  O   UNK N   1      -5.043   0.940  -3.864  0.00  0.00    -0.353 OA
HETATM   23  C   UNK N   1      -5.567   0.006  -4.735  0.00  0.00     0.210 C 
ENDBRANCH  15  22
ENDBRANCH   9  12
BRANCH   6  24
HETATM   24  O   UNK N   1       3.593   1.159  -1.828  0.00  0.00    -0.359 OA
HETATM   25  H   UNK N   1       4.469   1.424  -2.125  0.00  0.00     0.218 HD
ENDBRANCH   6  24
BRANCH  10  26
HETATM   26  C   UNK N   1       5.795   0.872   0.065  0.00  0.00     0.071 C 
BRANCH  26  27
HETATM   27  C   UNK N   1       6.450  -0.322  -0.586  0.00  0.00    -0.020 C 
HETATM   28  C   UNK N   1       7.064  -0.360  -1.793  0.00  0.00    -0.091 C 
HETATM   29  C   UNK N   1       7.673  -1.658  -2.259  0.00  0.00     0.042 C 
HETATM   30  C   UNK N   1       7.192   0.825  -2.721  0.00  0.00     0.042 C 
ENDBRANCH  26  27
ENDBRANCH  10  26
BRANCH   7  31
HETATM   31  O   UNK N   1       4.986  -0.109   2.602  0.00  0.00    -0.360 OA
HETATM   32  H   UNK N   1       4.792  -0.452   3.486  0.00  0.00     0.217 HD
ENDBRANCH   7  31
TORSDOF 8
