REMARK  8 active torsions:
REMARK  status: ('A' for Active; 'I' for Inactive)
REMARK    1  A    between atoms: O_2  and  C_7 
REMARK    2  A    between atoms: O_3  and  C_8 
REMARK    3  A    between atoms: O_4  and  C_9 
REMARK    4  A    between atoms: C_10  and  C_18 
REMARK    5  A    between atoms: C_12  and  C_21 
REMARK    6  A    between atoms: C_13  and  C_22 
REMARK    7  A    between atoms: C_22  and  C_27 
REMARK    8  A    between atoms: C_25  and  C_26 
ROOT
HETATM    1  C   UNK N   1       2.586   1.142  -2.615  0.00  0.00     0.085 A 
HETATM    2  C   UNK N   1      -0.079   0.341  -3.132  0.00  0.00    -0.027 A 
HETATM    3  C   UNK N   1       1.857   1.708  -3.703  0.00  0.00    -0.002 A 
HETATM    4  C   UNK N   1       1.967   0.148  -1.824  0.00  0.00    -0.020 A 
HETATM    5  C   UNK N   1       0.540   1.299  -3.944  0.00  0.00     0.024 A 
HETATM    6  C   UNK N   1       0.640  -0.235  -2.077  0.00  0.00     0.020 A 
ENDROOT
BRANCH   2   7
HETATM    7  C   UNK N   1      -1.524  -0.020  -3.390  0.00  0.00     0.169 C 
HETATM    8  O   UNK N   1      -1.797  -1.342  -3.052  0.00  0.00    -0.340 OA
HETATM    9  C   UNK N   1      -3.066  -1.835  -3.096  0.00  0.00     0.089 A 
HETATM   10  C   UNK N   1      -4.169  -0.954  -3.066  0.00  0.00     0.076 A 
HETATM   11  C   UNK N   1      -3.272  -3.213  -3.195  0.00  0.00     0.074 A 
HETATM   12  C   UNK N   1      -5.478  -1.467  -3.184  0.00  0.00     0.085 A 
HETATM   13  C   UNK N   1      -3.882   0.497  -2.919  0.00  0.00     0.167 C 
HETATM   14  C   UNK N   1      -5.668  -2.853  -3.304  0.00  0.00     0.074 A 
HETATM   15  C   UNK N   1      -4.569  -3.725  -3.302  0.00  0.00     0.071 A 
HETATM   16  O   UNK N   1      -4.759   1.338  -3.044  0.00  0.00    -0.292 OA
HETATM   17  C   UNK N   1      -2.467   0.916  -2.622  0.00  0.00     0.121 C 
BRANCH  12  18
HETATM   18  O   UNK N   1      -6.542  -0.637  -3.181  0.00  0.00    -0.360 OA
HETATM   19  H   UNK N   1      -7.448  -0.966  -3.273  0.00  0.00     0.217 HD
ENDBRANCH  12  18
BRANCH  15  20
HETATM   20  O   UNK N   1      -4.750  -5.057  -3.415  0.00  0.00    -0.361 OA
HETATM   21  H   UNK N   1      -5.632  -5.445  -3.504  0.00  0.00     0.217 HD
ENDBRANCH  15  20
ENDBRANCH   2   7
BRANCH   3  22
HETATM   22  C   UNK N   1       2.420   2.739  -4.590  0.00  0.00     0.015 C 
HETATM   23  C   UNK N   1       3.056   2.405  -5.728  0.00  0.00     0.007 C 
BRANCH  23  24
HETATM   24  C   UNK N   1       3.683   3.425  -6.618  0.00  0.00    -0.071 C 
HETATM   25  C   UNK N   1       4.320   3.029  -7.730  0.00  0.00     0.018 C 
HETATM   26  C   UNK N   1       3.623   4.894  -6.273  0.00  0.00     0.047 C 
ENDBRANCH  23  24
ENDBRANCH   3  22
BRANCH   4  27
HETATM   27  C   UNK N   1       2.706  -0.479  -0.667  0.00  0.00     0.068 C 
BRANCH  27  28
HETATM   28  C   UNK N   1       2.523   0.370   0.569  0.00  0.00    -0.020 C 
HETATM   29  C   UNK N   1       1.986  -0.033   1.749  0.00  0.00    -0.091 C 
HETATM   30  C   UNK N   1       1.883   0.958   2.880  0.00  0.00     0.042 C 
HETATM   31  C   UNK N   1       1.474  -1.429   2.022  0.00  0.00     0.042 C 
ENDBRANCH  27  28
ENDBRANCH   4  27
BRANCH   1  32
HETATM   32  O   UNK N   1       3.853   1.519  -2.265  0.00  0.00    -0.355 OA
HETATM   33  C   UNK N   1       4.557   2.643  -2.646  0.00  0.00     0.210 C 
ENDBRANCH   1  32
TORSDOF 8
