REMARK  7 active torsions:
REMARK  status: ('A' for Active; 'I' for Inactive)
REMARK    1  A    between atoms: O_3  and  C_12 
REMARK    2  A    between atoms: O_4  and  C_13 
REMARK    3  A    between atoms: O_5  and  C_14 
REMARK    4  A    between atoms: O_6  and  C_15 
REMARK    5  A    between atoms: O_7  and  C_16 
REMARK    6  A    between atoms: O_8  and  C_17 
REMARK    7  A    between atoms: C_10  and  C_19 
ROOT
HETATM    1  O   UNK N   1      -1.213   0.751   0.041  0.00  0.00    -0.309 OA
HETATM    2  O   UNK N   1      -2.342   0.558  -3.753  0.00  0.00    -0.287 OA
HETATM    3  C   UNK N   1      -2.510   0.848  -0.230  0.00  0.00     0.095 A 
HETATM    4  C   UNK N   1      -0.271   0.619  -0.894  0.00  0.00     0.093 A 
HETATM    5  C   UNK N   1      -2.012   0.628  -2.583  0.00  0.00     0.190 A 
HETATM    6  C   UNK N   1      -4.362   0.880  -1.818  0.00  0.00     0.085 A 
HETATM    7  C   UNK N   1      -4.785   1.123   0.567  0.00  0.00     0.071 A 
HETATM    8  C   UNK N   1      -2.971   0.786  -1.562  0.00  0.00     0.081 A 
HETATM    9  C   UNK N   1      -0.659   0.551  -2.247  0.00  0.00     0.094 A 
HETATM   10  C   UNK N   1      -3.413   1.018   0.823  0.00  0.00     0.075 A 
HETATM   11  C   UNK N   1      -5.255   1.049  -0.746  0.00  0.00     0.074 A 
ENDROOT
BRANCH   4  12
HETATM   12  C   UNK N   1       1.156   0.531  -0.428  0.00  0.00     0.037 A 
HETATM   13  C   UNK N   1       2.272   0.894  -1.226  0.00  0.00     0.117 A 
HETATM   14  C   UNK N   1       3.585   0.819  -0.675  0.00  0.00     0.139 A 
HETATM   15  C   UNK N   1       3.779   0.297   0.635  0.00  0.00     0.138 A 
HETATM   16  C   UNK N   1       2.655  -0.074   1.413  0.00  0.00     0.105 A 
HETATM   17  C   UNK N   1       1.368   0.077   0.878  0.00  0.00     0.057 A 
BRANCH  13  18
HETATM   18  O   UNK N   1       2.043   1.338  -2.495  0.00  0.00    -0.352 OA
HETATM   19  C   UNK N   1       2.942   1.460  -3.536  0.00  0.00     0.210 C 
ENDBRANCH  13  18
BRANCH  14  20
HETATM   20  O   UNK N   1       4.627   1.275  -1.428  0.00  0.00    -0.351 OA
HETATM   21  C   UNK N   1       5.848   1.748  -0.983  0.00  0.00     0.210 C 
ENDBRANCH  14  20
BRANCH  15  22
HETATM   22  O   UNK N   1       5.056   0.146   1.088  0.00  0.00    -0.351 OA
HETATM   23  C   UNK N   1       5.506  -0.669   2.108  0.00  0.00     0.210 C 
ENDBRANCH  15  22
BRANCH  16  24
HETATM   24  O   UNK N   1       2.830  -0.562   2.671  0.00  0.00    -0.353 OA
HETATM   25  C   UNK N   1       1.831  -0.979   3.529  0.00  0.00     0.210 C 
ENDBRANCH  16  24
ENDBRANCH   4  12
BRANCH   6  26
HETATM   26  O   UNK N   1      -4.838   0.811  -3.079  0.00  0.00    -0.360 OA
HETATM   27  H   UNK N   1      -5.785   0.866  -3.272  0.00  0.00     0.217 HD
ENDBRANCH   6  26
BRANCH   7  28
HETATM   28  O   UNK N   1      -5.659   1.296   1.579  0.00  0.00    -0.361 OA
HETATM   29  H   UNK N   1      -5.367   1.363   2.499  0.00  0.00     0.217 HD
ENDBRANCH   7  28
TORSDOF 7
