REMARK  6 active torsions:
REMARK  status: ('A' for Active; 'I' for Inactive)
REMARK    1  A    between atoms: O_3  and  C_9 
REMARK    2  A    between atoms: O_4  and  C_10 
REMARK    3  A    between atoms: O_5  and  C_21 
REMARK    4  A    between atoms: C_7  and  C_12 
REMARK    5  A    between atoms: C_13  and  C_24 
REMARK    6  A    between atoms: C_21  and  C_25 
ROOT
HETATM    1  O   UNK N   1      -0.065   0.639  -1.486  0.00  0.00    -0.308 OA
HETATM    2  O   UNK N   1      -3.934   0.041  -0.861  0.00  0.00    -0.287 OA
HETATM    3  C   UNK N   1      -0.890   0.831  -2.518  0.00  0.00     0.106 A 
HETATM    4  C   UNK N   1      -0.474   0.228  -0.286  0.00  0.00     0.090 A 
HETATM    5  C   UNK N   1      -2.749   0.228  -1.075  0.00  0.00     0.190 A 
HETATM    6  C   UNK N   1      -3.155   0.784  -3.444  0.00  0.00     0.087 A 
HETATM    7  C   UNK N   1      -1.265   1.284  -4.892  0.00  0.00     0.084 A 
HETATM    8  C   UNK N   1      -2.283   0.630  -2.346  0.00  0.00     0.082 A 
HETATM    9  C   UNK N   1      -0.368   1.158  -3.800  0.00  0.00     0.032 A 
HETATM   10  C   UNK N   1      -1.836   0.008  -0.053  0.00  0.00     0.094 A 
HETATM   11  C   UNK N   1      -2.636   1.101  -4.702  0.00  0.00     0.075 A 
ENDROOT
BRANCH   9  12
HETATM   12  C   UNK N   1       1.102   1.277  -4.057  0.00  0.00     0.016 C 
HETATM   13  C   UNK N   1       2.004   1.689  -3.142  0.00  0.00     0.011 C 
BRANCH  13  14
HETATM   14  C   UNK N   1       3.506   1.792  -3.405  0.00  0.00     0.068 C 
HETATM   15  C   UNK N   1       4.014   0.911  -4.569  0.00  0.00     0.050 C 
HETATM   16  C   UNK N   1       3.842   3.258  -3.704  0.00  0.00     0.050 C 
BRANCH  14  17
HETATM   17  O   UNK N   1       4.192   1.420  -2.234  0.00  0.00    -0.387 OA
HETATM   18  H   UNK N   1       3.914   0.497  -1.994  0.00  0.00     0.211 HD
ENDBRANCH  14  17
ENDBRANCH  13  14
ENDBRANCH   9  12
BRANCH   7  19
HETATM   19  O   UNK N   1      -0.828   1.587  -6.140  0.00  0.00    -0.355 OA
HETATM   20  C   UNK N   1      -0.306   2.823  -6.472  0.00  0.00     0.210 C 
ENDBRANCH   7  19
BRANCH   4  21
HETATM   21  C   UNK N   1       0.530  -0.017   0.777  0.00  0.00    -0.002 A 
HETATM   22  C   UNK N   1       1.711   0.744   0.818  0.00  0.00     0.014 A 
HETATM   23  C   UNK N   1       2.660   0.520   1.819  0.00  0.00     0.001 A 
HETATM   24  C   UNK N   1       2.455  -0.483   2.769  0.00  0.00     0.000 A 
HETATM   25  C   UNK N   1       1.294  -1.258   2.727  0.00  0.00     0.001 A 
HETATM   26  C   UNK N   1       0.329  -1.021   1.746  0.00  0.00     0.014 A 
ENDBRANCH   4  21
BRANCH   6  27
HETATM   27  O   UNK N   1      -4.487   0.612  -3.291  0.00  0.00    -0.355 OA
HETATM   28  C   UNK N   1      -5.148  -0.486  -3.797  0.00  0.00     0.210 C 
ENDBRANCH   6  27
TORSDOF 6
