REMARK  6 active torsions:
REMARK  status: ('A' for Active; 'I' for Inactive)
REMARK    1  A    between atoms: O_2  and  C_7 
REMARK    2  A    between atoms: O_3  and  C_8 
REMARK    3  A    between atoms: O_4  and  C_9 
REMARK    4  A    between atoms: C_10  and  C_18 
REMARK    5  A    between atoms: C_12  and  C_21 
REMARK    6  A    between atoms: C_21  and  C_24 
ROOT
HETATM    1  C   UNK N   1       1.144   2.478  -2.962  0.00  0.00     0.102 A 
HETATM    2  C   UNK N   1       1.912   1.533  -2.244  0.00  0.00     0.105 A 
HETATM    3  C   UNK N   1      -0.878   1.668  -1.868  0.00  0.00    -0.025 A 
HETATM    4  C   UNK N   1       1.270   0.656  -1.336  0.00  0.00    -0.018 A 
HETATM    5  C   UNK N   1      -0.246   2.530  -2.773  0.00  0.00     0.049 A 
HETATM    6  C   UNK N   1      -0.114   0.738  -1.152  0.00  0.00     0.020 A 
ENDROOT
BRANCH   3   7
HETATM    7  C   UNK N   1      -2.367   1.734  -1.668  0.00  0.00     0.169 C 
HETATM    8  O   UNK N   1      -2.827   3.039  -1.801  0.00  0.00    -0.340 OA
HETATM    9  C   UNK N   1      -4.152   3.325  -1.761  0.00  0.00     0.086 A 
HETATM   10  C   UNK N   1      -5.096   2.313  -2.023  0.00  0.00     0.043 A 
HETATM   11  C   UNK N   1      -4.579   4.617  -1.443  0.00  0.00     0.074 A 
HETATM   12  C   UNK N   1      -6.465   2.593  -1.915  0.00  0.00     0.021 A 
HETATM   13  C   UNK N   1      -4.590   0.976  -2.419  0.00  0.00     0.165 C 
HETATM   14  C   UNK N   1      -6.887   3.881  -1.568  0.00  0.00     0.037 A 
HETATM   15  C   UNK N   1      -5.945   4.898  -1.341  0.00  0.00     0.068 A 
HETATM   16  O   UNK N   1      -5.357   0.047  -2.627  0.00  0.00    -0.292 OA
HETATM   17  C   UNK N   1      -3.110   0.804  -2.640  0.00  0.00     0.121 C 
BRANCH  15  18
HETATM   18  O   UNK N   1      -6.344   6.144  -1.014  0.00  0.00    -0.361 OA
HETATM   19  H   UNK N   1      -7.280   6.370  -0.920  0.00  0.00     0.217 HD
ENDBRANCH  15  18
ENDBRANCH   3   7
BRANCH   1  20
HETATM   20  O   UNK N   1       1.773   3.326  -3.827  0.00  0.00    -0.353 OA
HETATM   21  C   UNK N   1       1.137   4.300  -4.574  0.00  0.00     0.210 C 
ENDBRANCH   1  20
BRANCH   4  22
HETATM   22  C   UNK N   1       2.052  -0.380  -0.565  0.00  0.00     0.068 C 
BRANCH  22  23
HETATM   23  C   UNK N   1       2.511   0.178   0.762  0.00  0.00    -0.020 C 
HETATM   24  C   UNK N   1       2.196  -0.303   1.993  0.00  0.00    -0.091 C 
HETATM   25  C   UNK N   1       2.789   0.360   3.212  0.00  0.00     0.042 C 
HETATM   26  C   UNK N   1       1.278  -1.478   2.243  0.00  0.00     0.042 C 
ENDBRANCH  22  23
ENDBRANCH   4  22
BRANCH   2  27
HETATM   27  O   UNK N   1       3.247   1.461  -2.409  0.00  0.00    -0.357 OA
HETATM   28  H   UNK N   1       3.729   2.047  -3.012  0.00  0.00     0.218 HD
ENDBRANCH   2  27
TORSDOF 6
