REMARK  10 active torsions:
REMARK  status: ('A' for Active; 'I' for Inactive)
REMARK    1  A    between atoms: O_2  and  C_9 
REMARK    2  A    between atoms: O_2  and  C_14 
REMARK    3  A    between atoms: O_3  and  C_10 
REMARK    4  A    between atoms: O_4  and  C_11 
REMARK    5  A    between atoms: O_5  and  C_12 
REMARK    6  A    between atoms: O_7  and  C_17 
REMARK    7  A    between atoms: O_8  and  C_18 
REMARK    8  A    between atoms: C_13  and  C_17 
REMARK    9  A    between atoms: C_15  and  C_19 
REMARK   10  A    between atoms: C_18  and  C_21 
ROOT
HETATM    1  O   UNK N   1      -3.364   0.666  -0.229  0.00  0.00    -0.348 OA
HETATM    2  C   UNK N   1      -2.452  -0.378   0.097  0.00  0.00     0.292 C 
HETATM    3  C   UNK N   1      -3.132  -1.756  -0.028  0.00  0.00     0.204 C 
HETATM    4  C   UNK N   1      -3.687  -1.941  -1.448  0.00  0.00     0.183 C 
HETATM    5  C   UNK N   1      -4.630  -0.770  -1.768  0.00  0.00     0.180 C 
HETATM    6  C   UNK N   1      -3.870   0.566  -1.556  0.00  0.00     0.179 C 
ENDROOT
BRANCH   2   7
HETATM    7  O   UNK N   1      -1.266  -0.338  -0.687  0.00  0.00    -0.345 OA
BRANCH   7   8
HETATM    8  C   UNK N   1      -0.553   0.889  -0.578  0.00  0.00     0.203 C 
HETATM    9  C   UNK N   1      -0.018   1.220   0.844  0.00  0.00     0.029 C 
HETATM   10  C   UNK N   1       0.694   2.603   0.771  0.00  0.00     0.035 C 
HETATM   11  C   UNK N   1       1.700   2.728  -0.348  0.00  0.00    -0.013 C 
HETATM   12  C   UNK N   1       1.679   1.914  -1.422  0.00  0.00     0.010 C 
HETATM   13  C   UNK N   1       0.611   0.881  -1.548  0.00  0.00     0.186 C 
HETATM   14  O   UNK N   1       0.685   0.024  -2.417  0.00  0.00    -0.290 OA
BRANCH   9  15
HETATM   15  C   UNK N   1       0.793   0.055   1.529  0.00  0.00    -0.016 C 
HETATM   16  C   UNK N   1       2.086  -0.395   0.829  0.00  0.00     0.010 C 
HETATM   17  C   UNK N   1       1.118   0.395   2.995  0.00  0.00     0.010 C 
ENDBRANCH   9  15
BRANCH  12  18
HETATM   18  C   UNK N   1       2.752   2.036  -2.478  0.00  0.00     0.206 C 
BRANCH  18  19
HETATM   19  O   UNK N   1       3.545   0.880  -2.493  0.00  0.00    -0.396 OA
HETATM   20  H   UNK N   1       4.190   0.975  -1.742  0.00  0.00     0.209 HD
ENDBRANCH  18  19
ENDBRANCH  12  18
ENDBRANCH   7   8
ENDBRANCH   2   7
BRANCH   3  21
HETATM   21  O   UNK N   1      -2.253  -2.795   0.327  0.00  0.00    -0.388 OA
HETATM   22  H   UNK N   1      -1.535  -2.836  -0.356  0.00  0.00     0.210 HD
ENDBRANCH   3  21
BRANCH   6  23
HETATM   23  C   UNK N   1      -4.800   1.776  -1.772  0.00  0.00     0.198 C 
BRANCH  23  24
HETATM   24  O   UNK N   1      -5.375   1.783  -3.051  0.00  0.00    -0.398 OA
HETATM   25  H   UNK N   1      -4.645   1.983  -3.692  0.00  0.00     0.209 HD
ENDBRANCH  23  24
ENDBRANCH   6  23
BRANCH   4  26
HETATM   26  O   UNK N   1      -4.344  -3.178  -1.578  0.00  0.00    -0.390 OA
HETATM   27  H   UNK N   1      -5.115  -3.179  -0.952  0.00  0.00     0.210 HD
ENDBRANCH   4  26
BRANCH   5  28
HETATM   28  O   UNK N   1      -5.074  -0.872  -3.097  0.00  0.00    -0.390 OA
HETATM   29  H   UNK N   1      -5.797  -1.552  -3.109  0.00  0.00     0.210 HD
ENDBRANCH   5  28
TORSDOF 10
