REMARK  4 active torsions:
REMARK  status: ('A' for Active; 'I' for Inactive)
REMARK    1  A    between atoms: O_4  and  C_11 
REMARK    2  A    between atoms: O_5  and  C_12 
REMARK    3  A    between atoms: O_6  and  C_13 
REMARK    4  A    between atoms: C_15  and  C_16 
ROOT
HETATM    1  O   UNK N   1      -0.429  -0.234   1.081  0.00  0.00    -0.320 OA
HETATM    2  O   UNK N   1      -0.921   1.547  -2.441  0.00  0.00    -0.286 OA
HETATM    3  O   UNK N   1       4.300   0.208   0.825  0.00  0.00    -0.333 OA
HETATM    4  C   UNK N   1       0.651   0.191   0.429  0.00  0.00     0.102 A 
HETATM    5  C   UNK N   1      -1.660  -0.065   0.612  0.00  0.00     0.159 A 
HETATM    6  C   UNK N   1      -0.767   0.997  -1.363  0.00  0.00     0.198 A 
HETATM    7  C   UNK N   1       3.067   0.444   0.309  0.00  0.00     0.116 A 
HETATM    8  C   UNK N   1       2.935   1.142  -0.905  0.00  0.00     0.101 A 
HETATM    9  C   UNK N   1       0.519   0.847  -0.814  0.00  0.00     0.052 A 
HETATM   10  C   UNK N   1      -1.879   0.534  -0.635  0.00  0.00     0.048 A 
HETATM   11  C   UNK N   1       1.927  -0.025   0.976  0.00  0.00     0.035 A 
HETATM   12  C   UNK N   1       1.668   1.331  -1.468  0.00  0.00     0.057 A 
HETATM   13  C   UNK N   1       4.579  -0.554   1.959  0.00  0.00     0.078 A 
HETATM   14  C   UNK N   1       2.102  -0.763   2.235  0.00  0.00     0.016 A 
HETATM   15  C   UNK N   1       3.330  -1.023   2.694  0.00  0.00     0.012 A 
HETATM   16  C   UNK N   1       5.426   0.289   2.921  0.00  0.00     0.051 C 
HETATM   17  C   UNK N   1       5.373  -1.785   1.507  0.00  0.00     0.051 C 
ENDROOT
BRANCH  10  18
HETATM   18  C   UNK N   1      -3.265   0.671  -1.144  0.00  0.00    -0.017 A 
HETATM   19  C   UNK N   1      -3.604   0.233  -2.433  0.00  0.00     0.052 A 
HETATM   20  C   UNK N   1      -4.935   0.331  -2.897  0.00  0.00     0.102 A 
HETATM   21  C   UNK N   1      -5.913   0.920  -2.075  0.00  0.00     0.101 A 
HETATM   22  C   UNK N   1      -5.559   1.366  -0.785  0.00  0.00     0.040 A 
HETATM   23  C   UNK N   1      -4.254   1.222  -0.321  0.00  0.00     0.015 A 
BRANCH  20  24
HETATM   24  O   UNK N   1      -5.307  -0.142  -4.118  0.00  0.00    -0.353 OA
HETATM   25  C   UNK N   1      -4.492  -0.852  -4.977  0.00  0.00     0.210 C 
ENDBRANCH  20  24
BRANCH  21  26
HETATM   26  O   UNK N   1      -7.184   1.034  -2.548  0.00  0.00    -0.353 OA
HETATM   27  C   UNK N   1      -8.228   1.640  -1.877  0.00  0.00     0.210 C 
ENDBRANCH  21  26
ENDBRANCH  10  18
BRANCH   8  28
HETATM   28  O   UNK N   1       4.019   1.625  -1.549  0.00  0.00    -0.358 OA
HETATM   29  H   UNK N   1       4.914   1.539  -1.191  0.00  0.00     0.218 HD
ENDBRANCH   8  28
TORSDOF 4
