REMARK  5 active torsions:
REMARK  status: ('A' for Active; 'I' for Inactive)
REMARK    1  A    between atoms: O_2  and  C_8 
REMARK    2  A    between atoms: O_3  and  C_9 
REMARK    3  A    between atoms: O_4  and  C_10 
REMARK    4  A    between atoms: O_5  and  C_11 
REMARK    5  A    between atoms: C_12  and  C_19 
ROOT
HETATM    1  O   UNK N   1       0.697   0.261  -0.116  0.00  0.00    -0.340 OA
HETATM    2  O   UNK N   1       3.983   1.258  -2.147  0.00  0.00    -0.292 OA
HETATM    3  C   UNK N   1       1.880   0.181   0.552  0.00  0.00     0.089 A 
HETATM    4  C   UNK N   1       4.305   0.516   0.616  0.00  0.00     0.120 A 
HETATM    5  C   UNK N   1       3.119  -0.426   2.542  0.00  0.00     0.106 A 
HETATM    6  C   UNK N   1       4.321   0.003   1.942  0.00  0.00     0.134 A 
HETATM    7  C   UNK N   1       3.069   0.602  -0.071  0.00  0.00     0.079 A 
HETATM    8  C   UNK N   1       1.910  -0.333   1.847  0.00  0.00     0.077 A 
HETATM    9  C   UNK N   1       0.493   1.221  -1.095  0.00  0.00     0.169 C 
HETATM   10  C   UNK N   1       2.978   1.073  -1.479  0.00  0.00     0.168 C 
HETATM   11  C   UNK N   1       1.633   1.181  -2.138  0.00  0.00     0.121 C 
ENDROOT
BRANCH   9  12
HETATM   12  C   UNK N   1      -0.905   1.108  -1.698  0.00  0.00    -0.028 A 
HETATM   13  C   UNK N   1      -2.001   0.811  -0.867  0.00  0.00     0.012 A 
HETATM   14  C   UNK N   1      -3.293   0.706  -1.398  0.00  0.00     0.037 A 
HETATM   15  C   UNK N   1      -3.517   0.923  -2.773  0.00  0.00     0.068 A 
HETATM   16  C   UNK N   1      -2.433   1.232  -3.597  0.00  0.00     0.037 A 
HETATM   17  C   UNK N   1      -1.142   1.318  -3.075  0.00  0.00     0.012 A 
BRANCH  15  18
HETATM   18  O   UNK N   1      -4.752   0.852  -3.335  0.00  0.00    -0.356 OA
HETATM   19  C   UNK N   1      -5.908   0.481  -2.681  0.00  0.00     0.210 C 
ENDBRANCH  15  18
ENDBRANCH   9  12
BRANCH   4  20
HETATM   20  O   UNK N   1       5.433   0.926  -0.033  0.00  0.00    -0.352 OA
HETATM   21  C   UNK N   1       6.727   0.943   0.446  0.00  0.00     0.210 C 
ENDBRANCH   4  20
BRANCH   5  22
HETATM   22  O   UNK N   1       3.126  -0.941   3.791  0.00  0.00    -0.353 OA
HETATM   23  C   UNK N   1       3.401  -2.275   4.006  0.00  0.00     0.210 C 
ENDBRANCH   5  22
BRANCH   6  24
HETATM   24  O   UNK N   1       5.482  -0.081   2.630  0.00  0.00    -0.356 OA
HETATM   25  H   UNK N   1       5.534  -0.404   3.540  0.00  0.00     0.218 HD
ENDBRANCH   6  24
TORSDOF 5
