REMARK  5 active torsions:
REMARK  status: ('A' for Active; 'I' for Inactive)
REMARK    1  A    between atoms: O_1  and  C_4 
REMARK    2  A    between atoms: O_2  and  C_13 
REMARK    3  A    between atoms: O_3  and  C_14 
REMARK    4  A    between atoms: C_7  and  C_13 
REMARK    5  A    between atoms: C_11  and  C_14 
ROOT
HETATM    1  C   UNK N   1       1.494  -0.848  -1.395  0.00  0.00     0.124 C 
HETATM    2  C   UNK N   1       2.126   0.295  -0.510  0.00  0.00     0.033 C 
HETATM    3  C   UNK N   1       1.011   0.818   0.507  0.00  0.00    -0.033 C 
HETATM    4  C   UNK N   1      -3.118   1.110  -1.310  0.00  0.00    -0.010 A 
HETATM    5  C   UNK N   1      -2.872   1.558   0.121  0.00  0.00     0.002 A 
HETATM    6  C   UNK N   1      -3.075   0.047  -0.246  0.00  0.00     0.002 A 
HETATM    7  C   UNK N   1      -0.319   1.251  -0.263  0.00  0.00     0.003 C 
HETATM    8  C   UNK N   1       3.009   1.428  -1.254  0.00  0.00    -0.016 C 
HETATM    9  C   UNK N   1      -0.885   0.205  -1.288  0.00  0.00    -0.033 C 
HETATM   10  C   UNK N   1       0.235  -0.394  -2.172  0.00  0.00     0.042 C 
HETATM   11  C   UNK N   1      -1.903   0.921  -2.200  0.00  0.00     0.022 C 
HETATM   12  C   UNK N   1      -1.456   1.739   0.687  0.00  0.00     0.012 C 
HETATM   13  C   UNK N   1      -1.833  -0.804  -0.609  0.00  0.00     0.016 C 
HETATM   14  C   UNK N   1       1.565   2.005   1.352  0.00  0.00     0.010 C 
HETATM   15  C   UNK N   1       3.388   2.536  -0.228  0.00  0.00     0.012 C 
HETATM   16  C   UNK N   1       0.756  -0.310   1.569  0.00  0.00     0.016 C 
HETATM   17  C   UNK N   1       2.356   2.104  -2.488  0.00  0.00     0.018 C 
HETATM   18  C   UNK N   1       2.186   3.114   0.513  0.00  0.00     0.002 C 
ENDROOT
BRANCH   8  19
HETATM   19  C   UNK N   1       4.368   0.816  -1.741  0.00  0.00     0.173 C 
BRANCH  19  20
HETATM   20  O   UNK N   1       5.238   1.797  -2.249  0.00  0.00    -0.400 OA
HETATM   21  H   UNK N   1       5.071   1.865  -3.225  0.00  0.00     0.209 HD
ENDBRANCH  19  20
ENDBRANCH   8  19
BRANCH   1  22
HETATM   22  O   UNK N   1       2.443  -1.452  -2.240  0.00  0.00    -0.395 OA
HETATM   23  H   UNK N   1       2.377  -1.048  -3.143  0.00  0.00     0.210 HD
ENDBRANCH   1  22
BRANCH   4  24
HETATM   24  C   UNK N   1      -4.464   1.547  -1.899  0.00  0.00     0.174 C 
BRANCH  24  25
HETATM   25  O   UNK N   1      -4.842   0.703  -2.951  0.00  0.00    -0.400 OA
HETATM   26  H   UNK N   1      -5.030  -0.185  -2.550  0.00  0.00     0.209 HD
ENDBRANCH  24  25
ENDBRANCH   4  24
TORSDOF 5
