REMARK  5 active torsions:
REMARK  status: ('A' for Active; 'I' for Inactive)
REMARK    1  A    between atoms: O_3  and  C_8 
REMARK    2  A    between atoms: O_4  and  C_9 
REMARK    3  A    between atoms: C_11  and  C_12 
REMARK    4  A    between atoms: C_13  and  C_21 
REMARK    5  A    between atoms: C_21  and  C_23 
ROOT
HETATM    1  O   UNK N   1      -2.100  -0.200  -4.314  0.00  0.00    -0.321 OA
HETATM    2  O   UNK N   1      -1.044   2.915  -2.074  0.00  0.00    -0.286 OA
HETATM    3  C   UNK N   1      -3.044   0.647  -3.917  0.00  0.00     0.091 A 
HETATM    4  C   UNK N   1      -0.819  -0.037  -4.005  0.00  0.00     0.159 A 
HETATM    5  C   UNK N   1      -1.368   1.954  -2.751  0.00  0.00     0.197 A 
HETATM    6  C   UNK N   1      -5.374   1.322  -3.913  0.00  0.00     0.068 A 
HETATM    7  C   UNK N   1      -2.711   1.771  -3.130  0.00  0.00     0.049 A 
HETATM    8  C   UNK N   1      -0.398   1.035  -3.200  0.00  0.00     0.048 A 
HETATM    9  C   UNK N   1      -4.372   0.423  -4.293  0.00  0.00     0.074 A 
HETATM   10  C   UNK N   1      -5.044   2.454  -3.152  0.00  0.00     0.037 A 
HETATM   11  C   UNK N   1      -3.722   2.677  -2.756  0.00  0.00     0.021 A 
ENDROOT
BRANCH   8  12
HETATM   12  C   UNK N   1       1.044   1.169  -2.853  0.00  0.00    -0.019 A 
HETATM   13  C   UNK N   1       1.446   1.476  -1.543  0.00  0.00     0.022 A 
HETATM   14  C   UNK N   1       2.811   1.549  -1.210  0.00  0.00    -0.021 A 
HETATM   15  C   UNK N   1       3.788   1.367  -2.213  0.00  0.00     0.074 A 
HETATM   16  C   UNK N   1       3.375   1.078  -3.530  0.00  0.00     0.038 A 
HETATM   17  C   UNK N   1       2.021   0.958  -3.837  0.00  0.00     0.015 A 
BRANCH  14  18
HETATM   18  C   UNK N   1       3.207   1.788   0.226  0.00  0.00     0.068 C 
BRANCH  18  19
HETATM   19  C   UNK N   1       3.543   0.460   0.880  0.00  0.00    -0.020 C 
HETATM   20  C   UNK N   1       2.908  -0.095   1.949  0.00  0.00    -0.091 C 
HETATM   21  C   UNK N   1       3.370  -1.436   2.467  0.00  0.00     0.042 C 
HETATM   22  C   UNK N   1       1.741   0.535   2.678  0.00  0.00     0.042 C 
ENDBRANCH  18  19
ENDBRANCH  14  18
BRANCH  15  23
HETATM   23  O   UNK N   1       5.105   1.484  -1.887  0.00  0.00    -0.355 OA
HETATM   24  C   UNK N   1       6.151   1.454  -2.788  0.00  0.00     0.210 C 
ENDBRANCH  15  23
ENDBRANCH   8  12
BRANCH   6  25
HETATM   25  O   UNK N   1      -6.648   1.094  -4.290  0.00  0.00    -0.361 OA
HETATM   26  H   UNK N   1      -7.366   1.696  -4.049  0.00  0.00     0.217 HD
ENDBRANCH   6  25
TORSDOF 5
