REMARK  5 active torsions:
REMARK  status: ('A' for Active; 'I' for Inactive)
REMARK    1  A    between atoms: O_3  and  C_10 
REMARK    2  A    between atoms: O_4  and  C_11 
REMARK    3  A    between atoms: O_5  and  C_12 
REMARK    4  A    between atoms: O_6  and  C_13 
REMARK    5  A    between atoms: C_15  and  C_16 
ROOT
HETATM    1  O   UNK N   1       1.746   1.286  -1.861  0.00  0.00    -0.318 OA
HETATM    2  O   UNK N   1      -1.107  -0.282   0.412  0.00  0.00    -0.286 OA
HETATM    3  C   UNK N   1       2.098   0.774  -0.686  0.00  0.00     0.125 A 
HETATM    4  C   UNK N   1       0.495   1.318  -2.292  0.00  0.00     0.159 A 
HETATM    5  C   UNK N   1      -0.227   0.192  -0.287  0.00  0.00     0.198 A 
HETATM    6  C   UNK N   1       3.458   0.792  -0.279  0.00  0.00     0.136 A 
HETATM    7  C   UNK N   1       3.795   0.287   0.995  0.00  0.00     0.101 A 
HETATM    8  C   UNK N   1       1.109   0.220   0.160  0.00  0.00     0.052 A 
HETATM    9  C   UNK N   1      -0.540   0.760  -1.536  0.00  0.00     0.048 A 
HETATM   10  C   UNK N   1       2.806  -0.233   1.834  0.00  0.00     0.040 A 
HETATM   11  C   UNK N   1       1.475  -0.278   1.422  0.00  0.00     0.021 A 
ENDROOT
BRANCH   9  12
HETATM   12  C   UNK N   1      -1.919   0.798  -2.073  0.00  0.00    -0.017 A 
HETATM   13  C   UNK N   1      -2.709  -0.359  -2.117  0.00  0.00     0.052 A 
HETATM   14  C   UNK N   1      -4.004  -0.320  -2.682  0.00  0.00     0.102 A 
HETATM   15  C   UNK N   1      -4.518   0.902  -3.155  0.00  0.00     0.101 A 
HETATM   16  C   UNK N   1      -3.719   2.061  -3.093  0.00  0.00     0.040 A 
HETATM   17  C   UNK N   1      -2.428   2.001  -2.578  0.00  0.00     0.015 A 
BRANCH  14  18
HETATM   18  O   UNK N   1      -4.768  -1.439  -2.803  0.00  0.00    -0.353 OA
HETATM   19  C   UNK N   1      -4.345  -2.723  -2.521  0.00  0.00     0.210 C 
ENDBRANCH  14  18
BRANCH  15  20
HETATM   20  O   UNK N   1      -5.776   0.929  -3.672  0.00  0.00    -0.353 OA
HETATM   21  C   UNK N   1      -6.422   2.064  -4.121  0.00  0.00     0.210 C 
ENDBRANCH  15  20
ENDBRANCH   9  12
BRANCH   6  22
HETATM   22  O   UNK N   1       4.464   1.272  -1.068  0.00  0.00    -0.351 OA
HETATM   23  C   UNK N   1       4.359   1.736  -2.365  0.00  0.00     0.210 C 
ENDBRANCH   6  22
BRANCH   7  24
HETATM   24  O   UNK N   1       5.075   0.298   1.427  0.00  0.00    -0.358 OA
HETATM   25  H   UNK N   1       5.802   0.644   0.891  0.00  0.00     0.218 HD
ENDBRANCH   7  24
TORSDOF 5
