REMARK  15 active torsions:
REMARK  status: ('A' for Active; 'I' for Inactive)
REMARK    1  A    between atoms: O_1  and  C_4 
REMARK    2  A    between atoms: O_1  and  C_6 
REMARK    3  A    between atoms: O_2  and  C_5 
REMARK    4  A    between atoms: C_4  and  C_7 
REMARK    5  A    between atoms: C_4  and  C_10 
REMARK    6  A    between atoms: C_5  and  C_8 
REMARK    7  A    between atoms: C_5  and  C_9 
REMARK    8  A    between atoms: C_9  and  C_13 
REMARK    9  A    between atoms: C_11  and  C_12 
REMARK   10  A    between atoms: C_13  and  C_14 
REMARK   11  A    between atoms: C_14  and  C_15 
REMARK   12  A    between atoms: C_15  and  C_16 
REMARK   13  A    between atoms: C_16  and  C_17 
REMARK   14  A    between atoms: C_17  and  C_18 
REMARK   15  A    between atoms: C_18  and  C_19 
ROOT
HETATM    1  C   UNK N   1      -4.390  -0.023  -2.569  0.00  0.00     0.197 C 
ENDROOT
BRANCH   1   2
HETATM    2  O   UNK N   1      -5.080   0.857  -3.421  0.00  0.00    -0.383 OA
HETATM    3  H   UNK N   1      -4.680   0.776  -4.329  0.00  0.00     0.211 HD
ENDBRANCH   1   2
BRANCH   1   4
HETATM    4  C   UNK N   1      -3.005   0.428  -2.411  0.00  0.00    -0.061 C 
HETATM    5  C   UNK N   1      -1.869   0.794  -2.305  0.00  0.00    -0.012 C 
BRANCH   5   6
HETATM    6  C   UNK N   1      -0.554   1.226  -2.114  0.00  0.00    -0.012 C 
HETATM    7  C   UNK N   1       0.576   1.599  -1.991  0.00  0.00    -0.060 C 
BRANCH   7   8
HETATM    8  C   UNK N   1       1.952   2.054  -1.845  0.00  0.00     0.211 C 
BRANCH   8   9
HETATM    9  O   UNK N   1       2.578   2.041  -3.066  0.00  0.00    -0.304 OA
BRANCH   9  10
HETATM   10  C   UNK N   1       3.904   1.826  -3.184  0.00  0.00     0.256 C 
HETATM   11  O   UNK N   1       4.611   1.614  -2.201  0.00  0.00    -0.266 OA
HETATM   12  C   UNK N   1       4.462   1.851  -4.547  0.00  0.00     0.126 C 
ENDBRANCH   9  10
ENDBRANCH   8   9
BRANCH   8  13
HETATM   13  C   UNK N   1       1.994   3.473  -1.285  0.00  0.00     0.041 C 
HETATM   14  C   UNK N   1       1.352   3.572   0.097  0.00  0.00     0.009 C 
ENDBRANCH   8  13
ENDBRANCH   7   8
ENDBRANCH   5   6
ENDBRANCH   1   4
BRANCH   1  15
HETATM   15  C   UNK N   1      -4.471  -1.451  -3.116  0.00  0.00     0.044 C 
BRANCH  15  16
HETATM   16  C   UNK N   1      -3.746  -2.512  -2.276  0.00  0.00     0.004 C 
BRANCH  16  17
HETATM   17  C   UNK N   1      -4.286  -2.613  -0.848  0.00  0.00     0.000 C 
BRANCH  17  18
HETATM   18  C   UNK N   1      -3.581  -3.677   0.004  0.00  0.00     0.000 C 
BRANCH  18  19
HETATM   19  C   UNK N   1      -2.070  -3.442   0.187  0.00  0.00     0.000 C 
BRANCH  19  20
HETATM   20  C   UNK N   1      -1.747  -2.097   0.862  0.00  0.00     0.000 C 
BRANCH  20  21
HETATM   21  C   UNK N   1      -0.238  -1.882   1.056  0.00  0.00    -0.000 C 
BRANCH  21  22
HETATM   22  C   UNK N   1       0.087  -0.540   1.728  0.00  0.00    -0.005 C 
HETATM   23  C   UNK N   1       1.592  -0.332   1.897  0.00  0.00     0.005 C 
ENDBRANCH  21  22
ENDBRANCH  20  21
ENDBRANCH  19  20
ENDBRANCH  18  19
ENDBRANCH  17  18
ENDBRANCH  16  17
ENDBRANCH  15  16
ENDBRANCH   1  15
TORSDOF 15
