REMARK  9 active torsions:
REMARK  status: ('A' for Active; 'I' for Inactive)
REMARK    1  A    between atoms: O_3  and  C_10 
REMARK    2  A    between atoms: O_4  and  C_11 
REMARK    3  A    between atoms: O_5  and  C_12 
REMARK    4  A    between atoms: O_6  and  C_13 
REMARK    5  A    between atoms: C_15  and  C_16 
REMARK    6  A    between atoms: C_17  and  C_22 
REMARK    7  A    between atoms: C_18  and  C_23 
REMARK    8  A    between atoms: C_22  and  C_26 
REMARK    9  A    between atoms: C_23  and  C_27 
ROOT
HETATM    1  O   UNK N   1       0.828   0.146  -1.544  0.00  0.00    -0.320 OA
HETATM    2  O   UNK N   1      -0.433   2.708  -4.303  0.00  0.00    -0.286 OA
HETATM    3  C   UNK N   1       1.730   0.959  -2.093  0.00  0.00     0.101 A 
HETATM    4  C   UNK N   1      -0.456   0.161  -1.873  0.00  0.00     0.159 A 
HETATM    5  C   UNK N   1      -0.031   1.929  -3.456  0.00  0.00     0.200 A 
HETATM    6  C   UNK N   1       2.319   2.758  -3.650  0.00  0.00     0.092 A 
HETATM    7  C   UNK N   1       4.046   1.698  -2.259  0.00  0.00     0.084 A 
HETATM    8  C   UNK N   1       1.341   1.896  -3.078  0.00  0.00     0.083 A 
HETATM    9  C   UNK N   1      -0.935   1.045  -2.838  0.00  0.00     0.050 A 
HETATM   10  C   UNK N   1       3.072   0.852  -1.696  0.00  0.00     0.014 A 
HETATM   11  C   UNK N   1       3.676   2.678  -3.220  0.00  0.00     0.013 A 
ENDROOT
BRANCH   9  12
HETATM   12  C   UNK N   1      -2.379   1.025  -3.175  0.00  0.00     0.013 A 
HETATM   13  C   UNK N   1      -3.294   1.824  -2.462  0.00  0.00     0.079 A 
HETATM   14  C   UNK N   1      -4.664   1.761  -2.769  0.00  0.00     0.073 A 
HETATM   15  C   UNK N   1      -5.126   0.905  -3.774  0.00  0.00     0.068 A 
HETATM   16  C   UNK N   1      -4.215   0.107  -4.480  0.00  0.00     0.037 A 
HETATM   17  C   UNK N   1      -2.849   0.166  -4.181  0.00  0.00     0.018 A 
BRANCH  13  18
HETATM   18  O   UNK N   1      -2.856   2.641  -1.481  0.00  0.00    -0.360 OA
HETATM   19  H   UNK N   1      -3.465   3.192  -0.969  0.00  0.00     0.217 HD
ENDBRANCH  13  18
BRANCH  15  20
HETATM   20  O   UNK N   1      -6.446   0.853  -4.049  0.00  0.00    -0.361 OA
HETATM   21  H   UNK N   1      -6.803   0.269  -4.734  0.00  0.00     0.217 HD
ENDBRANCH  15  20
ENDBRANCH   9  12
BRANCH   6  22
HETATM   22  O   UNK N   1       1.943   3.640  -4.606  0.00  0.00    -0.359 OA
HETATM   23  H   UNK N   1       2.558   4.193  -5.104  0.00  0.00     0.218 HD
ENDBRANCH   6  22
BRANCH  10  24
HETATM   24  C   UNK N   1       3.470  -0.193  -0.672  0.00  0.00     0.072 C 
BRANCH  24  25
HETATM   25  C   UNK N   1       3.348   0.353   0.733  0.00  0.00    -0.020 C 
HETATM   26  C   UNK N   1       2.574  -0.149   1.728  0.00  0.00    -0.091 C 
HETATM   27  C   UNK N   1       2.626   0.492   3.093  0.00  0.00     0.042 C 
HETATM   28  C   UNK N   1       1.647  -1.332   1.571  0.00  0.00     0.042 C 
ENDBRANCH  24  25
ENDBRANCH  10  24
BRANCH  11  29
HETATM   29  C   UNK N   1       4.729   3.640  -3.757  0.00  0.00     0.072 C 
BRANCH  29  30
HETATM   30  C   UNK N   1       5.423   3.083  -4.976  0.00  0.00    -0.020 C 
HETATM   31  C   UNK N   1       6.683   3.400  -5.370  0.00  0.00    -0.091 C 
HETATM   32  C   UNK N   1       7.250   2.757  -6.609  0.00  0.00     0.042 C 
HETATM   33  C   UNK N   1       7.585   4.363  -4.628  0.00  0.00     0.042 C 
ENDBRANCH  29  30
ENDBRANCH  11  29
BRANCH   7  34
HETATM   34  O   UNK N   1       5.332   1.550  -1.855  0.00  0.00    -0.359 OA
HETATM   35  H   UNK N   1       6.089   2.011  -2.235  0.00  0.00     0.217 HD
ENDBRANCH   7  34
TORSDOF 9
