REMARK  9 active torsions:
REMARK  status: ('A' for Active; 'I' for Inactive)
REMARK    1  A    between atoms: O_2  and  C_8 
REMARK    2  A    between atoms: O_3  and  C_9 
REMARK    3  A    between atoms: O_4  and  C_10 
REMARK    4  A    between atoms: O_5  and  C_11 
REMARK    5  A    between atoms: C_12  and  C_19 
REMARK    6  A    between atoms: C_14  and  C_21 
REMARK    7  A    between atoms: C_15  and  C_22 
REMARK    8  A    between atoms: C_21  and  C_26 
REMARK    9  A    between atoms: C_22  and  C_27 
ROOT
HETATM    1  C   UNK N   1       3.180   1.636  -2.192  0.00  0.00     0.106 A 
HETATM    2  C   UNK N   1       2.625   1.615  -3.479  0.00  0.00     0.100 A 
HETATM    3  C   UNK N   1       0.382   1.763  -2.542  0.00  0.00    -0.018 A 
HETATM    4  C   UNK N   1       2.342   1.719  -1.054  0.00  0.00    -0.012 A 
HETATM    5  C   UNK N   1       0.926   1.777  -1.224  0.00  0.00    -0.036 A 
HETATM    6  C   UNK N   1       1.244   1.676  -3.646  0.00  0.00     0.049 A 
ENDROOT
BRANCH   3   7
HETATM    7  C   UNK N   1      -1.114   1.839  -2.795  0.00  0.00     0.169 C 
HETATM    8  O   UNK N   1      -1.377   2.502  -3.988  0.00  0.00    -0.340 OA
HETATM    9  C   UNK N   1      -2.637   2.595  -4.485  0.00  0.00     0.089 A 
HETATM   10  C   UNK N   1      -3.629   1.684  -4.069  0.00  0.00     0.076 A 
HETATM   11  C   UNK N   1      -2.946   3.609  -5.393  0.00  0.00     0.074 A 
HETATM   12  C   UNK N   1      -4.951   1.833  -4.536  0.00  0.00     0.085 A 
HETATM   13  C   UNK N   1      -3.216   0.597  -3.141  0.00  0.00     0.167 C 
HETATM   14  C   UNK N   1      -5.254   2.872  -5.433  0.00  0.00     0.074 A 
HETATM   15  C   UNK N   1      -4.252   3.752  -5.867  0.00  0.00     0.071 A 
HETATM   16  O   UNK N   1      -4.031  -0.171  -2.654  0.00  0.00    -0.292 OA
HETATM   17  C   UNK N   1      -1.751   0.440  -2.830  0.00  0.00     0.121 C 
BRANCH  12  18
HETATM   18  O   UNK N   1      -5.921   0.988  -4.129  0.00  0.00    -0.360 OA
HETATM   19  H   UNK N   1      -6.838   1.082  -4.425  0.00  0.00     0.217 HD
ENDBRANCH  12  18
BRANCH  15  20
HETATM   20  O   UNK N   1      -4.538   4.747  -6.732  0.00  0.00    -0.361 OA
HETATM   21  H   UNK N   1      -5.433   4.883  -7.073  0.00  0.00     0.217 HD
ENDBRANCH  15  20
ENDBRANCH   3   7
BRANCH   5  22
HETATM   22  C   UNK N   1      -0.001   1.858  -0.020  0.00  0.00     0.067 C 
BRANCH  22  23
HETATM   23  C   UNK N   1      -0.246   3.293   0.396  0.00  0.00    -0.020 C 
HETATM   24  C   UNK N   1      -1.362   3.748   1.024  0.00  0.00    -0.091 C 
HETATM   25  C   UNK N   1      -1.456   5.205   1.398  0.00  0.00     0.042 C 
HETATM   26  C   UNK N   1      -2.546   2.878   1.383  0.00  0.00     0.042 C 
ENDBRANCH  22  23
ENDBRANCH   5  22
BRANCH   4  27
HETATM   27  C   UNK N   1       2.980   1.738   0.326  0.00  0.00     0.069 C 
BRANCH  27  28
HETATM   28  C   UNK N   1       3.169   0.324   0.828  0.00  0.00    -0.020 C 
HETATM   29  C   UNK N   1       2.690  -0.193   1.989  0.00  0.00    -0.091 C 
HETATM   30  C   UNK N   1       2.976  -1.637   2.320  0.00  0.00     0.042 C 
HETATM   31  C   UNK N   1       1.877   0.583   3.000  0.00  0.00     0.042 C 
ENDBRANCH  27  28
ENDBRANCH   4  27
BRANCH   2  32
HETATM   32  O   UNK N   1       3.429   1.536  -4.561  0.00  0.00    -0.358 OA
HETATM   33  H   UNK N   1       3.075   1.526  -5.462  0.00  0.00     0.218 HD
ENDBRANCH   2  32
BRANCH   1  34
HETATM   34  O   UNK N   1       4.522   1.570  -2.034  0.00  0.00    -0.357 OA
HETATM   35  H   UNK N   1       5.132   1.505  -2.782  0.00  0.00     0.218 HD
ENDBRANCH   1  34
TORSDOF 9
