REMARK  7 active torsions:
REMARK  status: ('A' for Active; 'I' for Inactive)
REMARK    1  A    between atoms: O_2  and  C_6 
REMARK    2  A    between atoms: O_3  and  C_7 
REMARK    3  A    between atoms: C_8  and  C_17 
REMARK    4  A    between atoms: C_10  and  C_19 
REMARK    5  A    between atoms: C_11  and  C_20 
REMARK    6  A    between atoms: C_19  and  C_24 
REMARK    7  A    between atoms: C_20  and  C_25 
ROOT
HETATM    1  C   UNK N   1       1.946   1.559  -2.281  0.00  0.00     0.078 A 
HETATM    2  C   UNK N   1      -0.844   1.747  -1.934  0.00  0.00    -0.027 A 
HETATM    3  C   UNK N   1       1.281   0.699  -1.379  0.00  0.00    -0.020 A 
HETATM    4  C   UNK N   1       1.203   2.531  -3.007  0.00  0.00    -0.020 A 
HETATM    5  C   UNK N   1      -0.104   0.802  -1.215  0.00  0.00     0.020 A 
HETATM    6  C   UNK N   1      -0.188   2.609  -2.824  0.00  0.00     0.020 A 
ENDROOT
BRANCH   2   7
HETATM    7  C   UNK N   1      -2.338   1.813  -1.740  0.00  0.00     0.169 C 
HETATM    8  O   UNK N   1      -2.818   3.105  -1.897  0.00  0.00    -0.340 OA
HETATM    9  C   UNK N   1      -4.148   3.363  -1.814  0.00  0.00     0.086 A 
HETATM   10  C   UNK N   1      -5.078   2.330  -2.037  0.00  0.00     0.043 A 
HETATM   11  C   UNK N   1      -4.589   4.648  -1.490  0.00  0.00     0.074 A 
HETATM   12  C   UNK N   1      -6.451   2.586  -1.895  0.00  0.00     0.021 A 
HETATM   13  C   UNK N   1      -4.563   0.998  -2.436  0.00  0.00     0.165 C 
HETATM   14  C   UNK N   1      -6.887   3.868  -1.546  0.00  0.00     0.037 A 
HETATM   15  C   UNK N   1      -5.959   4.904  -1.350  0.00  0.00     0.068 A 
HETATM   16  O   UNK N   1      -5.322   0.066  -2.650  0.00  0.00    -0.292 OA
HETATM   17  C   UNK N   1      -3.081   0.840  -2.670  0.00  0.00     0.121 C 
BRANCH  15  18
HETATM   18  O   UNK N   1      -6.371   6.144  -1.019  0.00  0.00    -0.361 OA
HETATM   19  H   UNK N   1      -7.309   6.353  -0.903  0.00  0.00     0.217 HD
ENDBRANCH  15  18
ENDBRANCH   2   7
BRANCH   3  20
HETATM   20  C   UNK N   1       2.030  -0.351  -0.593  0.00  0.00     0.068 C 
BRANCH  20  21
HETATM   21  C   UNK N   1       2.492   0.195   0.742  0.00  0.00    -0.020 C 
HETATM   22  C   UNK N   1       2.169  -0.293   1.970  0.00  0.00    -0.091 C 
HETATM   23  C   UNK N   1       2.771   0.348   3.196  0.00  0.00     0.042 C 
HETATM   24  C   UNK N   1       1.236  -1.459   2.209  0.00  0.00     0.042 C 
ENDBRANCH  20  21
ENDBRANCH   3  20
BRANCH   4  25
HETATM   25  C   UNK N   1       1.858   3.489  -3.981  0.00  0.00     0.068 C 
BRANCH  25  26
HETATM   26  C   UNK N   1       1.914   2.874  -5.361  0.00  0.00    -0.020 C 
HETATM   27  C   UNK N   1       3.025   2.666  -6.113  0.00  0.00    -0.091 C 
HETATM   28  C   UNK N   1       2.878   2.049  -7.482  0.00  0.00     0.042 C 
HETATM   29  C   UNK N   1       4.427   3.016  -5.675  0.00  0.00     0.042 C 
ENDBRANCH  25  26
ENDBRANCH   4  25
BRANCH   1  30
HETATM   30  O   UNK N   1       3.287   1.444  -2.422  0.00  0.00    -0.360 OA
HETATM   31  H   UNK N   1       3.814   1.996  -3.009  0.00  0.00     0.217 HD
ENDBRANCH   1  30
TORSDOF 7
