REMARK  10 active torsions:
REMARK  status: ('A' for Active; 'I' for Inactive)
REMARK    1  A    between atoms: O_2  and  C_8 
REMARK    2  A    between atoms: O_3  and  C_9 
REMARK    3  A    between atoms: O_4  and  C_10 
REMARK    4  A    between atoms: O_5  and  C_20 
REMARK    5  A    between atoms: C_11  and  C_19 
REMARK    6  A    between atoms: C_13  and  C_22 
REMARK    7  A    between atoms: C_14  and  C_23 
REMARK    8  A    between atoms: C_20  and  C_22 
REMARK    9  A    between atoms: C_20  and  C_24 
REMARK   10  A    between atoms: C_23  and  C_27 
ROOT
HETATM    1  C   UNK N   1       2.529   1.778  -2.489  0.00  0.00     0.078 A 
HETATM    2  C   UNK N   1      -0.278   1.832  -2.732  0.00  0.00    -0.027 A 
HETATM    3  C   UNK N   1       1.924   1.804  -3.776  0.00  0.00    -0.021 A 
HETATM    4  C   UNK N   1       1.715   1.777  -1.336  0.00  0.00    -0.020 A 
HETATM    5  C   UNK N   1       0.524   1.826  -3.879  0.00  0.00     0.019 A 
HETATM    6  C   UNK N   1       0.322   1.802  -1.468  0.00  0.00     0.020 A 
ENDROOT
BRANCH   2   7
HETATM    7  C   UNK N   1      -1.780   1.876  -2.835  0.00  0.00     0.169 C 
HETATM    8  O   UNK N   1      -2.196   2.588  -3.952  0.00  0.00    -0.340 OA
HETATM    9  C   UNK N   1      -3.516   2.687  -4.260  0.00  0.00     0.089 A 
HETATM   10  C   UNK N   1      -4.428   1.733  -3.763  0.00  0.00     0.076 A 
HETATM   11  C   UNK N   1      -3.965   3.747  -5.051  0.00  0.00     0.074 A 
HETATM   12  C   UNK N   1      -5.805   1.880  -4.031  0.00  0.00     0.085 A 
HETATM   13  C   UNK N   1      -3.877   0.595  -2.976  0.00  0.00     0.167 C 
HETATM   14  C   UNK N   1      -6.246   2.964  -4.807  0.00  0.00     0.074 A 
HETATM   15  C   UNK N   1      -5.329   3.890  -5.323  0.00  0.00     0.071 A 
HETATM   16  O   UNK N   1      -4.605  -0.257  -2.491  0.00  0.00    -0.292 OA
HETATM   17  C   UNK N   1      -2.382   0.467  -2.845  0.00  0.00     0.121 C 
BRANCH  12  18
HETATM   18  O   UNK N   1      -6.696   0.991  -3.546  0.00  0.00    -0.360 OA
HETATM   19  H   UNK N   1      -7.647   1.083  -3.706  0.00  0.00     0.217 HD
ENDBRANCH  12  18
BRANCH  15  20
HETATM   20  O   UNK N   1      -5.752   4.928  -6.073  0.00  0.00    -0.361 OA
HETATM   21  H   UNK N   1      -6.691   5.061  -6.271  0.00  0.00     0.217 HD
ENDBRANCH  15  20
ENDBRANCH   2   7
BRANCH   3  22
HETATM   22  C   UNK N   1       2.737   1.822  -5.056  0.00  0.00     0.077 C 
BRANCH  22  23
HETATM   23  C   UNK N   1       3.109   3.251  -5.519  0.00  0.00     0.150 C 
BRANCH  23  24
HETATM   24  O   UNK N   1       4.004   3.900  -4.649  0.00  0.00    -0.391 OA
HETATM   25  H   UNK N   1       3.612   3.908  -3.741  0.00  0.00     0.210 HD
ENDBRANCH  23  24
BRANCH  23  26
HETATM   26  C   UNK N   1       1.886   4.105  -5.846  0.00  0.00    -0.065 C 
HETATM   27  C   UNK N   1       1.350   4.952  -4.948  0.00  0.00     0.016 C 
HETATM   28  C   UNK N   1       1.263   3.978  -7.213  0.00  0.00     0.045 C 
ENDBRANCH  23  26
ENDBRANCH  22  23
ENDBRANCH   3  22
BRANCH   4  29
HETATM   29  C   UNK N   1       2.322   1.761   0.046  0.00  0.00     0.068 C 
BRANCH  29  30
HETATM   30  C   UNK N   1       2.538   0.335   0.499  0.00  0.00    -0.020 C 
HETATM   31  C   UNK N   1       2.010  -0.246   1.608  0.00  0.00    -0.091 C 
HETATM   32  C   UNK N   1       2.330  -1.691   1.900  0.00  0.00     0.042 C 
HETATM   33  C   UNK N   1       1.108   0.457   2.597  0.00  0.00     0.042 C 
ENDBRANCH  29  30
ENDBRANCH   4  29
BRANCH   1  34
HETATM   34  O   UNK N   1       3.874   1.751  -2.336  0.00  0.00    -0.360 OA
HETATM   35  H   UNK N   1       4.502   1.763  -3.067  0.00  0.00     0.217 HD
ENDBRANCH   1  34
TORSDOF 10
