REMARK  5 active torsions:
REMARK  status: ('A' for Active; 'I' for Inactive)
REMARK    1  A    between atoms: O_2  and  C_6 
REMARK    2  A    between atoms: O_3  and  C_7 
REMARK    3  A    between atoms: C_8  and  C_17 
REMARK    4  A    between atoms: C_10  and  C_19 
REMARK    5  A    between atoms: C_19  and  C_22 
ROOT
HETATM    1  C   UNK N   1       3.010   1.027  -2.111  0.00  0.00     0.072 A 
HETATM    2  C   UNK N   1       0.436  -0.106  -2.287  0.00  0.00    -0.028 A 
HETATM    3  C   UNK N   1       2.221   0.893  -0.952  0.00  0.00    -0.021 A 
HETATM    4  C   UNK N   1       2.508   0.597  -3.349  0.00  0.00     0.037 A 
HETATM    5  C   UNK N   1       0.942   0.321  -1.047  0.00  0.00     0.020 A 
HETATM    6  C   UNK N   1       1.229   0.039  -3.438  0.00  0.00     0.012 A 
ENDROOT
BRANCH   2   7
HETATM    7  C   UNK N   1      -0.949  -0.714  -2.367  0.00  0.00     0.169 C 
HETATM    8  O   UNK N   1      -1.779   0.049  -3.179  0.00  0.00    -0.340 OA
HETATM    9  C   UNK N   1      -3.049  -0.354  -3.462  0.00  0.00     0.086 A 
HETATM   10  C   UNK N   1      -3.397  -1.713  -3.342  0.00  0.00     0.043 A 
HETATM   11  C   UNK N   1      -4.011   0.581  -3.862  0.00  0.00     0.074 A 
HETATM   12  C   UNK N   1      -4.718  -2.121  -3.594  0.00  0.00     0.021 A 
HETATM   13  C   UNK N   1      -2.333  -2.676  -2.969  0.00  0.00     0.165 C 
HETATM   14  C   UNK N   1      -5.679  -1.179  -3.975  0.00  0.00     0.037 A 
HETATM   15  C   UNK N   1      -5.328   0.174  -4.115  0.00  0.00     0.068 A 
HETATM   16  O   UNK N   1      -2.574  -3.867  -2.849  0.00  0.00    -0.292 OA
HETATM   17  C   UNK N   1      -0.916  -2.174  -2.851  0.00  0.00     0.121 C 
BRANCH  15  18
HETATM   18  O   UNK N   1      -6.248   1.089  -4.484  0.00  0.00    -0.361 OA
HETATM   19  H   UNK N   1      -7.170   0.848  -4.655  0.00  0.00     0.217 HD
ENDBRANCH  15  18
ENDBRANCH   2   7
BRANCH   3  20
HETATM   20  C   UNK N   1       2.730   1.358   0.390  0.00  0.00     0.068 C 
BRANCH  20  21
HETATM   21  C   UNK N   1       3.459   0.233   1.087  0.00  0.00    -0.020 C 
HETATM   22  C   UNK N   1       3.173  -0.282   2.310  0.00  0.00    -0.091 C 
HETATM   23  C   UNK N   1       4.033  -1.396   2.853  0.00  0.00     0.042 C 
HETATM   24  C   UNK N   1       2.039   0.192   3.191  0.00  0.00     0.042 C 
ENDBRANCH  20  21
ENDBRANCH   3  20
BRANCH   1  25
HETATM   25  O   UNK N   1       4.249   1.560  -2.029  0.00  0.00    -0.360 OA
HETATM   26  H   UNK N   1       4.822   1.653  -2.803  0.00  0.00     0.217 HD
ENDBRANCH   1  25
TORSDOF 5
