REMARK  4 active torsions:
REMARK  status: ('A' for Active; 'I' for Inactive)
REMARK    1  A    between atoms: O_3  and  C_7 
REMARK    2  A    between atoms: C_8  and  C_17 
REMARK    3  A    between atoms: C_11  and  C_21 
REMARK    4  A    between atoms: C_21  and  C_25 
ROOT
HETATM    1  O   UNK N   1       4.558   1.637  -2.048  0.00  0.00    -0.336 OA
HETATM    2  C   UNK N   1       3.233   1.933  -2.004  0.00  0.00     0.087 A 
HETATM    3  C   UNK N   1       0.513   2.615  -1.862  0.00  0.00    -0.027 A 
HETATM    4  C   UNK N   1       2.749   3.052  -2.691  0.00  0.00    -0.002 A 
HETATM    5  C   UNK N   1       2.348   1.132  -1.253  0.00  0.00    -0.020 A 
HETATM    6  C   UNK N   1       1.397   3.390  -2.624  0.00  0.00     0.024 A 
HETATM    7  C   UNK N   1       0.991   1.482  -1.184  0.00  0.00     0.020 A 
HETATM    8  C   UNK N   1       5.540   2.394  -2.688  0.00  0.00     0.078 A 
HETATM    9  C   UNK N   1       3.682   3.872  -3.469  0.00  0.00     0.013 A 
HETATM   10  C   UNK N   1       4.984   3.577  -3.472  0.00  0.00     0.011 A 
HETATM   11  C   UNK N   1       6.303   1.481  -3.654  0.00  0.00     0.051 C 
HETATM   12  C   UNK N   1       6.485   2.933  -1.610  0.00  0.00     0.051 C 
ENDROOT
BRANCH   3  13
HETATM   13  C   UNK N   1      -0.935   3.012  -1.777  0.00  0.00     0.169 C 
HETATM   14  O   UNK N   1      -1.750   2.022  -2.302  0.00  0.00    -0.340 OA
HETATM   15  C   UNK N   1      -3.101   2.167  -2.282  0.00  0.00     0.086 A 
HETATM   16  C   UNK N   1      -3.697   3.030  -1.343  0.00  0.00     0.043 A 
HETATM   17  C   UNK N   1      -3.892   1.477  -3.205  0.00  0.00     0.074 A 
HETATM   18  C   UNK N   1      -5.085   3.226  -1.360  0.00  0.00     0.021 A 
HETATM   19  C   UNK N   1      -2.824   3.696  -0.348  0.00  0.00     0.165 C 
HETATM   20  C   UNK N   1      -5.871   2.554  -2.299  0.00  0.00     0.037 A 
HETATM   21  C   UNK N   1      -5.279   1.673  -3.219  0.00  0.00     0.068 A 
HETATM   22  O   UNK N   1      -3.286   4.444   0.500  0.00  0.00    -0.292 OA
HETATM   23  C   UNK N   1      -1.358   3.353  -0.338  0.00  0.00     0.121 C 
BRANCH  21  24
HETATM   24  O   UNK N   1      -6.033   1.018  -4.124  0.00  0.00    -0.361 OA
HETATM   25  H   UNK N   1      -6.993   1.140  -4.167  0.00  0.00     0.217 HD
ENDBRANCH  21  24
ENDBRANCH   3  13
BRANCH   5  26
HETATM   26  C   UNK N   1       2.831  -0.094  -0.520  0.00  0.00     0.068 C 
BRANCH  26  27
HETATM   27  C   UNK N   1       3.273   0.257   0.883  0.00  0.00    -0.020 C 
HETATM   28  C   UNK N   1       2.758  -0.245   2.036  0.00  0.00    -0.091 C 
HETATM   29  C   UNK N   1       3.356   0.181   3.354  0.00  0.00     0.042 C 
HETATM   30  C   UNK N   1       1.606  -1.222   2.106  0.00  0.00     0.042 C 
ENDBRANCH  26  27
ENDBRANCH   5  26
TORSDOF 4
