REMARK  7 active torsions:
REMARK  status: ('A' for Active; 'I' for Inactive)
REMARK    1  A    between atoms: O_2  and  C_8 
REMARK    2  A    between atoms: O_3  and  C_9 
REMARK    3  A    between atoms: O_4  and  C_10 
REMARK    4  A    between atoms: O_5  and  C_11 
REMARK    5  A    between atoms: C_12  and  C_19 
REMARK    6  A    between atoms: C_14  and  C_22 
REMARK    7  A    between atoms: C_22  and  C_25 
ROOT
HETATM    1  C   UNK N   1       1.160   2.498  -2.971  0.00  0.00     0.102 A 
HETATM    2  C   UNK N   1       1.900   1.542  -2.242  0.00  0.00     0.105 A 
HETATM    3  C   UNK N   1      -0.887   1.720  -1.894  0.00  0.00    -0.025 A 
HETATM    4  C   UNK N   1       1.243   0.675  -1.341  0.00  0.00    -0.018 A 
HETATM    5  C   UNK N   1      -0.235   2.573  -2.791  0.00  0.00     0.049 A 
HETATM    6  C   UNK N   1      -0.145   0.775  -1.172  0.00  0.00     0.020 A 
ENDROOT
BRANCH   3   7
HETATM    7  C   UNK N   1      -2.381   1.801  -1.709  0.00  0.00     0.169 C 
HETATM    8  O   UNK N   1      -2.836   3.102  -1.883  0.00  0.00    -0.340 OA
HETATM    9  C   UNK N   1      -4.163   3.394  -1.856  0.00  0.00     0.089 A 
HETATM   10  C   UNK N   1      -5.111   2.378  -2.092  0.00  0.00     0.076 A 
HETATM   11  C   UNK N   1      -4.578   4.697  -1.572  0.00  0.00     0.074 A 
HETATM   12  C   UNK N   1      -6.487   2.673  -1.986  0.00  0.00     0.085 A 
HETATM   13  C   UNK N   1      -4.598   1.026  -2.448  0.00  0.00     0.167 C 
HETATM   14  C   UNK N   1      -6.892   3.981  -1.674  0.00  0.00     0.074 A 
HETATM   15  C   UNK N   1      -5.941   4.993  -1.477  0.00  0.00     0.071 A 
HETATM   16  O   UNK N   1      -5.352   0.078  -2.603  0.00  0.00    -0.292 OA
HETATM   17  C   UNK N   1      -3.117   0.855  -2.666  0.00  0.00     0.121 C 
BRANCH  12  18
HETATM   18  O   UNK N   1      -7.410   1.708  -2.179  0.00  0.00    -0.360 OA
HETATM   19  H   UNK N   1      -8.358   1.884  -2.091  0.00  0.00     0.217 HD
ENDBRANCH  12  18
BRANCH  15  20
HETATM   20  O   UNK N   1      -6.327   6.251  -1.184  0.00  0.00    -0.361 OA
HETATM   21  H   UNK N   1      -7.262   6.489  -1.097  0.00  0.00     0.217 HD
ENDBRANCH  15  20
ENDBRANCH   3   7
BRANCH   1  22
HETATM   22  O   UNK N   1       1.809   3.326  -3.835  0.00  0.00    -0.353 OA
HETATM   23  C   UNK N   1       1.201   4.297  -4.609  0.00  0.00     0.210 C 
ENDBRANCH   1  22
BRANCH   4  24
HETATM   24  C   UNK N   1       2.008  -0.372  -0.565  0.00  0.00     0.068 C 
BRANCH  24  25
HETATM   25  C   UNK N   1       2.486   0.190   0.756  0.00  0.00    -0.020 C 
HETATM   26  C   UNK N   1       2.195  -0.294   1.992  0.00  0.00    -0.091 C 
HETATM   27  C   UNK N   1       2.772   0.397   3.203  0.00  0.00     0.042 C 
HETATM   28  C   UNK N   1       1.321  -1.499   2.257  0.00  0.00     0.042 C 
ENDBRANCH  24  25
ENDBRANCH   4  24
BRANCH   2  29
HETATM   29  O   UNK N   1       3.240   1.451  -2.398  0.00  0.00    -0.357 OA
HETATM   30  H   UNK N   1       3.734   2.026  -2.999  0.00  0.00     0.218 HD
ENDBRANCH   2  29
TORSDOF 7
