REMARK  4 active torsions:
REMARK  status: ('A' for Active; 'I' for Inactive)
REMARK    1  A    between atoms: O_3  and  C_9 
REMARK    2  A    between atoms: O_4  and  C_10 
REMARK    3  A    between atoms: O_5  and  C_11 
REMARK    4  A    between atoms: C_12  and  C_19 
ROOT
HETATM    1  O   UNK N   1      -1.778   1.624  -1.746  0.00  0.00    -0.340 OA
HETATM    2  O   UNK N   1      -4.109  -1.617  -1.906  0.00  0.00    -0.292 OA
HETATM    3  C   UNK N   1      -3.010   1.803  -2.283  0.00  0.00     0.089 A 
HETATM    4  C   UNK N   1      -5.237   0.964  -2.854  0.00  0.00     0.085 A 
HETATM    5  C   UNK N   1      -4.651   3.299  -3.241  0.00  0.00     0.071 A 
HETATM    6  C   UNK N   1      -3.924   0.720  -2.353  0.00  0.00     0.076 A 
HETATM    7  C   UNK N   1      -3.370   3.070  -2.743  0.00  0.00     0.074 A 
HETATM    8  C   UNK N   1      -5.578   2.253  -3.286  0.00  0.00     0.074 A 
HETATM    9  C   UNK N   1      -1.526   0.579  -0.873  0.00  0.00     0.169 C 
HETATM   10  C   UNK N   1      -3.413  -0.617  -1.898  0.00  0.00     0.167 C 
HETATM   11  C   UNK N   1      -1.968  -0.743  -1.496  0.00  0.00     0.121 C 
ENDROOT
BRANCH   9  12
HETATM   12  C   UNK N   1      -0.079   0.534  -0.469  0.00  0.00    -0.025 A 
HETATM   13  C   UNK N   1       0.933   0.920  -1.361  0.00  0.00     0.049 A 
HETATM   14  C   UNK N   1       2.287   0.871  -0.971  0.00  0.00     0.103 A 
HETATM   15  C   UNK N   1       2.614   0.423   0.321  0.00  0.00     0.113 A 
HETATM   16  O   UNK N   1       3.912   0.365   0.711  0.00  0.00    -0.333 OA
HETATM   17  C   UNK N   1       1.600   0.033   1.205  0.00  0.00     0.001 A 
HETATM   18  C   UNK N   1       4.369  -0.067   1.958  0.00  0.00     0.078 A 
HETATM   19  C   UNK N   1       3.250  -0.488   2.904  0.00  0.00     0.011 A 
HETATM   20  C   UNK N   1       5.146   1.084   2.607  0.00  0.00     0.051 C 
HETATM   21  C   UNK N   1       5.294  -1.269   1.736  0.00  0.00     0.051 C 
HETATM   22  C   UNK N   1       1.966  -0.436   2.544  0.00  0.00     0.013 A 
HETATM   23  C   UNK N   1       0.262   0.090   0.814  0.00  0.00     0.024 A 
BRANCH  14  24
HETATM   24  O   UNK N   1       3.289   1.247  -1.812  0.00  0.00    -0.353 OA
HETATM   25  C   UNK N   1       3.103   1.713  -3.099  0.00  0.00     0.210 C 
ENDBRANCH  14  24
ENDBRANCH   9  12
BRANCH   4  26
HETATM   26  O   UNK N   1      -6.193   0.010  -2.936  0.00  0.00    -0.360 OA
HETATM   27  H   UNK N   1      -6.102  -0.900  -2.642  0.00  0.00     0.217 HD
ENDBRANCH   4  26
BRANCH   5  28
HETATM   28  O   UNK N   1      -4.988   4.535  -3.662  0.00  0.00    -0.361 OA
HETATM   29  H   UNK N   1      -5.873   4.735  -3.998  0.00  0.00     0.217 HD
ENDBRANCH   5  28
TORSDOF 4
