REMARK  14 active torsions:
REMARK  status: ('A' for Active; 'I' for Inactive)
REMARK    1  A    between atoms: O_3  and  C_15 
REMARK    2  A    between atoms: O_4  and  C_16 
REMARK    3  A    between atoms: O_5  and  C_27 
REMARK    4  A    between atoms: O_7  and  C_29 
REMARK    5  A    between atoms: O_7  and  C_33 
REMARK    6  A    between atoms: O_8  and  C_30 
REMARK    7  A    between atoms: O_9  and  C_31 
REMARK    8  A    between atoms: O_11  and  C_34 
REMARK    9  A    between atoms: C_13  and  C_36 
REMARK   10  A    between atoms: C_18  and  C_28 
REMARK   11  A    between atoms: C_20  and  C_37 
REMARK   12  A    between atoms: C_27  and  C_36 
REMARK   13  A    between atoms: C_32  and  C_34 
REMARK   14  A    between atoms: C_33  and  C_40 
ROOT
HETATM    1  O   UNK N   1      -1.654  -0.344  -2.112  0.00  0.00    -0.368 OA
HETATM    2  C   UNK N   1      -1.534   0.437  -0.936  0.00  0.00     0.193 C 
HETATM    3  C   UNK N   1      -2.032   1.884  -1.175  0.00  0.00     0.197 C 
HETATM    4  C   UNK N   1      -3.486   1.847  -1.668  0.00  0.00     0.181 C 
HETATM    5  C   UNK N   1      -3.584   0.903  -2.886  0.00  0.00     0.180 C 
HETATM    6  C   UNK N   1      -3.014  -0.482  -2.491  0.00  0.00     0.177 C 
ENDROOT
BRANCH   2   7
HETATM    7  C   UNK N   1      -0.075   0.417  -0.496  0.00  0.00     0.041 A 
HETATM    8  C   UNK N   1       0.935   0.897  -1.358  0.00  0.00     0.102 A 
HETATM    9  O   UNK N   1       0.591   1.356  -2.560  0.00  0.00    -0.313 OA
HETATM   10  C   UNK N   1       2.297   0.889  -0.961  0.00  0.00     0.055 A 
HETATM   11  C   UNK N   1       1.461   1.830  -3.439  0.00  0.00     0.060 A 
HETATM   12  C   UNK N   1       2.820   1.856  -3.131  0.00  0.00     0.088 A 
HETATM   13  C   UNK N   1       3.250   1.388  -1.889  0.00  0.00     0.187 A 
HETATM   14  O   UNK N   1       4.439   1.419  -1.633  0.00  0.00    -0.287 OA
HETATM   15  C   UNK N   1       2.638   0.386   0.331  0.00  0.00    -0.042 A 
HETATM   16  C   UNK N   1       1.621  -0.096   1.169  0.00  0.00     0.045 A 
HETATM   17  C   UNK N   1       4.057   0.341   0.842  0.00  0.00     0.049 C 
HETATM   18  C   UNK N   1       0.285  -0.090   0.769  0.00  0.00     0.080 A 
BRANCH  11  19
HETATM   19  C   UNK N   1       0.956   2.330  -4.765  0.00  0.00     0.096 C 
BRANCH  19  20
HETATM   20  C   UNK N   1       0.557   3.816  -4.728  0.00  0.00     0.120 C 
HETATM   21  C   UNK N   1       1.758   4.731  -4.460  0.00  0.00     0.040 C 
BRANCH  20  22
HETATM   22  O   UNK N   1      -0.011   4.152  -5.967  0.00  0.00    -0.396 OA
HETATM   23  H   UNK N   1      -0.533   4.985  -5.829  0.00  0.00     0.210 HD
ENDBRANCH  20  22
ENDBRANCH  19  20
ENDBRANCH  11  19
BRANCH  18  24
HETATM   24  O   UNK N   1      -0.653  -0.578   1.611  0.00  0.00    -0.355 OA
HETATM   25  C   UNK N   1      -1.015  -1.908   1.589  0.00  0.00     0.210 C 
ENDBRANCH  18  24
ENDBRANCH   2   7
BRANCH   3  26
HETATM   26  O   UNK N   1      -1.962   2.570   0.024  0.00  0.00    -0.307 OA
BRANCH  26  27
HETATM   27  C   UNK N   1      -1.354   3.765   0.226  0.00  0.00     0.283 C 
HETATM   28  O   UNK N   1      -0.919   4.418  -0.714  0.00  0.00    -0.260 OA
BRANCH  27  29
HETATM   29  C   UNK N   1      -1.303   4.291   1.602  0.00  0.00     0.083 C 
HETATM   30  C   UNK N   1      -1.016   5.576   1.873  0.00  0.00     0.017 C 
BRANCH  30  31
HETATM   31  C   UNK N   1      -1.062   6.127   3.254  0.00  0.00    -0.036 A 
HETATM   32  C   UNK N   1      -1.265   7.506   3.419  0.00  0.00     0.014 A 
HETATM   33  C   UNK N   1      -1.382   8.057   4.698  0.00  0.00     0.037 A 
HETATM   34  C   UNK N   1      -1.271   7.239   5.831  0.00  0.00     0.065 A 
HETATM   35  C   UNK N   1      -1.037   5.870   5.676  0.00  0.00     0.037 A 
HETATM   36  C   UNK N   1      -0.941   5.311   4.399  0.00  0.00     0.014 A 
BRANCH  34  37
HETATM   37  O   UNK N   1      -1.394   7.758   7.069  0.00  0.00    -0.361 OA
HETATM   38  H   UNK N   1      -1.585   8.696   7.210  0.00  0.00     0.217 HD
ENDBRANCH  34  37
ENDBRANCH  30  31
ENDBRANCH  27  29
ENDBRANCH  26  27
ENDBRANCH   3  26
BRANCH   6  39
HETATM   39  C   UNK N   1      -3.090  -1.480  -3.652  0.00  0.00     0.198 C 
BRANCH  39  40
HETATM   40  O   UNK N   1      -2.631  -2.742  -3.243  0.00  0.00    -0.398 OA
HETATM   41  H   UNK N   1      -1.641  -2.690  -3.198  0.00  0.00     0.209 HD
ENDBRANCH  39  40
ENDBRANCH   6  39
BRANCH   4  42
HETATM   42  O   UNK N   1      -3.893   3.148  -2.011  0.00  0.00    -0.390 OA
HETATM   43  H   UNK N   1      -4.877   3.121  -2.138  0.00  0.00     0.210 HD
ENDBRANCH   4  42
BRANCH   5  44
HETATM   44  O   UNK N   1      -4.912   0.805  -3.338  0.00  0.00    -0.390 OA
HETATM   45  H   UNK N   1      -5.454   0.420  -2.600  0.00  0.00     0.210 HD
ENDBRANCH   5  44
TORSDOF 14
