REMARK  10 active torsions:
REMARK  status: ('A' for Active; 'I' for Inactive)
REMARK    1  A    between atoms: O_3  and  C_13 
REMARK    2  A    between atoms: O_3  and  C_22 
REMARK    3  A    between atoms: O_4  and  C_14 
REMARK    4  A    between atoms: O_5  and  C_15 
REMARK    5  A    between atoms: O_7  and  C_23 
REMARK    6  A    between atoms: O_8  and  C_24 
REMARK    7  A    between atoms: O_9  and  C_25 
REMARK    8  A    between atoms: O_10  and  C_27 
REMARK    9  A    between atoms: C_12  and  C_16 
REMARK   10  A    between atoms: C_26  and  C_27 
ROOT
HETATM    1  C   UNK N   1      -0.664  -0.692   0.798  0.00  0.00     0.088 A 
HETATM    2  C   UNK N   1      -1.112  -0.455   3.178  0.00  0.00     0.068 A 
HETATM    3  C   UNK N   1       0.719  -0.696   1.060  0.00  0.00     0.037 A 
HETATM    4  C   UNK N   1       1.188  -0.551   2.384  0.00  0.00    -0.044 A 
HETATM    5  C   UNK N   1      -1.575  -0.581   1.866  0.00  0.00     0.074 A 
HETATM    6  C   UNK N   1       0.265  -0.435   3.435  0.00  0.00     0.044 A 
HETATM    7  C   UNK N   1       2.664  -0.491   2.678  0.00  0.00     0.049 C 
ENDROOT
BRANCH   1   8
HETATM    8  O   UNK N   1      -1.080  -0.763  -0.493  0.00  0.00    -0.317 OA
BRANCH   8   9
HETATM    9  C   UNK N   1      -2.305  -0.331  -0.966  0.00  0.00     0.298 C 
HETATM   10  O   UNK N   1      -3.302  -1.315  -0.732  0.00  0.00    -0.348 OA
HETATM   11  C   UNK N   1      -4.581  -0.807  -1.099  0.00  0.00     0.179 C 
HETATM   12  C   UNK N   1      -4.640  -0.553  -2.626  0.00  0.00     0.180 C 
HETATM   13  C   UNK N   1      -3.516   0.432  -3.007  0.00  0.00     0.183 C 
HETATM   14  C   UNK N   1      -2.165  -0.067  -2.476  0.00  0.00     0.205 C 
BRANCH  11  15
HETATM   15  C   UNK N   1      -5.661  -1.813  -0.672  0.00  0.00     0.198 C 
BRANCH  15  16
HETATM   16  O   UNK N   1      -5.643  -1.996   0.718  0.00  0.00    -0.398 OA
HETATM   17  H   UNK N   1      -4.880  -2.599   0.918  0.00  0.00     0.209 HD
ENDBRANCH  15  16
ENDBRANCH  11  15
BRANCH  12  18
HETATM   18  O   UNK N   1      -5.892  -0.011  -2.968  0.00  0.00    -0.390 OA
HETATM   19  H   UNK N   1      -5.932   0.029  -3.959  0.00  0.00     0.210 HD
ENDBRANCH  12  18
BRANCH  13  20
HETATM   20  O   UNK N   1      -3.463   0.641  -4.396  0.00  0.00    -0.390 OA
HETATM   21  H   UNK N   1      -3.272  -0.235  -4.824  0.00  0.00     0.210 HD
ENDBRANCH  13  20
BRANCH  14  22
HETATM   22  O   UNK N   1      -1.191   0.917  -2.718  0.00  0.00    -0.388 OA
HETATM   23  H   UNK N   1      -0.311   0.528  -2.474  0.00  0.00     0.210 HD
ENDBRANCH  14  22
ENDBRANCH   8   9
ENDBRANCH   1   8
BRANCH   3  24
HETATM   24  C   UNK N   1       1.669  -0.780  -0.067  0.00  0.00     0.095 A 
HETATM   25  O   UNK N   1       2.023   0.334  -0.701  0.00  0.00    -0.274 OA
HETATM   26  C   UNK N   1       2.879   0.337  -1.720  0.00  0.00     0.290 A 
HETATM   27  O   UNK N   1       3.171   1.386  -2.259  0.00  0.00    -0.260 OA
HETATM   28  C   UNK N   1       3.443  -0.862  -2.171  0.00  0.00     0.119 A 
HETATM   29  C   UNK N   1       3.094  -2.064  -1.534  0.00  0.00     0.076 A 
HETATM   30  C   UNK N   1       2.194  -2.018  -0.466  0.00  0.00     0.075 A 
BRANCH  29  31
HETATM   31  O   UNK N   1       3.598  -3.268  -1.918  0.00  0.00    -0.356 OA
HETATM   32  C   UNK N   1       4.497  -3.457  -2.950  0.00  0.00     0.210 C 
ENDBRANCH  29  31
ENDBRANCH   3  24
BRANCH   2  33
HETATM   33  O   UNK N   1      -2.000  -0.340   4.186  0.00  0.00    -0.361 OA
HETATM   34  H   UNK N   1      -1.717  -0.236   5.106  0.00  0.00     0.217 HD
ENDBRANCH   2  33
TORSDOF 10
