REMARK  7 active torsions:
REMARK  status: ('A' for Active; 'I' for Inactive)
REMARK    1  A    between atoms: O_3  and  C_13 
REMARK    2  A    between atoms: O_3  and  C_23 
REMARK    3  A    between atoms: O_4  and  C_14 
REMARK    4  A    between atoms: O_5  and  C_15 
REMARK    5  A    between atoms: O_9  and  C_25 
REMARK    6  A    between atoms: O_10  and  C_26 
REMARK    7  A    between atoms: C_12  and  C_16 
ROOT
HETATM    1  C   UNK N   1      -0.763  -1.309  -0.169  0.00  0.00     0.088 A 
HETATM    2  C   UNK N   1      -0.719  -2.964   1.619  0.00  0.00     0.068 A 
HETATM    3  C   UNK N   1       0.266  -0.592   0.475  0.00  0.00     0.037 A 
HETATM    4  C   UNK N   1       0.811  -1.075   1.690  0.00  0.00    -0.044 A 
HETATM    5  C   UNK N   1      -1.253  -2.492   0.420  0.00  0.00     0.074 A 
HETATM    6  C   UNK N   1       0.311  -2.259   2.250  0.00  0.00     0.044 A 
HETATM    7  C   UNK N   1       1.935  -0.349   2.383  0.00  0.00     0.049 C 
ENDROOT
BRANCH   1   8
HETATM    8  O   UNK N   1      -1.244  -0.865  -1.366  0.00  0.00    -0.317 OA
BRANCH   8   9
HETATM    9  C   UNK N   1      -1.789  -1.702  -2.332  0.00  0.00     0.298 C 
HETATM   10  O   UNK N   1      -3.176  -1.944  -2.114  0.00  0.00    -0.348 OA
HETATM   11  C   UNK N   1      -3.953  -0.774  -2.331  0.00  0.00     0.180 C 
HETATM   12  C   UNK N   1      -3.847  -0.274  -3.777  0.00  0.00     0.187 C 
HETATM   13  C   UNK N   1      -5.428  -1.080  -2.111  0.00  0.00     0.205 C 
HETATM   14  O   UNK N   1      -4.648   0.878  -3.947  0.00  0.00    -0.351 OA
HETATM   15  C   UNK N   1      -2.373   0.059  -4.057  0.00  0.00     0.183 C 
HETATM   16  C   UNK N   1      -6.015   0.625  -3.631  0.00  0.00     0.256 C 
HETATM   17  O   UNK N   1      -6.208   0.079  -2.328  0.00  0.00    -0.359 OA
HETATM   18  C   UNK N   1      -6.762  -0.148  -4.732  0.00  0.00     0.070 C 
HETATM   19  C   UNK N   1      -1.499  -1.176  -3.757  0.00  0.00     0.205 C 
BRANCH  15  20
HETATM   20  O   UNK N   1      -2.183   0.516  -5.374  0.00  0.00    -0.390 OA
HETATM   21  H   UNK N   1      -2.454  -0.213  -5.993  0.00  0.00     0.210 HD
ENDBRANCH  15  20
BRANCH  19  22
HETATM   22  O   UNK N   1      -1.706  -2.192  -4.713  0.00  0.00    -0.388 OA
HETATM   23  H   UNK N   1      -2.563  -2.650  -4.520  0.00  0.00     0.210 HD
ENDBRANCH  19  22
ENDBRANCH   8   9
ENDBRANCH   1   8
BRANCH   3  24
HETATM   24  C   UNK N   1       0.816   0.619  -0.159  0.00  0.00     0.095 A 
HETATM   25  O   UNK N   1       1.824   0.499  -1.018  0.00  0.00    -0.274 OA
HETATM   26  C   UNK N   1       2.377   1.546  -1.625  0.00  0.00     0.290 A 
HETATM   27  O   UNK N   1       3.298   1.377  -2.401  0.00  0.00    -0.260 OA
HETATM   28  C   UNK N   1       1.904   2.837  -1.372  0.00  0.00     0.119 A 
HETATM   29  C   UNK N   1       0.839   3.011  -0.471  0.00  0.00     0.076 A 
HETATM   30  C   UNK N   1       0.291   1.883   0.143  0.00  0.00     0.075 A 
BRANCH  29  31
HETATM   31  O   UNK N   1       0.327   4.235  -0.175  0.00  0.00    -0.356 OA
HETATM   32  C   UNK N   1       0.775   5.427  -0.709  0.00  0.00     0.210 C 
ENDBRANCH  29  31
ENDBRANCH   3  24
BRANCH   2  33
HETATM   33  O   UNK N   1      -1.195  -4.108   2.152  0.00  0.00    -0.361 OA
HETATM   34  H   UNK N   1      -0.835  -4.476   2.972  0.00  0.00     0.217 HD
ENDBRANCH   2  33
TORSDOF 7
