REMARK  4 active torsions:
REMARK  status: ('A' for Active; 'I' for Inactive)
REMARK    1  A    between atoms: O_3  and  C_8 
REMARK    2  A    between atoms: O_4  and  C_14 
REMARK    3  A    between atoms: C_6  and  C_15 
REMARK    4  A    between atoms: C_14  and  C_15 
ROOT
HETATM    1  O   UNK N   1      -0.863   0.239  -1.904  0.00  0.00    -0.314 OA
HETATM    2  O   UNK N   1      -0.605  -0.925   1.880  0.00  0.00    -0.287 OA
HETATM    3  C   UNK N   1       0.317   0.339  -1.307  0.00  0.00     0.093 A 
HETATM    4  C   UNK N   1      -1.952  -0.200  -1.287  0.00  0.00     0.060 A 
HETATM    5  C   UNK N   1      -0.658  -0.553   0.722  0.00  0.00     0.187 A 
HETATM    6  C   UNK N   1       2.645   0.982  -1.453  0.00  0.00     0.068 A 
HETATM    7  C   UNK N   1       0.487  -0.060   0.043  0.00  0.00     0.054 A 
HETATM    8  C   UNK N   1       1.783   0.063   0.637  0.00  0.00    -0.042 A 
HETATM    9  C   UNK N   1       1.386   0.854  -2.037  0.00  0.00     0.074 A 
HETATM   10  C   UNK N   1      -1.883  -0.607   0.050  0.00  0.00     0.088 A 
HETATM   11  C   UNK N   1       2.842   0.586  -0.130  0.00  0.00     0.044 A 
HETATM   12  C   UNK N   1       2.073  -0.342   2.062  0.00  0.00     0.049 C 
ENDROOT
BRANCH   4  13
HETATM   13  C   UNK N   1      -3.246  -0.244  -2.051  0.00  0.00     0.096 C 
BRANCH  13  14
HETATM   14  C   UNK N   1      -3.502   1.066  -2.829  0.00  0.00     0.120 C 
HETATM   15  C   UNK N   1      -3.603   2.282  -1.908  0.00  0.00     0.040 C 
BRANCH  14  16
HETATM   16  O   UNK N   1      -4.693   0.957  -3.564  0.00  0.00    -0.396 OA
HETATM   17  H   UNK N   1      -4.530   0.287  -4.279  0.00  0.00     0.210 HD
ENDBRANCH  14  16
ENDBRANCH  13  14
ENDBRANCH   4  13
BRANCH   6  18
HETATM   18  O   UNK N   1       3.676   1.487  -2.160  0.00  0.00    -0.361 OA
HETATM   19  H   UNK N   1       3.567   1.774  -3.079  0.00  0.00     0.217 HD
ENDBRANCH   6  18
TORSDOF 4
