REMARK  10 active torsions:
REMARK  status: ('A' for Active; 'I' for Inactive)
REMARK    1  A    between atoms: O_1  and  C_10 
REMARK    2  A    between atoms: O_2  and  C_11 
REMARK    3  A    between atoms: O_4  and  C_23 
REMARK    4  A    between atoms: O_5  and  C_24 
REMARK    5  A    between atoms: O_6  and  C_25 
REMARK    6  A    between atoms: O_8  and  C_29 
REMARK    7  A    between atoms: O_9  and  C_30 
REMARK    8  A    between atoms: C_16  and  C_29 
REMARK    9  A    between atoms: C_22  and  C_27 
REMARK   10  A    between atoms: C_26  and  C_30 
ROOT
HETATM    1  O   UNK N   1      -0.836  -3.742   0.724  0.00  0.00    -0.286 OA
HETATM    2  C   UNK N   1      -2.993  -2.525  -0.637  0.00  0.00     0.081 A 
HETATM    3  C   UNK N   1       1.098  -2.236   2.317  0.00  0.00     0.080 A 
HETATM    4  C   UNK N   1      -1.626  -0.503  -0.618  0.00  0.00    -0.029 A 
HETATM    5  C   UNK N   1       0.445  -0.369   0.861  0.00  0.00    -0.030 A 
HETATM    6  C   UNK N   1      -1.806  -1.853  -0.251  0.00  0.00     0.055 A 
HETATM    7  C   UNK N   1       0.280  -1.725   1.252  0.00  0.00     0.055 A 
HETATM    8  C   UNK N   1      -3.818  -0.495  -1.687  0.00  0.00    -0.032 A 
HETATM    9  C   UNK N   1      -3.986  -1.842  -1.351  0.00  0.00     0.046 A 
HETATM   10  C   UNK N   1       2.012  -1.392   2.953  0.00  0.00     0.037 A 
HETATM   11  C   UNK N   1      -2.636   0.163  -1.333  0.00  0.00     0.018 A 
HETATM   12  C   UNK N   1       1.364   0.445   1.547  0.00  0.00     0.009 A 
HETATM   13  C   UNK N   1       2.137  -0.062   2.579  0.00  0.00     0.003 A 
HETATM   14  C   UNK N   1      -0.343   0.246  -0.293  0.00  0.00     0.085 C 
HETATM   15  C   UNK N   1      -0.765  -2.535   0.558  0.00  0.00     0.199 C 
ENDROOT
BRANCH  14  16
HETATM   16  C   UNK N   1       0.512   0.335  -1.608  0.00  0.00     0.166 C 
HETATM   17  O   UNK N   1       0.819  -0.993  -2.021  0.00  0.00    -0.372 OA
HETATM   18  C   UNK N   1       1.399  -1.019  -3.316  0.00  0.00     0.176 C 
HETATM   19  C   UNK N   1       2.778  -0.320  -3.282  0.00  0.00     0.180 C 
HETATM   20  C   UNK N   1       2.588   1.134  -2.813  0.00  0.00     0.180 C 
HETATM   21  C   UNK N   1       1.824   1.156  -1.475  0.00  0.00     0.179 C 
BRANCH  18  22
HETATM   22  C   UNK N   1       1.540  -2.483  -3.758  0.00  0.00     0.198 C 
BRANCH  22  23
HETATM   23  O   UNK N   1       0.280  -3.094  -3.844  0.00  0.00    -0.398 OA
HETATM   24  H   UNK N   1       0.004  -3.316  -2.917  0.00  0.00     0.209 HD
ENDBRANCH  22  23
ENDBRANCH  18  22
BRANCH  19  25
HETATM   25  O   UNK N   1       3.419  -0.361  -4.533  0.00  0.00    -0.390 OA
HETATM   26  H   UNK N   1       2.835   0.103  -5.187  0.00  0.00     0.210 HD
ENDBRANCH  19  25
BRANCH  20  27
HETATM   27  O   UNK N   1       3.827   1.792  -2.703  0.00  0.00    -0.390 OA
HETATM   28  H   UNK N   1       4.366   1.308  -2.023  0.00  0.00     0.210 HD
ENDBRANCH  20  27
BRANCH  21  29
HETATM   29  O   UNK N   1       1.524   2.478  -1.111  0.00  0.00    -0.390 OA
HETATM   30  H   UNK N   1       2.370   2.887  -0.791  0.00  0.00     0.210 HD
ENDBRANCH  21  29
ENDBRANCH  14  16
BRANCH   2  31
HETATM   31  O   UNK N   1      -3.190  -3.819  -0.300  0.00  0.00    -0.360 OA
HETATM   32  H   UNK N   1      -3.998  -4.295  -0.539  0.00  0.00     0.217 HD
ENDBRANCH   2  31
BRANCH   8  33
HETATM   33  C   UNK N   1      -4.906   0.249  -2.419  0.00  0.00     0.203 C 
BRANCH  33  34
HETATM   34  O   UNK N   1      -4.415   0.834  -3.595  0.00  0.00    -0.396 OA
HETATM   35  H   UNK N   1      -4.047   0.101  -4.152  0.00  0.00     0.209 HD
ENDBRANCH  33  34
ENDBRANCH   8  33
BRANCH   3  36
HETATM   36  O   UNK N   1       1.027  -3.506   2.780  0.00  0.00    -0.360 OA
HETATM   37  H   UNK N   1       0.428  -4.195   2.483  0.00  0.00     0.217 HD
ENDBRANCH   3  36
TORSDOF 10
