REMARK  5 active torsions:
REMARK  status: ('A' for Active; 'I' for Inactive)
REMARK    1  A    between atoms: O_2  and  C_8 
REMARK    2  A    between atoms: O_3  and  C_10 
REMARK    3  A    between atoms: O_6  and  C_18 
REMARK    4  A    between atoms: O_7  and  C_19 
REMARK    5  A    between atoms: C_14  and  C_24 
ROOT
HETATM    1  O   UNK N   1       1.417   0.530  -1.933  0.00  0.00    -0.347 OA
HETATM    2  C   UNK N   1       3.127   0.761  -0.285  0.00  0.00     0.135 A 
HETATM    3  C   UNK N   1       1.787   0.518  -0.624  0.00  0.00     0.111 A 
HETATM    4  C   UNK N   1       3.513   0.698   1.083  0.00  0.00     0.101 A 
HETATM    5  C   UNK N   1       0.825   0.269   0.378  0.00  0.00    -0.021 A 
HETATM    6  C   UNK N   1       2.553   0.404   2.064  0.00  0.00     0.040 A 
HETATM    7  C   UNK N   1       1.220   0.196   1.716  0.00  0.00     0.013 A 
HETATM    8  C   UNK N   1      -0.898   0.548  -1.440  0.00  0.00     0.051 C 
HETATM    9  C   UNK N   1       0.203   0.019  -2.361  0.00  0.00     0.185 C 
HETATM   10  C   UNK N   1      -0.628   0.083   0.009  0.00  0.00     0.053 C 
ENDROOT
BRANCH   8  11
HETATM   11  C   UNK N   1      -2.296   0.180  -1.921  0.00  0.00     0.005 A 
HETATM   12  C   UNK N   1      -2.748  -1.240  -2.007  0.00  0.00     0.215 A 
HETATM   13  O   UNK N   1      -1.995  -2.144  -1.683  0.00  0.00    -0.285 OA
HETATM   14  C   UNK N   1      -4.109  -1.578  -2.502  0.00  0.00     0.156 A 
HETATM   15  C   UNK N   1      -4.954  -0.581  -2.900  0.00  0.00     0.156 A 
HETATM   16  C   UNK N   1      -4.494   0.845  -2.793  0.00  0.00     0.208 A 
HETATM   17  O   UNK N   1      -5.222   1.770  -3.111  0.00  0.00    -0.285 OA
HETATM   18  C   UNK N   1      -3.142   1.156  -2.291  0.00  0.00     0.069 A 
BRANCH  14  19
HETATM   19  O   UNK N   1      -4.430  -2.909  -2.544  0.00  0.00    -0.350 OA
HETATM   20  C   UNK N   1      -5.623  -3.490  -2.924  0.00  0.00     0.210 C 
ENDBRANCH  14  19
BRANCH  15  21
HETATM   21  O   UNK N   1      -6.183  -0.903  -3.398  0.00  0.00    -0.350 OA
HETATM   22  C   UNK N   1      -7.035  -0.076  -4.098  0.00  0.00     0.210 C 
ENDBRANCH  15  21
ENDBRANCH   8  11
BRANCH   2  23
HETATM   23  O   UNK N   1       3.989   1.051  -1.300  0.00  0.00    -0.351 OA
HETATM   24  C   UNK N   1       5.256   1.585  -1.190  0.00  0.00     0.210 C 
ENDBRANCH   2  23
BRANCH   4  25
HETATM   25  O   UNK N   1       4.793   0.905   1.455  0.00  0.00    -0.358 OA
HETATM   26  H   UNK N   1       5.073   0.847   2.380  0.00  0.00     0.218 HD
ENDBRANCH   4  25
TORSDOF 5
