REMARK  10 active torsions:
REMARK  status: ('A' for Active; 'I' for Inactive)
REMARK    1  A    between atoms: O_3  and  C_14 
REMARK    2  A    between atoms: O_3  and  C_26 
REMARK    3  A    between atoms: O_4  and  C_15 
REMARK    4  A    between atoms: O_5  and  C_16 
REMARK    5  A    between atoms: O_7  and  C_27 
REMARK    6  A    between atoms: O_8  and  C_28 
REMARK    7  A    between atoms: O_9  and  C_29 
REMARK    8  A    between atoms: O_10  and  C_31 
REMARK    9  A    between atoms: C_12  and  C_18 
REMARK   10  A    between atoms: C_30  and  C_31 
ROOT
HETATM    1  O   UNK N   1       1.456   0.552  -0.893  0.00  0.00    -0.309 OA
HETATM    2  O   UNK N   1       5.056   1.274  -2.403  0.00  0.00    -0.287 OA
HETATM    3  C   UNK N   1       1.538   0.910  -2.172  0.00  0.00     0.095 A 
HETATM    4  C   UNK N   1       2.526   0.382  -0.121  0.00  0.00     0.090 A 
HETATM    5  C   UNK N   1       3.945   1.043  -1.961  0.00  0.00     0.190 A 
HETATM    6  C   UNK N   1       0.420   1.377  -4.281  0.00  0.00     0.077 A 
HETATM    7  C   UNK N   1       2.845   1.580  -4.120  0.00  0.00     0.085 A 
HETATM    8  C   UNK N   1       2.792   1.184  -2.763  0.00  0.00     0.081 A 
HETATM    9  C   UNK N   1       3.808   0.617  -0.640  0.00  0.00     0.094 A 
HETATM   10  C   UNK N   1       0.365   1.003  -2.925  0.00  0.00     0.075 A 
HETATM   11  C   UNK N   1       1.658   1.663  -4.864  0.00  0.00     0.074 A 
ENDROOT
BRANCH   6  12
HETATM   12  O   UNK N   1      -0.697   1.505  -5.044  0.00  0.00    -0.318 OA
BRANCH  12  13
HETATM   13  C   UNK N   1      -2.001   1.493  -4.581  0.00  0.00     0.298 C 
HETATM   14  O   UNK N   1      -2.404   0.173  -4.239  0.00  0.00    -0.348 OA
HETATM   15  C   UNK N   1      -3.694   0.196  -3.634  0.00  0.00     0.179 C 
HETATM   16  C   UNK N   1      -4.759   0.708  -4.639  0.00  0.00     0.180 C 
HETATM   17  C   UNK N   1      -4.343   2.103  -5.141  0.00  0.00     0.183 C 
HETATM   18  C   UNK N   1      -2.907   2.052  -5.685  0.00  0.00     0.205 C 
BRANCH  15  19
HETATM   19  C   UNK N   1      -4.054  -1.218  -3.148  0.00  0.00     0.198 C 
BRANCH  19  20
HETATM   20  O   UNK N   1      -3.126  -1.664  -2.198  0.00  0.00    -0.398 OA
HETATM   21  H   UNK N   1      -2.348  -2.018  -2.702  0.00  0.00     0.209 HD
ENDBRANCH  19  20
ENDBRANCH  15  19
BRANCH  16  22
HETATM   22  O   UNK N   1      -6.014   0.778  -4.010  0.00  0.00    -0.390 OA
HETATM   23  H   UNK N   1      -6.689   0.922  -4.723  0.00  0.00     0.210 HD
ENDBRANCH  16  22
BRANCH  17  24
HETATM   24  O   UNK N   1      -5.238   2.589  -6.110  0.00  0.00    -0.390 OA
HETATM   25  H   UNK N   1      -5.197   1.976  -6.890  0.00  0.00     0.210 HD
ENDBRANCH  17  24
BRANCH  18  26
HETATM   26  O   UNK N   1      -2.473   3.342  -6.031  0.00  0.00    -0.388 OA
HETATM   27  H   UNK N   1      -2.876   3.554  -6.912  0.00  0.00     0.210 HD
ENDBRANCH  18  26
ENDBRANCH  12  13
ENDBRANCH   6  12
BRANCH   7  28
HETATM   28  O   UNK N   1       4.023   1.882  -4.707  0.00  0.00    -0.360 OA
HETATM   29  H   UNK N   1       4.076   2.184  -5.625  0.00  0.00     0.217 HD
ENDBRANCH   7  28
BRANCH   4  30
HETATM   30  C   UNK N   1       2.331  -0.067   1.274  0.00  0.00    -0.002 A 
HETATM   31  C   UNK N   1       1.201   0.359   1.991  0.00  0.00     0.017 A 
HETATM   32  C   UNK N   1       1.003  -0.060   3.309  0.00  0.00     0.037 A 
HETATM   33  C   UNK N   1       1.914  -0.939   3.913  0.00  0.00     0.065 A 
HETATM   34  C   UNK N   1       3.029  -1.382   3.196  0.00  0.00     0.037 A 
HETATM   35  C   UNK N   1       3.248  -0.938   1.889  0.00  0.00     0.017 A 
BRANCH  33  36
HETATM   36  O   UNK N   1       1.724  -1.364   5.179  0.00  0.00    -0.361 OA
HETATM   37  H   UNK N   1       0.966  -1.071   5.705  0.00  0.00     0.217 HD
ENDBRANCH  33  36
ENDBRANCH   4  30
TORSDOF 10
