REMARK  4 active torsions:
REMARK  status: ('A' for Active; 'I' for Inactive)
REMARK    1  A    between atoms: O_2  and  C_7 
REMARK    2  A    between atoms: O_3  and  C_8 
REMARK    3  A    between atoms: O_3  and  C_16 
REMARK    4  A    between atoms: C_14  and  C_21 
ROOT
HETATM    1  O   UNK N   1       3.988   1.911  -2.070  0.00  0.00    -0.292 OA
HETATM    2  C   UNK N   1      -0.718   2.457   1.556  0.00  0.00     0.145 C 
HETATM    3  C   UNK N   1      -1.237   0.979   1.512  0.00  0.00     0.011 C 
HETATM    4  C   UNK N   1       1.139   0.228   0.493  0.00  0.00    -0.017 C 
HETATM    5  C   UNK N   1      -0.450   0.217   0.365  0.00  0.00     0.013 C 
HETATM    6  C   UNK N   1      -3.426  -0.381   0.743  0.00  0.00    -0.012 C 
HETATM    7  C   UNK N   1       1.694   1.712   0.672  0.00  0.00     0.016 C 
HETATM    8  C   UNK N   1      -4.810   0.153   0.228  0.00  0.00     0.040 C 
HETATM    9  C   UNK N   1       3.021   1.502  -1.442  0.00  0.00     0.157 C 
HETATM   10  C   UNK N   1      -2.748   0.897   1.174  0.00  0.00    -0.063 C 
HETATM   11  C   UNK N   1       0.838   2.524   1.708  0.00  0.00     0.040 C 
HETATM   12  C   UNK N   1       1.766  -0.473  -0.723  0.00  0.00    -0.013 C 
HETATM   13  C   UNK N   1       2.137   2.454  -0.660  0.00  0.00     0.022 C 
HETATM   14  C   UNK N   1      -1.075  -1.205   0.118  0.00  0.00     0.008 C 
HETATM   15  C   UNK N   1      -2.551  -1.087  -0.323  0.00  0.00     0.015 C 
HETATM   16  C   UNK N   1      -5.029   1.436   1.058  0.00  0.00     0.038 C 
HETATM   17  C   UNK N   1      -1.096   0.373   2.944  0.00  0.00     0.023 C 
HETATM   18  C   UNK N   1       1.656  -0.637   1.678  0.00  0.00     0.020 C 
HETATM   19  C   UNK N   1      -3.709  -1.332   1.934  0.00  0.00     0.021 C 
HETATM   20  C   UNK N   1       2.637   0.095  -1.564  0.00  0.00     0.048 C 
HETATM   21  C   UNK N   1      -3.633   1.884   1.328  0.00  0.00    -0.022 C 
HETATM   22  C   UNK N   1       2.949   3.739  -0.324  0.00  0.00     0.024 C 
HETATM   23  C   UNK N   1       1.015   2.869  -1.617  0.00  0.00     0.024 C 
ENDROOT
BRANCH   8  24
HETATM   24  C   UNK N   1      -4.821   0.469  -1.269  0.00  0.00     0.024 A 
HETATM   25  C   UNK N   1      -5.188  -0.460  -2.307  0.00  0.00     0.292 A 
HETATM   26  O   UNK N   1      -5.117   0.127  -3.512  0.00  0.00    -0.283 OA
HETATM   27  O   UNK N   1      -5.526  -1.619  -2.139  0.00  0.00    -0.259 OA
HETATM   28  C   UNK N   1      -4.706   1.448  -3.381  0.00  0.00     0.291 A 
HETATM   29  C   UNK N   1      -4.531   1.610  -1.883  0.00  0.00     0.047 A 
BRANCH  28  30
HETATM   30  O   UNK N   1      -5.702   2.319  -3.842  0.00  0.00    -0.367 OA
HETATM   31  H   UNK N   1      -5.606   2.358  -4.829  0.00  0.00     0.213 HD
ENDBRANCH  28  30
ENDBRANCH   8  24
BRANCH   2  32
HETATM   32  O   UNK N   1      -1.159   3.154   0.441  0.00  0.00    -0.315 OA
BRANCH  32  33
HETATM   33  C   UNK N   1      -1.349   4.505   0.410  0.00  0.00     0.255 C 
HETATM   34  O   UNK N   1      -1.056   5.200   1.373  0.00  0.00    -0.266 OA
HETATM   35  C   UNK N   1      -1.935   5.146  -0.815  0.00  0.00     0.126 C 
ENDBRANCH  32  33
ENDBRANCH   2  32
TORSDOF 4
