REMARK  1 active torsions:
REMARK  status: ('A' for Active; 'I' for Inactive)
REMARK    1  A    between atoms: O_2  and  C_10 
ROOT
HETATM    1  O   UNK N   1       3.733   1.261  -1.347  0.00  0.00    -0.268 OA
HETATM    2  N   UNK N   1       1.668   1.159  -0.421  0.00  0.00    -0.317 N 
HETATM    3  N   UNK N   1      -1.048  -0.100  -1.493  0.00  0.00     0.094 N 
HETATM    4  C   UNK N   1       3.015   0.826  -0.462  0.00  0.00     0.247 A 
HETATM    5  C   UNK N   1       0.869   0.666   0.590  0.00  0.00     0.020 A 
HETATM    6  C   UNK N   1       3.568  -0.009   0.511  0.00  0.00     0.074 A 
HETATM    7  C   UNK N   1       1.418  -0.169   1.577  0.00  0.00     0.026 A 
HETATM    8  C   UNK N   1       2.768  -0.502   1.534  0.00  0.00     0.007 A 
HETATM    9  C   UNK N   1      -3.353   0.510  -3.235  0.00  0.00     0.122 C 
HETATM   10  C   UNK N   1      -0.599   1.027   0.673  0.00  0.00     0.065 C 
HETATM   11  C   UNK N   1      -1.161   1.211  -2.181  0.00  0.00     0.231 C 
HETATM   12  C   UNK N   1      -0.386   2.323  -1.413  0.00  0.00     0.038 C 
HETATM   13  C   UNK N   1       1.145   2.099  -1.441  0.00  0.00     0.139 C 
HETATM   14  C   UNK N   1      -1.429  -0.043  -0.062  0.00  0.00     0.283 C 
HETATM   15  C   UNK N   1      -1.753  -1.168  -2.238  0.00  0.00     0.275 C 
HETATM   16  C   UNK N   1      -2.642   1.601  -2.429  0.00  0.00     0.068 C 
HETATM   17  C   UNK N   1      -3.234  -0.830  -2.492  0.00  0.00     0.062 C 
HETATM   18  C   UNK N   1      -0.844   2.404   0.045  0.00  0.00     0.021 C 
ENDROOT
BRANCH   9  19
HETATM   19  O   UNK N   1      -4.701   0.868  -3.398  0.00  0.00    -0.395 OA
HETATM   20  H   UNK N   1      -5.124   0.168  -3.960  0.00  0.00     0.210 HD
ENDBRANCH   9  19
TORSDOF 1
