REMARK  10 active torsions:
REMARK  status: ('A' for Active; 'I' for Inactive)
REMARK    1  A    between atoms: O_1  and  C_10 
REMARK    2  A    between atoms: O_2  and  C_11 
REMARK    3  A    between atoms: O_4  and  C_23 
REMARK    4  A    between atoms: O_5  and  C_24 
REMARK    5  A    between atoms: O_6  and  C_25 
REMARK    6  A    between atoms: O_8  and  C_29 
REMARK    7  A    between atoms: O_9  and  C_30 
REMARK    8  A    between atoms: C_16  and  C_29 
REMARK    9  A    between atoms: C_22  and  C_27 
REMARK   10  A    between atoms: C_26  and  C_30 
ROOT
HETATM    1  O   UNK N   1       0.511  -3.209  -0.807  0.00  0.00    -0.286 OA
HETATM    2  C   UNK N   1      -2.115  -2.177  -1.623  0.00  0.00     0.081 A 
HETATM    3  C   UNK N   1       1.793  -2.080   1.471  0.00  0.00     0.080 A 
HETATM    4  C   UNK N   1      -1.222  -0.043  -0.802  0.00  0.00    -0.029 A 
HETATM    5  C   UNK N   1       0.742   0.006   0.768  0.00  0.00    -0.030 A 
HETATM    6  C   UNK N   1      -1.058  -1.441  -1.002  0.00  0.00     0.055 A 
HETATM    7  C   UNK N   1       0.945  -1.376   0.585  0.00  0.00     0.055 A 
HETATM    8  C   UNK N   1      -3.439  -0.145  -1.800  0.00  0.00    -0.032 A 
HETATM    9  C   UNK N   1      -3.281  -1.516  -2.011  0.00  0.00     0.046 A 
HETATM   10  C   UNK N   1       2.412  -1.402   2.530  0.00  0.00     0.037 A 
HETATM   11  C   UNK N   1      -2.409   0.589  -1.207  0.00  0.00     0.018 A 
HETATM   12  C   UNK N   1       1.364   0.664   1.843  0.00  0.00     0.009 A 
HETATM   13  C   UNK N   1       2.191  -0.038   2.718  0.00  0.00     0.003 A 
HETATM   14  C   UNK N   1      -0.089   0.800  -0.224  0.00  0.00     0.085 C 
HETATM   15  C   UNK N   1       0.191  -2.077  -0.483  0.00  0.00     0.199 C 
ENDROOT
BRANCH  14  16
HETATM   16  C   UNK N   1       0.792   1.319  -1.410  0.00  0.00     0.166 C 
HETATM   17  O   UNK N   1      -0.043   2.121  -2.255  0.00  0.00    -0.372 OA
HETATM   18  C   UNK N   1       0.623   3.042  -3.129  0.00  0.00     0.176 C 
HETATM   19  C   UNK N   1       2.061   2.592  -3.462  0.00  0.00     0.180 C 
HETATM   20  C   UNK N   1       2.915   2.490  -2.179  0.00  0.00     0.180 C 
HETATM   21  C   UNK N   1       2.045   2.114  -0.953  0.00  0.00     0.179 C 
BRANCH  18  22
HETATM   22  C   UNK N   1      -0.215   3.161  -4.411  0.00  0.00     0.198 C 
BRANCH  22  23
HETATM   23  O   UNK N   1      -1.486   3.679  -4.124  0.00  0.00    -0.398 OA
HETATM   24  H   UNK N   1      -1.997   2.960  -3.669  0.00  0.00     0.209 HD
ENDBRANCH  22  23
ENDBRANCH  18  22
BRANCH  19  25
HETATM   25  O   UNK N   1       2.695   3.408  -4.415  0.00  0.00    -0.390 OA
HETATM   26  H   UNK N   1       2.695   4.334  -4.056  0.00  0.00     0.210 HD
ENDBRANCH  19  25
BRANCH  20  27
HETATM   27  O   UNK N   1       3.913   1.522  -2.380  0.00  0.00    -0.390 OA
HETATM   28  H   UNK N   1       4.572   1.916  -3.011  0.00  0.00     0.210 HD
ENDBRANCH  20  27
BRANCH  21  29
HETATM   29  O   UNK N   1       1.601   3.278  -0.299  0.00  0.00    -0.390 OA
HETATM   30  H   UNK N   1       2.369   3.626   0.226  0.00  0.00     0.210 HD
ENDBRANCH  21  29
ENDBRANCH  14  16
BRANCH   2  31
HETATM   31  O   UNK N   1      -2.075  -3.514  -1.835  0.00  0.00    -0.360 OA
HETATM   32  H   UNK N   1      -1.374  -4.113  -1.566  0.00  0.00     0.217 HD
ENDBRANCH   2  31
BRANCH   8  33
HETATM   33  C   UNK N   1      -4.713   0.530  -2.228  0.00  0.00     0.203 C 
BRANCH  33  34
HETATM   34  O   UNK N   1      -4.592   1.015  -3.537  0.00  0.00    -0.396 OA
HETATM   35  H   UNK N   1      -4.508   0.219  -4.126  0.00  0.00     0.209 HD
ENDBRANCH  33  34
ENDBRANCH   8  33
BRANCH   3  36
HETATM   36  O   UNK N   1       1.986  -3.409   1.324  0.00  0.00    -0.360 OA
HETATM   37  H   UNK N   1       2.539  -3.917   1.934  0.00  0.00     0.217 HD
ENDBRANCH   3  36
TORSDOF 10
