REMARK  9 active torsions:
REMARK  status: ('A' for Active; 'I' for Inactive)
REMARK    1  A    between atoms: O_2  and  C_8 
REMARK    2  A    between atoms: O_3  and  C_9 
REMARK    3  A    between atoms: O_4  and  C_10 
REMARK    4  A    between atoms: O_6  and  C_21 
REMARK    5  A    between atoms: C_11  and  C_19 
REMARK    6  A    between atoms: C_13  and  C_23 
REMARK    7  A    between atoms: C_14  and  C_24 
REMARK    8  A    between atoms: C_21  and  C_27 
REMARK    9  A    between atoms: C_24  and  C_28 
ROOT
HETATM    1  C   UNK N   1       2.545   0.709  -2.016  0.00  0.00     0.085 A 
HETATM    2  C   UNK N   1      -0.195   0.232  -2.554  0.00  0.00    -0.027 A 
HETATM    3  C   UNK N   1       1.919   1.278  -3.165  0.00  0.00    -0.002 A 
HETATM    4  C   UNK N   1       1.757  -0.052  -1.120  0.00  0.00    -0.020 A 
HETATM    5  C   UNK N   1       0.570   1.012  -3.424  0.00  0.00     0.024 A 
HETATM    6  C   UNK N   1       0.393  -0.272  -1.386  0.00  0.00     0.020 A 
ENDROOT
BRANCH   2   7
HETATM    7  C   UNK N   1      -1.637  -0.059  -2.903  0.00  0.00     0.169 C 
HETATM    8  O   UNK N   1      -1.974  -1.370  -2.585  0.00  0.00    -0.340 OA
HETATM    9  C   UNK N   1      -3.250  -1.834  -2.701  0.00  0.00     0.089 A 
HETATM   10  C   UNK N   1      -4.335  -0.928  -2.804  0.00  0.00     0.076 A 
HETATM   11  C   UNK N   1      -3.471  -3.213  -2.746  0.00  0.00     0.074 A 
HETATM   12  C   UNK N   1      -5.649  -1.445  -3.013  0.00  0.00     0.085 A 
HETATM   13  C   UNK N   1      -3.994   0.525  -2.697  0.00  0.00     0.167 C 
HETATM   14  C   UNK N   1      -5.837  -2.832  -3.074  0.00  0.00     0.074 A 
HETATM   15  C   UNK N   1      -4.760  -3.714  -2.932  0.00  0.00     0.071 A 
HETATM   16  O   UNK N   1      -4.770   1.403  -3.032  0.00  0.00    -0.292 OA
HETATM   17  C   UNK N   1      -2.611   0.896  -2.222  0.00  0.00     0.121 C 
BRANCH  12  18
HETATM   18  O   UNK N   1      -6.742  -0.662  -3.149  0.00  0.00    -0.360 OA
HETATM   19  H   UNK N   1      -6.746   0.299  -3.120  0.00  0.00     0.217 HD
ENDBRANCH  12  18
BRANCH  15  20
HETATM   20  O   UNK N   1      -4.952  -5.048  -2.985  0.00  0.00    -0.361 OA
HETATM   21  H   UNK N   1      -5.831  -5.431  -3.122  0.00  0.00     0.217 HD
ENDBRANCH  15  20
ENDBRANCH   2   7
BRANCH   3  22
HETATM   22  C   UNK N   1       2.613   2.168  -4.114  0.00  0.00     0.013 C 
HETATM   23  C   UNK N   1       2.628   3.519  -4.016  0.00  0.00     0.011 C 
BRANCH  23  24
HETATM   24  C   UNK N   1       1.986   4.384  -2.923  0.00  0.00     0.068 C 
HETATM   25  C   UNK N   1       3.078   5.254  -2.262  0.00  0.00     0.050 C 
HETATM   26  C   UNK N   1       0.953   5.312  -3.576  0.00  0.00     0.050 C 
BRANCH  24  27
HETATM   27  O   UNK N   1       1.310   3.628  -1.945  0.00  0.00    -0.387 OA
HETATM   28  H   UNK N   1       1.972   3.291  -1.286  0.00  0.00     0.211 HD
ENDBRANCH  24  27
ENDBRANCH  23  24
ENDBRANCH   3  22
BRANCH   4  29
HETATM   29  C   UNK N   1       2.367  -0.658   0.124  0.00  0.00     0.068 C 
BRANCH  29  30
HETATM   30  C   UNK N   1       2.123   0.244   1.311  0.00  0.00    -0.020 C 
HETATM   31  C   UNK N   1       1.461  -0.076   2.450  0.00  0.00    -0.091 C 
HETATM   32  C   UNK N   1       1.360   0.951   3.550  0.00  0.00     0.042 C 
HETATM   33  C   UNK N   1       0.806  -1.413   2.706  0.00  0.00     0.042 C 
ENDBRANCH  29  30
ENDBRANCH   4  29
BRANCH   1  34
HETATM   34  O   UNK N   1       3.870   0.863  -1.716  0.00  0.00    -0.355 OA
HETATM   35  C   UNK N   1       4.883   1.357  -2.510  0.00  0.00     0.210 C 
ENDBRANCH   1  34
TORSDOF 9
