REMARK  5 active torsions:
REMARK  status: ('A' for Active; 'I' for Inactive)
REMARK    1  A    between atoms: O_2  and  C_7 
REMARK    2  A    between atoms: O_2  and  C_18 
REMARK    3  A    between atoms: O_4  and  C_10 
REMARK    4  A    between atoms: C_8  and  C_9 
REMARK    5  A    between atoms: C_13  and  C_15 
ROOT
HETATM    1  O   UNK N   1       5.702   1.439  -1.481  0.00  0.00    -0.297 OA
HETATM    2  C   UNK N   1       1.459   3.339   2.102  0.00  0.00     0.131 C 
HETATM    3  C   UNK N   1       0.455   2.176   1.790  0.00  0.00     0.010 C 
HETATM    4  C   UNK N   1       2.528   0.690   0.941  0.00  0.00    -0.034 C 
HETATM    5  C   UNK N   1       1.087   1.289   0.629  0.00  0.00     0.009 C 
HETATM    6  C   UNK N   1      -2.802   2.917  -0.101  0.00  0.00     0.010 C 
HETATM    7  C   UNK N   1      -1.912   1.816   0.559  0.00  0.00    -0.016 C 
HETATM    8  C   UNK N   1       3.539   1.870   1.293  0.00  0.00     0.012 C 
HETATM    9  C   UNK N   1       4.579   1.576  -1.015  0.00  0.00     0.135 C 
HETATM   10  C   UNK N   1      -0.907   2.692   1.273  0.00  0.00    -0.064 C 
HETATM   11  C   UNK N   1       2.917   2.823   2.378  0.00  0.00     0.039 C 
HETATM   12  C   UNK N   1       4.291   2.600   0.071  0.00  0.00     0.018 C 
HETATM   13  C   UNK N   1       3.101  -0.154  -0.253  0.00  0.00     0.017 C 
HETATM   14  C   UNK N   1       0.049   0.240   0.104  0.00  0.00     0.007 C 
HETATM   15  C   UNK N   1      -2.758   4.079   0.902  0.00  0.00     0.033 C 
HETATM   16  C   UNK N   1      -1.185   0.945  -0.485  0.00  0.00     0.014 C 
HETATM   17  C   UNK N   1       0.134   1.444   3.127  0.00  0.00     0.023 C 
HETATM   18  C   UNK N   1       2.492  -0.344   2.109  0.00  0.00     0.016 C 
HETATM   19  C   UNK N   1      -2.731   0.952   1.550  0.00  0.00     0.020 C 
HETATM   20  C   UNK N   1      -1.394   3.919   1.471  0.00  0.00    -0.022 C 
HETATM   21  C   UNK N   1       3.481   0.673  -1.470  0.00  0.00     0.080 C 
HETATM   22  C   UNK N   1       5.639   3.183   0.590  0.00  0.00     0.023 C 
HETATM   23  C   UNK N   1       3.562   3.764  -0.622  0.00  0.00     0.023 C 
ENDROOT
BRANCH   6  24
HETATM   24  C   UNK N   1      -4.216   2.548  -0.637  0.00  0.00     0.049 C 
HETATM   25  C   UNK N   1      -4.942   3.701  -1.337  0.00  0.00     0.274 C 
HETATM   26  O   UNK N   1      -5.948   3.131  -2.155  0.00  0.00    -0.352 OA
HETATM   27  C   UNK N   1      -5.630   1.758  -2.294  0.00  0.00     0.157 C 
HETATM   28  C   UNK N   1      -4.215   1.565  -1.771  0.00  0.00     0.044 C 
BRANCH  25  29
HETATM   29  O   UNK N   1      -5.521   4.539  -0.397  0.00  0.00    -0.290 OA
BRANCH  29  30
HETATM   30  C   UNK N   1      -5.281   5.876  -0.290  0.00  0.00     0.257 C 
HETATM   31  O   UNK N   1      -4.562   6.453  -1.084  0.00  0.00    -0.266 OA
HETATM   32  C   UNK N   1      -5.900   6.631   0.844  0.00  0.00     0.126 C 
ENDBRANCH  29  30
ENDBRANCH  25  29
BRANCH  27  33
HETATM   33  C   UNK N   1      -5.700   1.345  -3.773  0.00  0.00     0.185 A 
HETATM   34  O   UNK N   1      -6.994   0.903  -4.162  0.00  0.00    -0.367 OA
HETATM   35  C   UNK N   1      -5.961  -0.056  -4.179  0.00  0.00     0.083 A 
HETATM   36  C   UNK N   1      -5.530  -0.453  -5.593  0.00  0.00     0.048 C 
HETATM   37  C   UNK N   1      -6.146  -1.175  -3.150  0.00  0.00     0.048 C 
ENDBRANCH  27  33
ENDBRANCH   6  24
BRANCH   2  38
HETATM   38  O   UNK N   1       1.443   4.257   1.047  0.00  0.00    -0.394 OA
HETATM   39  H   UNK N   1       1.708   5.139   1.421  0.00  0.00     0.210 HD
ENDBRANCH   2  38
TORSDOF 5
