REMARK  11 active torsions:
REMARK  status: ('A' for Active; 'I' for Inactive)
REMARK    1  A    between atoms: O_1  and  C_10 
REMARK    2  A    between atoms: O_2  and  C_11 
REMARK    3  A    between atoms: O_3  and  C_16 
REMARK    4  A    between atoms: O_4  and  C_18 
REMARK    5  A    between atoms: O_4  and  C_21 
REMARK    6  A    between atoms: O_5  and  C_17 
REMARK    7  A    between atoms: O_6  and  C_19 
REMARK    8  A    between atoms: O_9  and  C_20 
REMARK    9  A    between atoms: C_12  and  C_22 
REMARK   10  A    between atoms: C_16  and  C_20 
REMARK   11  A    between atoms: C_21  and  C_25 
ROOT
HETATM    1  C   UNK N   1      -5.753  -0.602  -1.894  0.00  0.00     0.147 C 
HETATM    2  C   UNK N   1      -5.943  -1.378   1.035  0.00  0.00     0.176 C 
HETATM    3  C   UNK N   1      -4.854  -2.014   0.149  0.00  0.00     0.166 C 
HETATM    4  C   UNK N   1      -6.272   0.050   0.540  0.00  0.00     0.152 C 
HETATM    5  C   UNK N   1      -5.298  -1.992  -1.347  0.00  0.00     0.084 C 
HETATM    6  C   UNK N   1      -6.795   0.005  -0.912  0.00  0.00     0.083 C 
ENDROOT
BRANCH   3   7
HETATM    7  O   UNK N   1      -3.664  -1.356   0.399  0.00  0.00    -0.310 OA
BRANCH   7   8
HETATM    8  C   UNK N   1      -2.432  -1.766  -0.005  0.00  0.00     0.283 C 
HETATM    9  O   UNK N   1      -2.299  -2.740  -0.730  0.00  0.00    -0.260 OA
BRANCH   8  10
HETATM   10  C   UNK N   1      -1.262  -0.985   0.443  0.00  0.00     0.083 C 
HETATM   11  C   UNK N   1      -0.029  -1.176  -0.060  0.00  0.00     0.017 C 
BRANCH  11  12
HETATM   12  C   UNK N   1       1.132  -0.331   0.333  0.00  0.00    -0.033 A 
HETATM   13  C   UNK N   1       2.222  -0.243  -0.545  0.00  0.00     0.050 A 
HETATM   14  C   UNK N   1       3.308   0.597  -0.264  0.00  0.00     0.099 A 
HETATM   15  C   UNK N   1       3.322   1.341   0.943  0.00  0.00     0.098 A 
HETATM   16  C   UNK N   1       2.250   1.223   1.834  0.00  0.00     0.040 A 
HETATM   17  C   UNK N   1       1.160   0.406   1.533  0.00  0.00     0.014 A 
BRANCH  14  18
HETATM   18  O   UNK N   1       4.303   0.676  -1.175  0.00  0.00    -0.358 OA
HETATM   19  H   UNK N   1       5.068   1.257  -1.093  0.00  0.00     0.218 HD
ENDBRANCH  14  18
BRANCH  15  20
HETATM   20  O   UNK N   1       4.335   2.172   1.272  0.00  0.00    -0.358 OA
HETATM   21  H   UNK N   1       5.105   2.336   0.715  0.00  0.00     0.218 HD
ENDBRANCH  15  20
ENDBRANCH  11  12
ENDBRANCH   8  10
ENDBRANCH   7   8
ENDBRANCH   3   7
BRANCH   2  22
HETATM   22  O   UNK N   1      -7.106  -2.167   1.016  0.00  0.00    -0.390 OA
HETATM   23  H   UNK N   1      -6.912  -2.978   1.555  0.00  0.00     0.210 HD
ENDBRANCH   2  22
BRANCH   4  24
HETATM   24  O   UNK N   1      -7.205   0.671   1.389  0.00  0.00    -0.393 OA
HETATM   25  H   UNK N   1      -8.057   0.165   1.335  0.00  0.00     0.210 HD
ENDBRANCH   4  24
BRANCH   1  26
HETATM   26  O   UNK N   1      -6.365  -0.831  -3.143  0.00  0.00    -0.379 OA
HETATM   27  H   UNK N   1      -6.842  -0.004  -3.422  0.00  0.00     0.211 HD
ENDBRANCH   1  26
BRANCH   1  28
HETATM   28  C   UNK N   1      -4.608   0.375  -2.129  0.00  0.00     0.176 C 
HETATM   29  O   UNK N   1      -3.449   0.052  -1.932  0.00  0.00    -0.648 OA
BRANCH  28  30
HETATM   30  O   UNK N   1      -4.880   1.602  -2.625  0.00  0.00    -0.774 OA
HETATM   31  H   UNK N   1      -4.173   2.232  -2.824  0.00  0.00     0.167 HD
ENDBRANCH  28  30
ENDBRANCH   1  28
TORSDOF 11
