REMARK  2 active torsions:
REMARK  status: ('A' for Active; 'I' for Inactive)
REMARK    1  A    between atoms: O_1  and  C_5 
REMARK    2  A    between atoms: O_1  and  C_9 
ROOT
HETATM    1  O   UNK N   1      -4.706   0.749  -3.113  0.00  0.00    -0.260 OA
HETATM    2  O   UNK N   1      -3.476   2.536  -3.740  0.00  0.00    -0.317 OA
HETATM    3  C   UNK N   1       2.214   1.129  -0.889  0.00  0.00     0.140 C 
HETATM    4  C   UNK N   1      -0.338   2.244  -1.671  0.00  0.00    -0.029 C 
HETATM    5  C   UNK N   1      -1.824   2.469  -2.077  0.00  0.00     0.057 C 
HETATM    6  C   UNK N   1      -0.337   1.463  -0.304  0.00  0.00     0.008 C 
HETATM    7  C   UNK N   1      -3.740   1.478  -2.960  0.00  0.00     0.289 C 
HETATM    8  C   UNK N   1      -2.202   3.036  -3.482  0.00  0.00     0.189 C 
HETATM    9  C   UNK N   1       1.139   1.206   0.274  0.00  0.00    -0.016 C 
HETATM   10  C   UNK N   1       1.614   0.546  -2.174  0.00  0.00     0.034 C 
HETATM   11  C   UNK N   1      -2.679   1.275  -2.018  0.00  0.00     0.020 C 
HETATM   12  C   UNK N   1       0.450   1.411  -2.740  0.00  0.00     0.013 C 
HETATM   13  C   UNK N   1      -1.187   0.134  -0.422  0.00  0.00     0.034 C 
HETATM   14  C   UNK N   1       0.256   3.681  -1.554  0.00  0.00     0.016 C 
HETATM   15  C   UNK N   1      -2.442   0.212  -1.253  0.00  0.00    -0.013 C 
HETATM   16  C   UNK N   1       1.184  -0.085   1.150  0.00  0.00     0.018 C 
HETATM   17  C   UNK N   1       1.550   2.348   1.239  0.00  0.00     0.018 C 
ENDROOT
BRANCH   3  18
HETATM   18  O   UNK N   1       3.317   0.389  -0.489  0.00  0.00    -0.316 OA
BRANCH  18  19
HETATM   19  C   UNK N   1       4.564   0.511  -1.015  0.00  0.00     0.255 C 
HETATM   20  O   UNK N   1       4.830   1.410  -1.800  0.00  0.00    -0.266 OA
HETATM   21  C   UNK N   1       5.623  -0.461  -0.612  0.00  0.00     0.126 C 
ENDBRANCH  18  19
ENDBRANCH   3  18
TORSDOF 2
