REMARK  4 active torsions:
REMARK  status: ('A' for Active; 'I' for Inactive)
REMARK    1  A    between atoms: O_1  and  C_6 
REMARK    2  A    between atoms: O_2  and  C_7 
REMARK    3  A    between atoms: O_3  and  C_8 
REMARK    4  A    between atoms: O_4  and  C_9 
ROOT
HETATM    1  N   UNK N   1       0.257   1.244  -2.603  0.00  0.00    -0.355 N 
HETATM    2  C   UNK N   1       3.108   0.665  -0.286  0.00  0.00     0.114 A 
HETATM    3  C   UNK N   1       3.307   0.172   1.038  0.00  0.00     0.102 A 
HETATM    4  C   UNK N   1      -4.743   1.174  -3.613  0.00  0.00     0.101 A 
HETATM    5  C   UNK N   1      -4.556   0.322  -2.507  0.00  0.00     0.099 A 
HETATM    6  C   UNK N   1      -0.813   0.823  -1.847  0.00  0.00     0.046 A 
HETATM    7  C   UNK N   1       1.534   1.210  -2.105  0.00  0.00     0.106 A 
HETATM    8  C   UNK N   1       1.788   0.729  -0.805  0.00  0.00     0.026 A 
HETATM    9  C   UNK N   1       0.699   0.298  -0.024  0.00  0.00    -0.020 A 
HETATM   10  C   UNK N   1      -2.194   0.928  -2.419  0.00  0.00    -0.000 A 
HETATM   11  C   UNK N   1      -2.382   1.777  -3.527  0.00  0.00    -0.041 A 
HETATM   12  C   UNK N   1      -3.292   0.205  -1.914  0.00  0.00     0.053 A 
HETATM   13  C   UNK N   1      -3.644   1.895  -4.119  0.00  0.00     0.047 A 
HETATM   14  C   UNK N   1       2.195  -0.234   1.800  0.00  0.00     0.040 A 
HETATM   15  C   UNK N   1      -0.597   0.342  -0.545  0.00  0.00     0.043 A 
HETATM   16  C   UNK N   1       0.910  -0.173   1.274  0.00  0.00     0.015 A 
HETATM   17  C   UNK N   1       0.031   1.700  -3.991  0.00  0.00     0.133 C 
HETATM   18  C   UNK N   1      -1.215   2.579  -4.047  0.00  0.00     0.060 C 
ENDROOT
BRANCH   2  19
HETATM   19  O   UNK N   1       4.143   1.069  -1.083  0.00  0.00    -0.352 OA
HETATM   20  C   UNK N   1       5.491   1.040  -0.777  0.00  0.00     0.210 C 
ENDBRANCH   2  19
BRANCH   3  21
HETATM   21  O   UNK N   1       4.566   0.096   1.548  0.00  0.00    -0.353 OA
HETATM   22  C   UNK N   1       4.916  -0.374   2.795  0.00  0.00     0.210 C 
ENDBRANCH   3  21
BRANCH   5  23
HETATM   23  O   UNK N   1      -5.583  -0.397  -2.002  0.00  0.00    -0.358 OA
HETATM   24  H   UNK N   1      -6.474  -0.366  -2.378  0.00  0.00     0.218 HD
ENDBRANCH   5  23
BRANCH   4  25
HETATM   25  O   UNK N   1      -5.984   1.286  -4.161  0.00  0.00    -0.353 OA
HETATM   26  C   UNK N   1      -6.313   2.120  -5.211  0.00  0.00     0.210 C 
ENDBRANCH   4  25
TORSDOF 4
