REMARK  7 active torsions:
REMARK  status: ('A' for Active; 'I' for Inactive)
REMARK    1  A    between atoms: O_1  and  C_4 
REMARK    2  A    between atoms: O_2  and  C_5 
REMARK    3  A    between atoms: C_6  and  C_17 
REMARK    4  A    between atoms: C_7  and  C_18 
REMARK    5  A    between atoms: C_16  and  C_19 
REMARK    6  A    between atoms: C_16  and  C_20 
REMARK    7  A    between atoms: C_18  and  C_20 
ROOT
HETATM    1  O   UNK N   1       3.515   1.300  -2.053  0.00  0.00    -0.293 OA
HETATM    2  C   UNK N   1       2.926   0.247  -1.855  0.00  0.00     0.149 C 
ENDROOT
BRANCH   2   3
HETATM    3  C   UNK N   1       1.459   0.157  -2.056  0.00  0.00     0.051 C 
HETATM    4  C   UNK N   1       0.752   1.173  -2.585  0.00  0.00     0.015 C 
BRANCH   4   5
HETATM    5  C   UNK N   1      -0.714   1.104  -2.839  0.00  0.00    -0.036 A 
HETATM    6  C   UNK N   1      -1.280   2.028  -3.732  0.00  0.00     0.014 A 
HETATM    7  C   UNK N   1      -2.647   1.984  -4.029  0.00  0.00     0.037 A 
HETATM    8  C   UNK N   1      -3.465   1.031  -3.422  0.00  0.00     0.065 A 
HETATM    9  C   UNK N   1      -2.918   0.115  -2.514  0.00  0.00     0.037 A 
HETATM   10  C   UNK N   1      -1.547   0.145  -2.227  0.00  0.00     0.014 A 
BRANCH   8  11
HETATM   11  O   UNK N   1      -4.784   1.000  -3.716  0.00  0.00    -0.361 OA
HETATM   12  H   UNK N   1      -5.379   0.354  -3.314  0.00  0.00     0.217 HD
ENDBRANCH   8  11
ENDBRANCH   4   5
ENDBRANCH   2   3
BRANCH   2  13
HETATM   13  C   UNK N   1       3.702  -0.970  -1.418  0.00  0.00     0.087 C 
BRANCH  13  14
HETATM   14  C   UNK N   1       4.390  -0.756  -0.066  0.00  0.00     0.046 C 
BRANCH  14  15
HETATM   15  C   UNK N   1       3.385  -0.508   1.032  0.00  0.00    -0.058 A 
HETATM   16  C   UNK N   1       2.786  -1.585   1.703  0.00  0.00     0.010 A 
HETATM   17  C   UNK N   1       1.853  -1.348   2.721  0.00  0.00     0.037 A 
HETATM   18  C   UNK N   1       1.508  -0.038   3.064  0.00  0.00     0.065 A 
HETATM   19  C   UNK N   1       2.100   1.040   2.392  0.00  0.00     0.037 A 
HETATM   20  C   UNK N   1       3.038   0.806   1.382  0.00  0.00     0.010 A 
BRANCH  18  21
HETATM   21  O   UNK N   1       0.604   0.179   4.045  0.00  0.00    -0.361 OA
HETATM   22  H   UNK N   1       0.344   1.073   4.306  0.00  0.00     0.217 HD
ENDBRANCH  18  21
ENDBRANCH  14  15
ENDBRANCH  13  14
ENDBRANCH   2  13
TORSDOF 7
