REMARK  3 active torsions:
REMARK  status: ('A' for Active; 'I' for Inactive)
REMARK    1  A    between atoms: O_1  and  C_4 
REMARK    2  A    between atoms: O_2  and  C_5 
REMARK    3  A    between atoms: C_11  and  C_20 
ROOT
HETATM    1  O   UNK N   1       5.159   1.422  -1.181  0.00  0.00    -0.298 OA
HETATM    2  C   UNK N   1      -3.715  -0.063  -3.368  0.00  0.00     0.176 C 
HETATM    3  C   UNK N   1      -4.705   1.065  -3.016  0.00  0.00     0.151 C 
HETATM    4  C   UNK N   1       1.917   1.418   0.206  0.00  0.00    -0.029 C 
HETATM    5  C   UNK N   1       1.671   1.247  -1.300  0.00  0.00     0.006 C 
HETATM    6  C   UNK N   1       0.326   0.565  -1.645  0.00  0.00    -0.001 C 
HETATM    7  C   UNK N   1      -0.837   1.362  -0.999  0.00  0.00     0.003 C 
HETATM    8  C   UNK N   1      -2.230   0.668  -1.302  0.00  0.00    -0.014 C 
HETATM    9  C   UNK N   1       3.304   2.127   0.194  0.00  0.00     0.063 C 
HETATM   10  C   UNK N   1       3.959   1.406  -0.963  0.00  0.00     0.132 C 
HETATM   11  C   UNK N   1      -2.341   0.277  -2.793  0.00  0.00    -0.044 C 
HETATM   12  C   UNK N   1      -4.745   1.305  -1.492  0.00  0.00     0.036 C 
HETATM   13  C   UNK N   1       0.781   2.295   0.783  0.00  0.00     0.011 C 
HETATM   14  C   UNK N   1       2.986   0.666  -1.837  0.00  0.00     0.084 C 
HETATM   15  C   UNK N   1      -0.594   1.651   0.522  0.00  0.00     0.007 C 
HETATM   16  C   UNK N   1       0.138   0.546  -3.174  0.00  0.00     0.033 C 
HETATM   17  C   UNK N   1      -3.350   1.715  -0.993  0.00  0.00     0.017 C 
HETATM   18  C   UNK N   1       1.994   0.044   0.955  0.00  0.00     0.016 C 
HETATM   19  C   UNK N   1      -2.441  -0.608  -0.439  0.00  0.00     0.020 C 
HETATM   20  C   UNK N   1      -1.270   0.260  -3.619  0.00  0.00    -0.020 C 
ENDROOT
BRANCH   2  21
HETATM   21  O   UNK N   1      -4.155  -1.290  -2.844  0.00  0.00    -0.389 OA
HETATM   22  H   UNK N   1      -4.808  -1.670  -3.488  0.00  0.00     0.210 HD
ENDBRANCH   2  21
BRANCH   3  23
HETATM   23  O   UNK N   1      -5.987   0.792  -3.526  0.00  0.00    -0.393 OA
HETATM   24  H   UNK N   1      -6.394   0.076  -2.972  0.00  0.00     0.210 HD
ENDBRANCH   3  23
BRANCH   9  25
HETATM   25  C   UNK N   1       4.067   2.084   1.538  0.00  0.00     0.008 C 
HETATM   26  C   UNK N   1       5.260   3.039   1.555  0.00  0.00     0.006 C 
ENDBRANCH   9  25
TORSDOF 3
