REMARK  6 active torsions:
REMARK  status: ('A' for Active; 'I' for Inactive)
REMARK    1  A    between atoms: O_3  and  C_16 
REMARK    2  A    between atoms: O_3  and  C_23 
REMARK    3  A    between atoms: O_9  and  C_21 
REMARK    4  A    between atoms: C_12  and  C_15 
REMARK    5  A    between atoms: C_16  and  C_17 
REMARK    6  A    between atoms: C_16  and  C_21 
ROOT
HETATM    1  O   UNK N   1       3.523   0.599  -0.255  0.00  0.00    -0.310 OA
HETATM    2  O   UNK N   1       4.667   1.783  -1.753  0.00  0.00    -0.265 OA
HETATM    3  O   UNK N   1      -2.742   2.533  -3.667  0.00  0.00    -0.297 OA
HETATM    4  O   UNK N   1      -1.997   0.202  -6.874  0.00  0.00    -0.296 OA
HETATM    5  C   UNK N   1      -1.224   1.146  -4.854  0.00  0.00     0.130 C 
HETATM    6  C   UNK N   1       2.492  -0.273   0.053  0.00  0.00     0.179 C 
HETATM    7  C   UNK N   1      -3.214  -0.851  -3.712  0.00  0.00     0.052 C 
HETATM    8  C   UNK N   1      -2.514   0.292  -2.860  0.00  0.00     0.072 C 
HETATM    9  C   UNK N   1       1.134   0.380  -0.342  0.00  0.00     0.011 C 
HETATM   10  C   UNK N   1      -1.219  -0.166  -2.122  0.00  0.00     0.027 C 
HETATM   11  C   UNK N   1       3.622   1.228  -1.454  0.00  0.00     0.263 C 
HETATM   12  C   UNK N   1      -2.213   1.438  -3.785  0.00  0.00     0.143 C 
HETATM   13  C   UNK N   1      -1.820   0.017  -5.677  0.00  0.00     0.146 C 
HETATM   14  C   UNK N   1       0.140   0.907  -4.151  0.00  0.00     0.054 C 
HETATM   15  C   UNK N   1       1.181   0.645  -1.860  0.00  0.00    -0.057 C 
HETATM   16  C   UNK N   1       0.091   0.430  -2.681  0.00  0.00    -0.070 C 
HETATM   17  C   UNK N   1      -2.351  -1.256  -5.012  0.00  0.00     0.021 C 
HETATM   18  C   UNK N   1      -0.072  -0.506   0.054  0.00  0.00     0.017 C 
HETATM   19  C   UNK N   1      -1.355  -0.006  -0.601  0.00  0.00     0.011 C 
HETATM   20  C   UNK N   1       1.008   1.756   0.384  0.00  0.00     0.023 C 
HETATM   21  C   UNK N   1       2.461   1.264  -2.421  0.00  0.00     0.146 C 
HETATM   22  C   UNK N   1      -3.183  -2.074  -6.041  0.00  0.00     0.023 C 
HETATM   23  C   UNK N   1      -1.155  -2.184  -4.676  0.00  0.00     0.023 C 
ENDROOT
BRANCH   7  24
HETATM   24  C   UNK N   1      -4.700  -0.392  -3.999  0.00  0.00     0.237 C 
BRANCH  24  25
HETATM   25  O   UNK N   1      -5.421  -1.389  -4.634  0.00  0.00    -0.306 OA
BRANCH  25  26
HETATM   26  C   UNK N   1      -6.700  -1.250  -5.079  0.00  0.00     0.255 C 
HETATM   27  O   UNK N   1      -7.279  -0.174  -4.996  0.00  0.00    -0.266 OA
HETATM   28  C   UNK N   1      -7.403  -2.426  -5.669  0.00  0.00     0.126 C 
ENDBRANCH  25  26
ENDBRANCH  24  25
BRANCH  24  29
HETATM   29  C   UNK N   1      -5.422  -0.101  -2.696  0.00  0.00     0.288 C 
HETATM   30  O   UNK N   1      -5.869   1.015  -2.477  0.00  0.00    -0.262 OA
BRANCH  29  31
HETATM   31  O   UNK N   1      -5.552  -1.097  -1.779  0.00  0.00    -0.324 OA
HETATM   32  C   UNK N   1      -6.151  -0.931  -0.550  0.00  0.00     0.213 C 
ENDBRANCH  29  31
ENDBRANCH  24  29
ENDBRANCH   7  24
BRANCH   6  33
HETATM   33  C   UNK N   1       2.593  -0.668   1.510  0.00  0.00    -0.004 A 
HETATM   34  C   UNK N   1       2.000  -1.762   2.108  0.00  0.00     0.151 A 
HETATM   35  O   UNK N   1       2.320  -1.784   3.382  0.00  0.00    -0.334 OA
HETATM   36  C   UNK N   1       3.097  -0.758   3.652  0.00  0.00     0.142 A 
HETATM   37  C   UNK N   1       3.305  -0.025   2.502  0.00  0.00     0.036 A 
ENDBRANCH   6  33
TORSDOF 6
