REMARK  9 active torsions:
REMARK  status: ('A' for Active; 'I' for Inactive)
REMARK    1  A    between atoms: O_1  and  C_6 
REMARK    2  A    between atoms: O_2  and  C_7 
REMARK    3  A    between atoms: O_3  and  C_8 
REMARK    4  A    between atoms: C_4  and  C_6 
REMARK    5  A    between atoms: C_5  and  C_11 
REMARK    6  A    between atoms: C_7  and  C_13 
REMARK    7  A    between atoms: C_8  and  C_14 
REMARK    8  A    between atoms: C_11  and  C_17 
REMARK    9  A    between atoms: C_13  and  C_17 
ROOT
HETATM    1  C   UNK N   1       2.771   1.882  -1.512  0.00  0.00    -0.015 C 
HETATM    2  C   UNK N   1       1.467   1.123  -1.049  0.00  0.00     0.024 C 
HETATM    3  C   UNK N   1       1.503   1.023   0.471  0.00  0.00    -0.084 C 
HETATM    4  C   UNK N   1       2.904   3.233  -0.734  0.00  0.00     0.012 C 
HETATM    5  C   UNK N   1       2.742   2.183  -3.031  0.00  0.00     0.018 C 
HETATM    6  C   UNK N   1       1.465  -0.166   1.092  0.00  0.00     0.014 C 
HETATM    7  C   UNK N   1       1.633   2.308   1.257  0.00  0.00     0.034 C 
HETATM    8  C   UNK N   1       2.902   3.038   0.797  0.00  0.00     0.005 C 
ENDROOT
BRANCH   2   9
HETATM    9  C   UNK N   1       0.132   1.778  -1.507  0.00  0.00     0.014 C 
BRANCH   9  10
HETATM   10  C   UNK N   1      -1.084   0.892  -1.177  0.00  0.00     0.037 C 
BRANCH  10  11
HETATM   11  C   UNK N   1      -2.360   1.509  -1.718  0.00  0.00    -0.058 C 
HETATM   12  C   UNK N   1      -3.001   0.907  -2.750  0.00  0.00     0.004 C 
BRANCH  11  13
HETATM   13  C   UNK N   1      -2.869   2.790  -1.085  0.00  0.00     0.198 C 
BRANCH  13  14
HETATM   14  O   UNK N   1      -4.151   2.606  -0.546  0.00  0.00    -0.397 OA
HETATM   15  H   UNK N   1      -4.060   1.953   0.196  0.00  0.00     0.209 HD
ENDBRANCH  13  14
ENDBRANCH  11  13
BRANCH  12  16
HETATM   16  C   UNK N   1      -4.256   1.431  -3.406  0.00  0.00     0.191 C 
BRANCH  16  17
HETATM   17  O   UNK N   1      -5.262   0.458  -3.356  0.00  0.00    -0.397 OA
HETATM   18  H   UNK N   1      -5.658   0.503  -2.446  0.00  0.00     0.209 HD
ENDBRANCH  16  17
ENDBRANCH  12  16
ENDBRANCH  10  11
ENDBRANCH   9  10
ENDBRANCH   2   9
BRANCH   1  19
HETATM   19  C   UNK N   1       4.001   0.957  -1.244  0.00  0.00     0.173 C 
BRANCH  19  20
HETATM   20  O   UNK N   1       5.208   1.588  -1.589  0.00  0.00    -0.400 OA
HETATM   21  H   UNK N   1       5.467   1.258  -2.489  0.00  0.00     0.209 HD
ENDBRANCH  19  20
ENDBRANCH   1  19
TORSDOF 9
