REMARK  7 active torsions:
REMARK  status: ('A' for Active; 'I' for Inactive)
REMARK    1  A    between atoms: O_1  and  C_7 
REMARK    2  A    between atoms: O_2  and  C_8 
REMARK    3  A    between atoms: C_3  and  C_10 
REMARK    4  A    between atoms: C_6  and  C_7 
REMARK    5  A    between atoms: C_8  and  C_17 
REMARK    6  A    between atoms: C_10  and  C_19 
REMARK    7  A    between atoms: C_16  and  C_19 
ROOT
HETATM    1  C   UNK N   1       0.946  -0.463  -0.368  0.00  0.00    -0.034 C 
HETATM    2  C   UNK N   1       0.310  -0.026   1.028  0.00  0.00     0.007 C 
HETATM    3  C   UNK N   1       1.300   0.495   2.151  0.00  0.00    -0.017 C 
HETATM    4  C   UNK N   1       1.896   0.711  -0.853  0.00  0.00     0.018 C 
HETATM    5  C   UNK N   1       0.471   1.062   3.328  0.00  0.00    -0.079 C 
HETATM    6  C   UNK N   1      -0.659  -1.049   1.653  0.00  0.00     0.010 C 
HETATM    7  C   UNK N   1       2.161   1.611   1.504  0.00  0.00     0.014 C 
HETATM    8  C   UNK N   1       2.900   1.138   0.242  0.00  0.00     0.009 C 
HETATM    9  C   UNK N   1       1.719  -1.810  -0.283  0.00  0.00     0.016 C 
HETATM   10  C   UNK N   1       2.239  -0.561   2.802  0.00  0.00     0.020 C 
HETATM   11  C   UNK N   1      -0.795   0.646   3.567  0.00  0.00    -0.024 C 
HETATM   12  C   UNK N   1      -1.522  -0.369   2.722  0.00  0.00     0.028 C 
HETATM   13  C   UNK N   1       1.071   2.103   4.253  0.00  0.00     0.044 C 
ENDROOT
BRANCH   1  14
HETATM   14  C   UNK N   1      -0.198  -0.717  -1.431  0.00  0.00     0.014 C 
BRANCH  14  15
HETATM   15  C   UNK N   1      -1.126   0.480  -1.733  0.00  0.00     0.034 C 
BRANCH  15  16
HETATM   16  C   UNK N   1      -2.167   0.134  -2.770  0.00  0.00    -0.086 C 
HETATM   17  C   UNK N   1      -3.356  -0.364  -2.348  0.00  0.00     0.001 C 
HETATM   18  C   UNK N   1      -1.812   0.405  -4.216  0.00  0.00     0.043 C 
BRANCH  17  19
HETATM   19  C   UNK N   1      -4.538  -0.719  -3.216  0.00  0.00     0.191 C 
BRANCH  19  20
HETATM   20  O   UNK N   1      -5.654   0.023  -2.810  0.00  0.00    -0.397 OA
HETATM   21  H   UNK N   1      -5.464   0.971  -3.041  0.00  0.00     0.209 HD
ENDBRANCH  19  20
ENDBRANCH  17  19
ENDBRANCH  15  16
ENDBRANCH  14  15
ENDBRANCH   1  14
BRANCH   4  22
HETATM   22  C   UNK N   1       2.648   0.419  -2.180  0.00  0.00     0.169 C 
BRANCH  22  23
HETATM   23  O   UNK N   1       3.427   1.518  -2.574  0.00  0.00    -0.400 OA
HETATM   24  H   UNK N   1       2.794   2.235  -2.841  0.00  0.00     0.209 HD
ENDBRANCH  22  23
ENDBRANCH   4  22
TORSDOF 7
