REMARK  7 active torsions:
REMARK  status: ('A' for Active; 'I' for Inactive)
REMARK    1  A    between atoms: O_3  and  C_14 
REMARK    2  A    between atoms: O_3  and  C_22 
REMARK    3  A    between atoms: O_4  and  C_16 
REMARK    4  A    between atoms: O_4  and  C_23 
REMARK    5  A    between atoms: O_5  and  C_15 
REMARK    6  A    between atoms: C_11  and  C_17 
REMARK    7  A    between atoms: C_19  and  C_24 
ROOT
HETATM    1  C   UNK N   1      -3.392   0.775  -2.215  0.00  0.00     0.135 C 
HETATM    2  C   UNK N   1       3.118   1.286  -0.217  0.00  0.00     0.070 C 
HETATM    3  C   UNK N   1      -1.117   1.772  -1.504  0.00  0.00     0.087 C 
HETATM    4  C   UNK N   1       5.081   0.088   0.589  0.00  0.00     0.032 C 
HETATM    5  C   UNK N   1       3.524  -0.035   0.496  0.00  0.00    -0.005 C 
HETATM    6  C   UNK N   1      -0.696   0.381  -0.866  0.00  0.00     0.049 C 
HETATM    7  C   UNK N   1       1.570   1.461  -0.188  0.00  0.00     0.026 C 
HETATM    8  C   UNK N   1       0.881   0.251  -0.930  0.00  0.00     0.011 C 
HETATM    9  C   UNK N   1      -2.671   1.909  -1.450  0.00  0.00     0.072 C 
HETATM   10  C   UNK N   1      -2.937  -0.600  -1.714  0.00  0.00     0.034 C 
HETATM   11  C   UNK N   1       3.969   2.308   0.559  0.00  0.00     0.040 C 
HETATM   12  C   UNK N   1      -0.426   2.934  -0.727  0.00  0.00     0.040 C 
HETATM   13  C   UNK N   1       5.350   1.627   0.618  0.00  0.00     0.013 C 
HETATM   14  C   UNK N   1      -1.396  -0.746  -1.706  0.00  0.00     0.022 C 
HETATM   15  C   UNK N   1       2.938  -1.223  -0.314  0.00  0.00     0.013 C 
HETATM   16  C   UNK N   1       1.104   2.802  -0.793  0.00  0.00     0.011 C 
HETATM   17  C   UNK N   1       1.393  -1.127  -0.385  0.00  0.00     0.007 C 
HETATM   18  C   UNK N   1       3.018  -0.161   1.986  0.00  0.00     0.019 C 
ENDROOT
BRANCH   4  19
HETATM   19  C   UNK N   1       5.895  -0.705  -0.442  0.00  0.00    -0.030 A 
HETATM   20  C   UNK N   1       6.229  -0.219  -1.726  0.00  0.00     0.153 A 
HETATM   21  O   UNK N   1       6.955  -0.954  -2.563  0.00  0.00    -0.287 OA
HETATM   22  C   UNK N   1       7.393  -2.172  -2.255  0.00  0.00     0.287 A 
HETATM   23  O   UNK N   1       8.056  -2.797  -3.060  0.00  0.00    -0.260 OA
HETATM   24  C   UNK N   1       7.091  -2.731  -1.013  0.00  0.00     0.083 A 
HETATM   25  C   UNK N   1       6.342  -1.993  -0.104  0.00  0.00     0.015 A 
ENDBRANCH   4  19
BRANCH   2  26
HETATM   26  O   UNK N   1       3.552   1.242  -1.563  0.00  0.00    -0.389 OA
HETATM   27  H   UNK N   1       3.569   2.165  -1.924  0.00  0.00     0.210 HD
ENDBRANCH   2  26
BRANCH   6  28
HETATM   28  C   UNK N   1      -1.121   0.280   0.617  0.00  0.00     0.244 C 
HETATM   29  O   UNK N   1      -1.790  -0.652   1.034  0.00  0.00    -0.306 OA
ENDBRANCH   6  28
BRANCH   3  30
HETATM   30  O   UNK N   1      -0.684   1.790  -2.834  0.00  0.00    -0.309 OA
BRANCH  30  31
HETATM   31  C   UNK N   1      -0.810   2.802  -3.741  0.00  0.00     0.255 C 
HETATM   32  O   UNK N   1      -1.365   3.851  -3.450  0.00  0.00    -0.266 OA
HETATM   33  C   UNK N   1      -0.250   2.623  -5.113  0.00  0.00     0.126 C 
ENDBRANCH  30  31
ENDBRANCH   3  30
BRANCH   1  34
HETATM   34  O   UNK N   1      -3.163   0.870  -3.581  0.00  0.00    -0.316 OA
BRANCH  34  35
HETATM   35  C   UNK N   1      -4.145   1.042  -4.512  0.00  0.00     0.255 C 
HETATM   36  O   UNK N   1      -5.313   1.188  -4.178  0.00  0.00    -0.266 OA
HETATM   37  C   UNK N   1      -3.794   1.044  -5.965  0.00  0.00     0.126 C 
ENDBRANCH  34  35
ENDBRANCH   1  34
TORSDOF 7
