REMARK  5 active torsions:
REMARK  status: ('A' for Active; 'I' for Inactive)
REMARK    1  A    between atoms: O_3  and  C_8 
REMARK    2  A    between atoms: O_4  and  C_9 
REMARK    3  A    between atoms: O_5  and  C_10 
REMARK    4  A    between atoms: C_7  and  C_17 
REMARK    5  A    between atoms: C_11  and  C_18 
ROOT
HETATM    1  C   UNK N   1      -0.292   0.533   0.032  0.00  0.00     0.038 C 
HETATM    2  C   UNK N   1      -0.876   0.659  -1.173  0.00  0.00     0.014 C 
ENDROOT
BRANCH   2   3
HETATM    3  C   UNK N   1      -2.351   0.705  -1.353  0.00  0.00    -0.033 A 
HETATM    4  C   UNK N   1      -2.889   0.398  -2.612  0.00  0.00     0.050 A 
HETATM    5  C   UNK N   1      -4.277   0.407  -2.816  0.00  0.00     0.099 A 
HETATM    6  C   UNK N   1      -5.135   0.755  -1.764  0.00  0.00     0.098 A 
HETATM    7  C   UNK N   1      -4.603   1.082  -0.510  0.00  0.00     0.040 A 
HETATM    8  C   UNK N   1      -3.224   1.050  -0.301  0.00  0.00     0.014 A 
BRANCH   5   9
HETATM    9  O   UNK N   1      -4.792   0.076  -4.019  0.00  0.00    -0.358 OA
HETATM   10  H   UNK N   1      -4.228  -0.196  -4.756  0.00  0.00     0.218 HD
ENDBRANCH   5   9
BRANCH   6  11
HETATM   11  O   UNK N   1      -6.469   0.772  -1.964  0.00  0.00    -0.358 OA
HETATM   12  H   UNK N   1      -7.085   1.011  -1.256  0.00  0.00     0.218 HD
ENDBRANCH   6  11
ENDBRANCH   2   3
BRANCH   1  13
HETATM   13  C   UNK N   1       1.174   0.492   0.185  0.00  0.00     0.082 A 
HETATM   14  O   UNK N   1       1.968   0.722  -0.860  0.00  0.00    -0.276 OA
HETATM   15  C   UNK N   1       3.297   0.723  -0.765  0.00  0.00     0.290 A 
HETATM   16  O   UNK N   1       3.973   0.949  -1.749  0.00  0.00    -0.260 OA
HETATM   17  C   UNK N   1       3.914   0.470   0.466  0.00  0.00     0.119 A 
HETATM   18  C   UNK N   1       3.116   0.216   1.583  0.00  0.00     0.074 A 
HETATM   19  C   UNK N   1       1.730   0.229   1.445  0.00  0.00     0.074 A 
BRANCH  18  20
HETATM   20  O   UNK N   1       3.666  -0.037   2.788  0.00  0.00    -0.360 OA
HETATM   21  H   UNK N   1       4.625  -0.049   2.916  0.00  0.00     0.217 HD
ENDBRANCH  18  20
ENDBRANCH   1  13
TORSDOF 5
