REMARK  9 active torsions:
REMARK  status: ('A' for Active; 'I' for Inactive)
REMARK    1  A    between atoms: O_1  and  C_5 
REMARK    2  A    between atoms: O_2  and  C_6 
REMARK    3  A    between atoms: O_3  and  C_7 
REMARK    4  A    between atoms: O_4  and  C_15 
REMARK    5  A    between atoms: C_6  and  C_7 
REMARK    6  A    between atoms: C_6  and  C_15 
REMARK    7  A    between atoms: C_7  and  C_19 
REMARK    8  A    between atoms: C_10  and  C_14 
REMARK    9  A    between atoms: C_14  and  C_19 
ROOT
HETATM    1  C   UNK N   1       4.607   2.098  -1.216  0.00  0.00     0.126 C 
HETATM    2  C   UNK N   1      -2.065   1.062  -0.115  0.00  0.00    -0.029 C 
HETATM    3  C   UNK N   1       2.140   0.338  -1.408  0.00  0.00    -0.032 C 
HETATM    4  C   UNK N   1      -3.337   1.658   0.567  0.00  0.00    -0.002 C 
HETATM    5  C   UNK N   1      -0.949   1.468   0.913  0.00  0.00    -0.013 C 
HETATM    6  C   UNK N   1       3.171   0.211  -0.229  0.00  0.00     0.008 C 
HETATM    7  C   UNK N   1       0.855   1.155  -0.965  0.00  0.00     0.023 C 
HETATM    8  C   UNK N   1       4.009   1.522   0.114  0.00  0.00    -0.017 C 
HETATM    9  C   UNK N   1       3.521   2.332  -2.283  0.00  0.00     0.033 C 
HETATM   10  C   UNK N   1       0.387   0.842   0.473  0.00  0.00    -0.070 C 
HETATM   11  C   UNK N   1       2.835   1.001  -2.632  0.00  0.00     0.012 C 
HETATM   12  C   UNK N   1      -1.647   1.645  -1.508  0.00  0.00     0.011 C 
HETATM   13  C   UNK N   1      -3.078   1.383   2.086  0.00  0.00     0.007 C 
HETATM   14  C   UNK N   1      -1.582   1.017   2.236  0.00  0.00     0.015 C 
HETATM   15  C   UNK N   1      -0.323   1.018  -1.986  0.00  0.00     0.010 C 
HETATM   16  C   UNK N   1       2.481  -0.472   0.985  0.00  0.00     0.033 C 
HETATM   17  C   UNK N   1      -2.263  -0.494  -0.233  0.00  0.00     0.016 C 
HETATM   18  C   UNK N   1       1.748  -1.108  -1.849  0.00  0.00     0.016 C 
HETATM   19  C   UNK N   1      -0.686   3.008   1.065  0.00  0.00     0.021 C 
HETATM   20  C   UNK N   1       1.123   0.087   1.324  0.00  0.00    -0.022 C 
HETATM   21  C   UNK N   1       3.225   2.625   0.872  0.00  0.00     0.018 C 
HETATM   22  C   UNK N   1       5.205   1.153   1.041  0.00  0.00     0.018 C 
ENDROOT
BRANCH   4  23
HETATM   23  C   UNK N   1      -4.779   1.242   0.104  0.00  0.00    -0.011 C 
HETATM   24  C   UNK N   1      -5.841   1.932   0.987  0.00  0.00     0.010 C 
BRANCH  23  25
HETATM   25  C   UNK N   1      -5.010   1.582  -1.393  0.00  0.00     0.039 C 
BRANCH  25  26
HETATM   26  C   UNK N   1      -6.408   1.288  -1.990  0.00  0.00     0.150 C 
BRANCH  26  27
HETATM   27  O   UNK N   1      -6.449   1.739  -3.323  0.00  0.00    -0.393 OA
HETATM   28  H   UNK N   1      -5.685   1.344  -3.819  0.00  0.00     0.210 HD
ENDBRANCH  26  27
BRANCH  26  29
HETATM   29  C   UNK N   1      -6.812  -0.217  -1.876  0.00  0.00     0.180 C 
BRANCH  29  30
HETATM   30  O   UNK N   1      -5.857  -1.054  -2.486  0.00  0.00    -0.390 OA
HETATM   31  H   UNK N   1      -5.832  -0.855  -3.455  0.00  0.00     0.210 HD
ENDBRANCH  29  30
BRANCH  29  32
HETATM   32  C   UNK N   1      -8.268  -0.596  -2.325  0.00  0.00     0.079 C 
HETATM   33  C   UNK N   1      -8.531  -0.337  -3.822  0.00  0.00     0.048 C 
HETATM   34  C   UNK N   1      -9.319   0.187  -1.508  0.00  0.00     0.048 C 
BRANCH  32  35
HETATM   35  O   UNK N   1      -8.459  -1.976  -2.109  0.00  0.00    -0.388 OA
HETATM   36  H   UNK N   1      -8.353  -2.158  -1.138  0.00  0.00     0.210 HD
ENDBRANCH  32  35
ENDBRANCH  29  32
ENDBRANCH  26  29
ENDBRANCH  25  26
ENDBRANCH  23  25
ENDBRANCH   4  23
BRANCH   1  37
HETATM   37  O   UNK N   1       5.568   1.208  -1.737  0.00  0.00    -0.395 OA
HETATM   38  H   UNK N   1       6.074   1.701  -2.435  0.00  0.00     0.210 HD
ENDBRANCH   1  37
TORSDOF 9
