REMARK  9 active torsions:
REMARK  status: ('A' for Active; 'I' for Inactive)
REMARK    1  A    between atoms: O_1  and  C_10 
REMARK    2  A    between atoms: O_2  and  C_11 
REMARK    3  A    between atoms: O_3  and  C_12 
REMARK    4  A    between atoms: O_5  and  C_23 
REMARK    5  A    between atoms: O_6  and  C_24 
REMARK    6  A    between atoms: O_7  and  C_25 
REMARK    7  A    between atoms: O_9  and  C_29 
REMARK    8  A    between atoms: C_22  and  C_27 
REMARK    9  A    between atoms: C_26  and  C_29 
ROOT
HETATM    1  O   UNK N   1      -1.655  -2.000  -2.861  0.00  0.00    -0.286 OA
HETATM    2  C   UNK N   1      -3.560   0.114  -3.277  0.00  0.00     0.116 A 
HETATM    3  C   UNK N   1      -4.424   1.242  -3.370  0.00  0.00     0.100 A 
HETATM    4  C   UNK N   1       0.176  -1.897  -0.659  0.00  0.00     0.081 A 
HETATM    5  C   UNK N   1       0.015   0.527  -0.902  0.00  0.00    -0.029 A 
HETATM    6  C   UNK N   1      -1.906   1.527  -2.153  0.00  0.00    -0.030 A 
HETATM    7  C   UNK N   1      -2.303   0.264  -2.635  0.00  0.00     0.058 A 
HETATM    8  C   UNK N   1      -0.367  -0.768  -1.316  0.00  0.00     0.055 A 
HETATM    9  C   UNK N   1       1.442  -0.434   0.820  0.00  0.00    -0.059 A 
HETATM   10  C   UNK N   1       1.078  -1.720   0.402  0.00  0.00     0.044 A 
HETATM   11  C   UNK N   1      -4.029   2.472  -2.828  0.00  0.00     0.040 A 
HETATM   12  C   UNK N   1       0.916   0.685   0.162  0.00  0.00     0.015 A 
HETATM   13  C   UNK N   1      -2.782   2.616  -2.232  0.00  0.00     0.012 A 
HETATM   14  C   UNK N   1      -0.488   1.744  -1.660  0.00  0.00     0.085 C 
HETATM   15  C   UNK N   1      -1.408  -0.906  -2.377  0.00  0.00     0.199 C 
HETATM   16  C   UNK N   1       2.392  -0.246   1.967  0.00  0.00     0.048 C 
ENDROOT
BRANCH  14  17
HETATM   17  C   UNK N   1       0.488   2.015  -2.864  0.00  0.00     0.166 C 
HETATM   18  O   UNK N   1       1.776   2.269  -2.314  0.00  0.00    -0.372 OA
HETATM   19  C   UNK N   1       2.773   2.389  -3.319  0.00  0.00     0.176 C 
HETATM   20  C   UNK N   1       2.499   3.641  -4.184  0.00  0.00     0.180 C 
HETATM   21  C   UNK N   1       1.124   3.509  -4.840  0.00  0.00     0.180 C 
HETATM   22  C   UNK N   1       0.063   3.228  -3.761  0.00  0.00     0.179 C 
BRANCH  19  23
HETATM   23  C   UNK N   1       4.140   2.507  -2.632  0.00  0.00     0.198 C 
BRANCH  23  24
HETATM   24  O   UNK N   1       4.414   1.358  -1.877  0.00  0.00    -0.398 OA
HETATM   25  H   UNK N   1       3.899   1.440  -1.033  0.00  0.00     0.209 HD
ENDBRANCH  23  24
ENDBRANCH  19  23
BRANCH  20  26
HETATM   26  O   UNK N   1       3.495   3.832  -5.160  0.00  0.00    -0.390 OA
HETATM   27  H   UNK N   1       3.511   3.025  -5.739  0.00  0.00     0.210 HD
ENDBRANCH  20  26
BRANCH  21  28
HETATM   28  O   UNK N   1       0.824   4.694  -5.535  0.00  0.00    -0.390 OA
HETATM   29  H   UNK N   1       0.025   4.510  -6.095  0.00  0.00     0.210 HD
ENDBRANCH  21  28
BRANCH  22  30
HETATM   30  O   UNK N   1      -1.171   3.021  -4.400  0.00  0.00    -0.390 OA
HETATM   31  H   UNK N   1      -1.108   2.171  -4.912  0.00  0.00     0.210 HD
ENDBRANCH  22  30
ENDBRANCH  14  17
BRANCH   4  32
HETATM   32  O   UNK N   1      -0.190  -3.145  -1.022  0.00  0.00    -0.360 OA
HETATM   33  H   UNK N   1       0.150  -3.931  -0.570  0.00  0.00     0.217 HD
ENDBRANCH   4  32
BRANCH   2  34
HETATM   34  O   UNK N   1      -3.890  -1.112  -3.774  0.00  0.00    -0.352 OA
HETATM   35  C   UNK N   1      -4.882  -1.410  -4.686  0.00  0.00     0.210 C 
ENDBRANCH   2  34
BRANCH   3  36
HETATM   36  O   UNK N   1      -5.634   1.147  -3.957  0.00  0.00    -0.358 OA
HETATM   37  H   UNK N   1      -6.239   1.902  -4.012  0.00  0.00     0.218 HD
ENDBRANCH   3  36
TORSDOF 9
