REMARK  9 active torsions:
REMARK  status: ('A' for Active; 'I' for Inactive)
REMARK    1  A    between atoms: O_2  and  C_9 
REMARK       I    between atoms: N_5  and  C_10 
REMARK    2  A    between atoms: N_5  and  C_11 
REMARK    3  A    between atoms: N_5  and  C_12 
REMARK       I    between atoms: N_6  and  C_8 
REMARK    4  A    between atoms: N_6  and  C_13 
REMARK       I    between atoms: N_7  and  C_10 
REMARK    5  A    between atoms: C_9  and  C_14 
REMARK    6  A    between atoms: C_11  and  C_15 
REMARK    7  A    between atoms: C_12  and  C_16 
REMARK    8  A    between atoms: C_13  and  C_17 
REMARK    9  A    between atoms: C_16  and  C_17 
ROOT
HETATM    1  N   UNK N   1       0.463  -2.314  -0.237  0.00  0.00    -0.235 N 
ATOM      2  HN  UNK N   1       0.528  -3.218  -0.705  1.00  0.00     0.174 HD
HETATM    3  N   UNK N   1      -0.854  -0.478   0.524  0.00  0.00    -0.215 N 
HETATM    4  N   UNK N   1      -1.803  -2.401  -0.756  0.00  0.00    -0.235 N 
HETATM    5  C   UNK N   1      -0.689  -1.746  -0.157  0.00  0.00     0.667 C 
HETATM    6  H   UNK N   1       1.319  -1.900   0.148  0.00  0.00     0.174 HD
HETATM    7  H   UNK N   1      -2.758  -2.031  -0.678  0.00  0.00     0.174 HD
HETATM    8  H   UNK N   1      -1.668  -3.302  -1.238  0.00  0.00     0.174 HD
ENDROOT
BRANCH   3   9
HETATM    9  C   UNK N   1       0.152  -0.010   1.478  0.00  0.00     0.169 C 
BRANCH   9  10
HETATM   10  C   UNK N   1       1.162   0.887   0.800  0.00  0.00    -0.002 C 
HETATM   11  C   UNK N   1       2.510   0.716   0.784  0.00  0.00    -0.063 C 
HETATM   12  C   UNK N   1       3.238  -0.427   1.460  0.00  0.00     0.045 C 
BRANCH  11  13
HETATM   13  C   UNK N   1       3.364   1.730   0.055  0.00  0.00     0.197 C 
BRANCH  13  14
HETATM   14  O   UNK N   1       4.097   1.109  -0.965  0.00  0.00    -0.397 OA
HETATM   15  H   UNK N   1       3.444   0.862  -1.671  0.00  0.00     0.209 HD
ENDBRANCH  13  14
ENDBRANCH  11  13
ENDBRANCH   9  10
ENDBRANCH   3   9
BRANCH   3  16
HETATM   16  C   UNK N   1      -2.051   0.335   0.303  0.00  0.00     0.141 C 
BRANCH  16  17
HETATM   17  C   UNK N   1      -2.111   0.807  -1.161  0.00  0.00     0.022 C 
BRANCH  17  18
HETATM   18  C   UNK N   1      -3.338   1.689  -1.449  0.00  0.00     0.021 C 
BRANCH  18  19
HETATM   19  C   UNK N   1      -3.297   2.221  -2.893  0.00  0.00     0.122 C 
BRANCH  19  20
HETATM   20  N   UNK N   1      -3.368   1.150  -3.873  0.00  0.00    -0.361 N 
HETATM   21  C   UNK N   1      -4.526   0.487  -4.152  0.00  0.00     0.213 C 
HETATM   22  O   UNK N   1      -5.566   0.790  -3.584  0.00  0.00    -0.274 OA
HETATM   23  C   UNK N   1      -4.549  -0.601  -5.187  0.00  0.00     0.117 C 
HETATM   24  H   UNK N   1      -2.516   0.921  -4.408  0.00  0.00     0.162 HD
ENDBRANCH  19  20
ENDBRANCH  18  19
ENDBRANCH  17  18
ENDBRANCH  16  17
ENDBRANCH   3  16
TORSDOF 9
