REMARK  9 active torsions:
REMARK  status: ('A' for Active; 'I' for Inactive)
REMARK    1  A    between atoms: O_2  and  C_12 
REMARK    2  A    between atoms: O_3  and  C_13 
REMARK    3  A    between atoms: O_4  and  C_14 
REMARK    4  A    between atoms: O_5  and  C_23 
REMARK    5  A    between atoms: O_5  and  C_28 
REMARK    6  A    between atoms: O_7  and  C_25 
REMARK    7  A    between atoms: O_8  and  C_26 
REMARK    8  A    between atoms: O_9  and  C_27 
REMARK    9  A    between atoms: C_15  and  C_24 
ROOT
HETATM    1  O   UNK N   1      -1.849   1.001   0.646  0.00  0.00    -0.337 OA
HETATM    2  O   UNK N   1      -2.257  -0.241  -3.114  0.00  0.00    -0.289 OA
HETATM    3  C   UNK N   1      -3.014   1.328   0.024  0.00  0.00     0.089 A 
HETATM    4  C   UNK N   1      -4.454   1.237  -1.941  0.00  0.00     0.085 A 
HETATM    5  C   UNK N   1      -5.246   2.273   0.115  0.00  0.00     0.071 A 
HETATM    6  C   UNK N   1      -3.217   0.965  -1.322  0.00  0.00     0.079 A 
HETATM    7  C   UNK N   1      -4.018   1.993   0.733  0.00  0.00     0.074 A 
HETATM    8  C   UNK N   1      -5.462   1.890  -1.213  0.00  0.00     0.074 A 
HETATM    9  C   UNK N   1      -1.029  -0.008   0.153  0.00  0.00     0.198 C 
HETATM   10  C   UNK N   1      -0.739   0.224  -1.344  0.00  0.00     0.233 C 
HETATM   11  C   UNK N   1      -2.096   0.287  -2.024  0.00  0.00     0.196 C 
ENDROOT
BRANCH  10  12
HETATM   12  O   UNK N   1      -0.013   1.441  -1.483  0.00  0.00    -0.343 OA
BRANCH  12  13
HETATM   13  C   UNK N   1       0.300   1.732  -2.844  0.00  0.00     0.292 C 
HETATM   14  O   UNK N   1       1.049   0.695  -3.471  0.00  0.00    -0.351 OA
HETATM   15  C   UNK N   1       2.312   0.492  -2.850  0.00  0.00     0.152 C 
HETATM   16  C   UNK N   1       3.192   1.764  -2.943  0.00  0.00     0.178 C 
HETATM   17  C   UNK N   1       2.986  -0.686  -3.559  0.00  0.00     0.042 C 
HETATM   18  C   UNK N   1       2.431   2.945  -2.313  0.00  0.00     0.183 C 
HETATM   19  C   UNK N   1       1.042   3.076  -2.962  0.00  0.00     0.204 C 
BRANCH  16  20
HETATM   20  O   UNK N   1       4.405   1.584  -2.256  0.00  0.00    -0.390 OA
HETATM   21  H   UNK N   1       5.032   1.132  -2.878  0.00  0.00     0.210 HD
ENDBRANCH  16  20
BRANCH  18  22
HETATM   22  O   UNK N   1       3.159   4.146  -2.410  0.00  0.00    -0.390 OA
HETATM   23  H   UNK N   1       3.416   4.277  -3.360  0.00  0.00     0.210 HD
ENDBRANCH  18  22
BRANCH  19  24
HETATM   24  O   UNK N   1       1.165   3.399  -4.326  0.00  0.00    -0.388 OA
HETATM   25  H   UNK N   1       1.262   4.385  -4.387  0.00  0.00     0.210 HD
ENDBRANCH  19  24
ENDBRANCH  12  13
ENDBRANCH  10  12
BRANCH   9  26
HETATM   26  C   UNK N   1       0.225  -0.153   0.982  0.00  0.00    -0.026 A 
HETATM   27  C   UNK N   1       0.812   0.954   1.623  0.00  0.00     0.012 A 
HETATM   28  C   UNK N   1       1.964   0.787   2.399  0.00  0.00     0.037 A 
HETATM   29  C   UNK N   1       2.540  -0.480   2.543  0.00  0.00     0.065 A 
HETATM   30  C   UNK N   1       1.959  -1.584   1.905  0.00  0.00     0.037 A 
HETATM   31  C   UNK N   1       0.810  -1.421   1.129  0.00  0.00     0.012 A 
BRANCH  29  32
HETATM   32  O   UNK N   1       3.649  -0.628   3.296  0.00  0.00    -0.361 OA
HETATM   33  H   UNK N   1       4.071  -1.491   3.414  0.00  0.00     0.217 HD
ENDBRANCH  29  32
ENDBRANCH   9  26
BRANCH   4  34
HETATM   34  O   UNK N   1      -4.672   0.876  -3.223  0.00  0.00    -0.360 OA
HETATM   35  H   UNK N   1      -5.516   1.044  -3.665  0.00  0.00     0.217 HD
ENDBRANCH   4  34
BRANCH   5  36
HETATM   36  O   UNK N   1      -6.228   2.899   0.795  0.00  0.00    -0.361 OA
HETATM   37  H   UNK N   1      -6.117   3.169   1.717  0.00  0.00     0.217 HD
ENDBRANCH   5  36
TORSDOF 9
