REMARK  3 active torsions:
REMARK  status: ('A' for Active; 'I' for Inactive)
REMARK    1  A    between atoms: O_1  and  C_9 
REMARK    2  A    between atoms: O_2  and  C_12 
REMARK    3  A    between atoms: C_5  and  C_12 
ROOT
HETATM    1  C   UNK N   1       0.041   0.725  -0.408  0.00  0.00    -0.043 A 
HETATM    2  C   UNK N   1      -0.650  -0.194  -1.245  0.00  0.00    -0.050 A 
HETATM    3  C   UNK N   1      -2.465   1.426  -1.565  0.00  0.00    -0.024 A 
HETATM    4  C   UNK N   1      -0.555   1.982  -0.158  0.00  0.00     0.009 A 
HETATM    5  C   UNK N   1      -1.881   0.171  -1.816  0.00  0.00     0.018 A 
HETATM    6  C   UNK N   1      -1.780   2.326  -0.731  0.00  0.00     0.011 A 
HETATM    7  C   UNK N   1       3.826   1.067  -1.304  0.00  0.00     0.126 C 
HETATM    8  C   UNK N   1       1.354   0.310   0.282  0.00  0.00    -0.012 C 
HETATM    9  C   UNK N   1       2.149  -0.742  -0.589  0.00  0.00     0.009 C 
HETATM   10  C   UNK N   1      -0.101  -1.564  -1.592  0.00  0.00     0.039 C 
HETATM   11  C   UNK N   1       2.958  -0.129  -1.821  0.00  0.00    -0.017 C 
HETATM   12  C   UNK N   1       2.975   2.120  -0.575  0.00  0.00     0.033 C 
HETATM   13  C   UNK N   1       2.321   1.479   0.645  0.00  0.00     0.017 C 
HETATM   14  C   UNK N   1       1.221  -1.943  -0.905  0.00  0.00     0.011 C 
HETATM   15  C   UNK N   1       0.921  -0.298   1.646  0.00  0.00     0.021 C 
HETATM   16  C   UNK N   1       3.927  -1.206  -2.376  0.00  0.00     0.018 C 
HETATM   17  C   UNK N   1       2.082   0.352  -3.007  0.00  0.00     0.018 C 
ENDROOT
BRANCH   3  18
HETATM   18  C   UNK N   1      -3.822   1.813  -2.177  0.00  0.00     0.077 C 
HETATM   19  C   UNK N   1      -3.651   3.037  -3.092  0.00  0.00     0.051 C 
HETATM   20  C   UNK N   1      -4.847   2.151  -1.070  0.00  0.00     0.051 C 
BRANCH  18  21
HETATM   21  O   UNK N   1      -4.335   0.771  -2.978  0.00  0.00    -0.386 OA
HETATM   22  H   UNK N   1      -4.638   0.036  -2.382  0.00  0.00     0.211 HD
ENDBRANCH  18  21
ENDBRANCH   3  18
BRANCH   7  23
HETATM   23  O   UNK N   1       4.524   1.669  -2.367  0.00  0.00    -0.395 OA
HETATM   24  H   UNK N   1       5.173   2.306  -1.969  0.00  0.00     0.210 HD
ENDBRANCH   7  23
TORSDOF 3
