REMARK  4 active torsions:
REMARK  status: ('A' for Active; 'I' for Inactive)
REMARK    1  A    between atoms: O_1  and  C_6 
REMARK    2  A    between atoms: O_2  and  C_7 
REMARK    3  A    between atoms: O_3  and  C_8 
REMARK    4  A    between atoms: O_4  and  C_9 
ROOT
HETATM    1  N   UNK N   1       0.226   1.255  -2.570  0.00  0.00    -0.355 N 
HETATM    2  C   UNK N   1       3.096   0.687  -0.311  0.00  0.00     0.114 A 
HETATM    3  C   UNK N   1       3.337   0.137   0.969  0.00  0.00     0.102 A 
HETATM    4  C   UNK N   1      -4.589   0.462  -2.380  0.00  0.00     0.102 A 
HETATM    5  C   UNK N   1      -4.670   0.651  -3.774  0.00  0.00     0.099 A 
HETATM    6  C   UNK N   1      -0.808   0.672  -1.868  0.00  0.00     0.046 A 
HETATM    7  C   UNK N   1       1.499   1.253  -2.078  0.00  0.00     0.106 A 
HETATM    8  C   UNK N   1       1.786   0.682  -0.829  0.00  0.00     0.026 A 
HETATM    9  C   UNK N   1       0.738   0.097  -0.089  0.00  0.00    -0.020 A 
HETATM   10  C   UNK N   1      -2.164   0.636  -2.491  0.00  0.00    -0.000 A 
HETATM   11  C   UNK N   1      -2.254   0.842  -3.884  0.00  0.00    -0.041 A 
HETATM   12  C   UNK N   1      -3.341   0.438  -1.746  0.00  0.00     0.054 A 
HETATM   13  C   UNK N   1      -3.503   0.847  -4.516  0.00  0.00     0.047 A 
HETATM   14  C   UNK N   1       2.290  -0.452   1.687  0.00  0.00     0.040 A 
HETATM   15  C   UNK N   1      -0.557   0.092  -0.612  0.00  0.00     0.043 A 
HETATM   16  C   UNK N   1       1.001  -0.481   1.160  0.00  0.00     0.015 A 
HETATM   17  C   UNK N   1      -0.056   1.920  -3.857  0.00  0.00     0.133 C 
HETATM   18  C   UNK N   1      -0.988   1.042  -4.683  0.00  0.00     0.060 C 
ENDROOT
BRANCH   2  19
HETATM   19  O   UNK N   1       4.097   1.233  -1.050  0.00  0.00    -0.352 OA
HETATM   20  C   UNK N   1       5.257   0.557  -1.375  0.00  0.00     0.210 C 
ENDBRANCH   2  19
BRANCH   3  21
HETATM   21  O   UNK N   1       4.558   0.210   1.536  0.00  0.00    -0.353 OA
HETATM   22  C   UNK N   1       4.895   1.294   2.321  0.00  0.00     0.210 C 
ENDBRANCH   3  21
BRANCH   4  23
HETATM   23  O   UNK N   1      -5.710   0.329  -1.640  0.00  0.00    -0.353 OA
HETATM   24  C   UNK N   1      -6.410   1.443  -1.225  0.00  0.00     0.210 C 
ENDBRANCH   4  23
BRANCH   5  25
HETATM   25  O   UNK N   1      -5.860   0.645  -4.412  0.00  0.00    -0.358 OA
HETATM   26  H   UNK N   1      -6.693   0.469  -3.954  0.00  0.00     0.218 HD
ENDBRANCH   5  25
TORSDOF 4
