REMARK  9 active torsions:
REMARK  status: ('A' for Active; 'I' for Inactive)
REMARK    1  A    between atoms: O_3  and  C_15 
REMARK    2  A    between atoms: O_3  and  C_27 
REMARK    3  A    between atoms: O_4  and  C_16 
REMARK    4  A    between atoms: O_5  and  C_17 
REMARK    5  A    between atoms: O_7  and  C_28 
REMARK    6  A    between atoms: O_8  and  C_29 
REMARK    7  A    between atoms: O_9  and  C_30 
REMARK    8  A    between atoms: O_10  and  C_18 
REMARK    9  A    between atoms: C_12  and  C_20 
ROOT
HETATM    1  O   UNK N   1      -2.370   3.247   1.682  0.00  0.00    -0.306 OA
HETATM    2  O   UNK N   1       1.480   3.880   2.353  0.00  0.00    -0.284 OA
HETATM    3  C   UNK N   1      -1.536   3.037   0.664  0.00  0.00     0.124 A 
HETATM    4  C   UNK N   1      -1.990   3.660   2.882  0.00  0.00     0.096 A 
HETATM    5  C   UNK N   1       0.300   3.683   2.133  0.00  0.00     0.223 A 
HETATM    6  C   UNK N   1      -0.139   3.228   0.855  0.00  0.00     0.157 A 
HETATM    7  C   UNK N   1      -2.581   4.280   5.154  0.00  0.00     0.071 A 
HETATM    8  C   UNK N   1      -0.260   4.342   4.455  0.00  0.00     0.085 A 
HETATM    9  C   UNK N   1      -0.635   3.903   3.158  0.00  0.00     0.084 A 
HETATM   10  C   UNK N   1      -2.956   3.849   3.875  0.00  0.00     0.075 A 
HETATM   11  C   UNK N   1      -1.237   4.525   5.437  0.00  0.00     0.074 A 
ENDROOT
BRANCH   6  12
HETATM   12  O   UNK N   1       0.740   2.914  -0.151  0.00  0.00    -0.311 OA
BRANCH  12  13
HETATM   13  C   UNK N   1       2.051   2.502   0.051  0.00  0.00     0.298 C 
HETATM   14  O   UNK N   1       2.019   1.341   0.869  0.00  0.00    -0.351 OA
HETATM   15  C   UNK N   1       3.313   0.988   1.312  0.00  0.00     0.152 C 
HETATM   16  C   UNK N   1       4.214   0.629   0.103  0.00  0.00     0.178 C 
HETATM   17  C   UNK N   1       3.174  -0.212   2.251  0.00  0.00     0.042 C 
HETATM   18  C   UNK N   1       4.224   1.792  -0.915  0.00  0.00     0.183 C 
HETATM   19  C   UNK N   1       2.771   2.182  -1.272  0.00  0.00     0.205 C 
BRANCH  16  20
HETATM   20  O   UNK N   1       5.519   0.310   0.520  0.00  0.00    -0.390 OA
HETATM   21  H   UNK N   1       5.876   1.097   1.011  0.00  0.00     0.210 HD
ENDBRANCH  16  20
BRANCH  18  22
HETATM   22  O   UNK N   1       4.925   1.433  -2.077  0.00  0.00    -0.390 OA
HETATM   23  H   UNK N   1       5.885   1.380  -1.827  0.00  0.00     0.210 HD
ENDBRANCH  18  22
BRANCH  19  24
HETATM   24  O   UNK N   1       2.138   1.118  -1.937  0.00  0.00    -0.388 OA
HETATM   25  H   UNK N   1       1.286   1.474  -2.300  0.00  0.00     0.210 HD
ENDBRANCH  19  24
ENDBRANCH  12  13
ENDBRANCH   6  12
BRANCH   3  26
HETATM   26  C   UNK N   1      -2.158   2.561  -0.612  0.00  0.00     0.001 A 
HETATM   27  C   UNK N   1      -3.415   1.925  -0.539  0.00  0.00     0.017 A 
HETATM   28  C   UNK N   1      -4.058   1.469  -1.690  0.00  0.00     0.037 A 
HETATM   29  C   UNK N   1      -3.473   1.657  -2.942  0.00  0.00     0.065 A 
HETATM   30  C   UNK N   1      -2.230   2.299  -3.037  0.00  0.00     0.037 A 
HETATM   31  C   UNK N   1      -1.571   2.744  -1.883  0.00  0.00     0.017 A 
BRANCH  29  32
HETATM   32  O   UNK N   1      -4.116   1.224  -4.046  0.00  0.00    -0.361 OA
HETATM   33  H   UNK N   1      -3.749   1.347  -4.932  0.00  0.00     0.217 HD
ENDBRANCH  29  32
ENDBRANCH   3  26
BRANCH   8  34
HETATM   34  O   UNK N   1       1.026   4.585   4.768  0.00  0.00    -0.360 OA
ATOM     35  HO  UNK N   1       1.277   4.879   5.635  1.00  0.00     0.217 HD
ENDBRANCH   8  34
BRANCH   7  36
HETATM   36  O   UNK N   1      -3.507   4.460   6.117  0.00  0.00    -0.361 OA
HETATM   37  H   UNK N   1      -4.447   4.296   5.955  0.00  0.00     0.217 HD
ENDBRANCH   7  36
TORSDOF 9
