REMARK  9 active torsions:
REMARK  status: ('A' for Active; 'I' for Inactive)
REMARK    1  A    between atoms: O_3  and  C_14 
REMARK    2  A    between atoms: O_3  and  C_26 
REMARK    3  A    between atoms: O_4  and  C_15 
REMARK    4  A    between atoms: O_5  and  C_16 
REMARK    5  A    between atoms: O_6  and  C_17 
REMARK    6  A    between atoms: O_8  and  C_27 
REMARK    7  A    between atoms: O_9  and  C_28 
REMARK    8  A    between atoms: O_10  and  C_29 
REMARK    9  A    between atoms: C_11  and  C_19 
ROOT
HETATM    1  O   UNK N   1      -1.182   0.423  -1.092  0.00  0.00    -0.306 OA
HETATM    2  O   UNK N   1       0.752   2.261  -4.038  0.00  0.00    -0.284 OA
HETATM    3  C   UNK N   1       0.123   0.644  -0.961  0.00  0.00     0.124 A 
HETATM    4  C   UNK N   1      -1.881   0.822  -2.149  0.00  0.00     0.096 A 
HETATM    5  C   UNK N   1       0.142   1.715  -3.135  0.00  0.00     0.223 A 
HETATM    6  C   UNK N   1       0.833   1.284  -1.997  0.00  0.00     0.157 A 
HETATM    7  C   UNK N   1      -2.023   1.904  -4.336  0.00  0.00     0.085 A 
HETATM    8  C   UNK N   1      -4.020   0.990  -3.285  0.00  0.00     0.071 A 
HETATM    9  C   UNK N   1      -1.249   1.494  -3.222  0.00  0.00     0.084 A 
HETATM   10  C   UNK N   1      -3.257   0.577  -2.187  0.00  0.00     0.075 A 
HETATM   11  C   UNK N   1      -3.404   1.647  -4.353  0.00  0.00     0.074 A 
ENDROOT
BRANCH   6  12
HETATM   12  O   UNK N   1       2.183   1.406  -1.936  0.00  0.00    -0.311 OA
BRANCH  12  13
HETATM   13  C   UNK N   1       3.018   0.403  -2.415  0.00  0.00     0.297 C 
HETATM   14  O   UNK N   1       2.374  -0.865  -2.293  0.00  0.00    -0.356 OA
HETATM   15  C   UNK N   1       3.161  -1.894  -2.865  0.00  0.00     0.205 C 
HETATM   16  C   UNK N   1       4.464  -2.082  -2.069  0.00  0.00     0.173 C 
HETATM   17  C   UNK N   1       5.242  -0.752  -2.094  0.00  0.00     0.182 C 
HETATM   18  C   UNK N   1       4.342   0.410  -1.614  0.00  0.00     0.205 C 
BRANCH  16  19
HETATM   19  O   UNK N   1       4.205  -2.518  -0.753  0.00  0.00    -0.391 OA
HETATM   20  H   UNK N   1       3.504  -1.944  -0.351  0.00  0.00     0.210 HD
ENDBRANCH  16  19
BRANCH  17  21
HETATM   21  O   UNK N   1       6.435  -0.836  -1.356  0.00  0.00    -0.390 OA
HETATM   22  H   UNK N   1       6.192  -0.959  -0.402  0.00  0.00     0.210 HD
ENDBRANCH  17  21
BRANCH  18  23
HETATM   23  O   UNK N   1       5.004   1.644  -1.733  0.00  0.00    -0.388 OA
HETATM   24  H   UNK N   1       5.216   1.779  -2.694  0.00  0.00     0.210 HD
ENDBRANCH  18  23
ENDBRANCH  12  13
ENDBRANCH   6  12
BRANCH   3  25
HETATM   25  C   UNK N   1       0.795   0.190   0.279  0.00  0.00     0.001 A 
HETATM   26  C   UNK N   1       1.766   0.991   0.910  0.00  0.00     0.017 A 
HETATM   27  C   UNK N   1       2.371   0.564   2.095  0.00  0.00     0.037 A 
HETATM   28  C   UNK N   1       2.034  -0.673   2.651  0.00  0.00     0.065 A 
HETATM   29  C   UNK N   1       1.071  -1.478   2.023  0.00  0.00     0.037 A 
HETATM   30  C   UNK N   1       0.443  -1.040   0.854  0.00  0.00     0.017 A 
BRANCH  28  31
HETATM   31  O   UNK N   1       2.635  -1.079   3.787  0.00  0.00    -0.361 OA
HETATM   32  H   UNK N   1       2.429  -1.931   4.196  0.00  0.00     0.217 HD
ENDBRANCH  28  31
ENDBRANCH   3  25
BRANCH   7  33
HETATM   33  O   UNK N   1      -1.450   2.538  -5.380  0.00  0.00    -0.360 OA
HETATM   34  H   UNK N   1      -1.962   2.822  -6.151  0.00  0.00     0.217 HD
ENDBRANCH   7  33
BRANCH   8  35
HETATM   35  O   UNK N   1      -5.348   0.760  -3.322  0.00  0.00    -0.361 OA
HETATM   36  H   UNK N   1      -5.808   0.313  -2.596  0.00  0.00     0.217 HD
ENDBRANCH   8  35
TORSDOF 9
