REMARK  9 active torsions:
REMARK  status: ('A' for Active; 'I' for Inactive)
REMARK    1  A    between atoms: O_3  and  C_14 
REMARK    2  A    between atoms: O_3  and  C_26 
REMARK    3  A    between atoms: O_4  and  C_15 
REMARK    4  A    between atoms: O_5  and  C_16 
REMARK    5  A    between atoms: O_6  and  C_17 
REMARK    6  A    between atoms: O_8  and  C_27 
REMARK    7  A    between atoms: O_9  and  C_28 
REMARK    8  A    between atoms: O_10  and  C_29 
REMARK    9  A    between atoms: C_11  and  C_19 
ROOT
HETATM    1  O   UNK N   1      -2.587   1.782  -0.654  0.00  0.00    -0.306 OA
HETATM    2  O   UNK N   1       0.363   2.287  -3.267  0.00  0.00    -0.284 OA
HETATM    3  C   UNK N   1      -1.373   2.063  -0.189  0.00  0.00     0.124 A 
HETATM    4  C   UNK N   1      -2.866   1.681  -1.947  0.00  0.00     0.096 A 
HETATM    5  C   UNK N   1      -0.544   2.126  -2.469  0.00  0.00     0.223 A 
HETATM    6  C   UNK N   1      -0.291   2.206  -1.082  0.00  0.00     0.157 A 
HETATM    7  C   UNK N   1      -2.192   1.760  -4.292  0.00  0.00     0.085 A 
HETATM    8  C   UNK N   1      -4.506   1.302  -3.695  0.00  0.00     0.071 A 
HETATM    9  C   UNK N   1      -1.856   1.863  -2.918  0.00  0.00     0.084 A 
HETATM   10  C   UNK N   1      -4.179   1.403  -2.338  0.00  0.00     0.075 A 
HETATM   11  C   UNK N   1      -3.517   1.481  -4.664  0.00  0.00     0.074 A 
ENDROOT
BRANCH   6  12
HETATM   12  O   UNK N   1       0.969   2.345  -0.580  0.00  0.00    -0.311 OA
BRANCH  12  13
HETATM   13  C   UNK N   1       2.044   1.547  -0.970  0.00  0.00     0.298 C 
HETATM   14  O   UNK N   1       2.234   0.490  -0.038  0.00  0.00    -0.351 OA
HETATM   15  C   UNK N   1       2.582   0.971   1.252  0.00  0.00     0.152 C 
HETATM   16  C   UNK N   1       3.937   1.711   1.203  0.00  0.00     0.178 C 
HETATM   17  C   UNK N   1       2.629  -0.225   2.204  0.00  0.00     0.042 C 
HETATM   18  C   UNK N   1       3.819   2.880   0.204  0.00  0.00     0.183 C 
HETATM   19  C   UNK N   1       3.341   2.354  -1.163  0.00  0.00     0.205 C 
BRANCH  16  20
HETATM   20  O   UNK N   1       4.276   2.217   2.470  0.00  0.00    -0.390 OA
HETATM   21  H   UNK N   1       4.839   1.532   2.917  0.00  0.00     0.210 HD
ENDBRANCH  16  20
BRANCH  18  22
HETATM   22  O   UNK N   1       5.028   3.589   0.086  0.00  0.00    -0.390 OA
HETATM   23  H   UNK N   1       5.749   2.937  -0.115  0.00  0.00     0.210 HD
ENDBRANCH  18  22
BRANCH  19  24
HETATM   24  O   UNK N   1       4.311   1.500  -1.719  0.00  0.00    -0.388 OA
HETATM   25  H   UNK N   1       4.922   2.063  -2.262  0.00  0.00     0.210 HD
ENDBRANCH  19  24
ENDBRANCH  12  13
ENDBRANCH   6  12
BRANCH   3  26
HETATM   26  C   UNK N   1      -1.206   2.199   1.276  0.00  0.00     0.001 A 
HETATM   27  C   UNK N   1      -0.405   3.220   1.823  0.00  0.00     0.017 A 
HETATM   28  C   UNK N   1      -0.302   3.369   3.209  0.00  0.00     0.037 A 
HETATM   29  C   UNK N   1      -0.980   2.488   4.065  0.00  0.00     0.065 A 
HETATM   30  C   UNK N   1      -1.768   1.467   3.525  0.00  0.00     0.037 A 
HETATM   31  C   UNK N   1      -1.896   1.333   2.139  0.00  0.00     0.017 A 
BRANCH  29  32
HETATM   32  O   UNK N   1      -0.888   2.622   5.403  0.00  0.00    -0.361 OA
HETATM   33  H   UNK N   1      -0.370   3.333   5.809  0.00  0.00     0.217 HD
ENDBRANCH  29  32
ENDBRANCH   3  26
BRANCH   7  34
HETATM   34  O   UNK N   1      -1.252   1.924  -5.248  0.00  0.00    -0.360 OA
HETATM   35  H   UNK N   1      -1.463   1.855  -6.190  0.00  0.00     0.217 HD
ENDBRANCH   7  34
BRANCH   8  36
HETATM   36  O   UNK N   1      -5.772   1.034  -4.076  0.00  0.00    -0.361 OA
HETATM   37  H   UNK N   1      -6.482   0.905  -3.431  0.00  0.00     0.217 HD
ENDBRANCH   8  36
TORSDOF 9
