REMARK  5 active torsions:
REMARK  status: ('A' for Active; 'I' for Inactive)
REMARK    1  A    between atoms: O_2  and  C_12 
REMARK    2  A    between atoms: O_2  and  C_20 
REMARK    3  A    between atoms: O_3  and  C_13 
REMARK    4  A    between atoms: O_3  and  C_21 
REMARK    5  A    between atoms: C_10  and  C_14 
ROOT
HETATM    1  O   UNK N   1      -4.293   0.796  -3.087  0.00  0.00    -0.265 OA
HETATM    2  O   UNK N   1      -2.287  -0.129  -2.878  0.00  0.00    -0.310 OA
HETATM    3  C   UNK N   1      -2.160   2.093  -0.800  0.00  0.00     0.150 C 
HETATM    4  C   UNK N   1       2.088   0.966  -0.466  0.00  0.00     0.145 C 
HETATM    5  C   UNK N   1       2.483   3.879   3.373  0.00  0.00     0.036 C 
HETATM    6  C   UNK N   1      -0.998   1.031  -0.469  0.00  0.00    -0.005 C 
HETATM    7  C   UNK N   1       1.350   1.118   0.900  0.00  0.00     0.011 C 
HETATM    8  C   UNK N   1      -0.061   1.757   0.610  0.00  0.00     0.012 C 
HETATM    9  C   UNK N   1       1.462   2.734   3.045  0.00  0.00    -0.012 C 
HETATM   10  C   UNK N   1      -0.156   0.721  -1.782  0.00  0.00     0.034 C 
HETATM   11  C   UNK N   1      -3.119   0.929  -2.785  0.00  0.00     0.262 C 
HETATM   12  C   UNK N   1      -0.897  -0.157  -2.921  0.00  0.00     0.068 C 
HETATM   13  C   UNK N   1       2.102   2.100   1.836  0.00  0.00    -0.063 C 
HETATM   14  C   UNK N   1       1.262   0.138  -1.478  0.00  0.00     0.042 C 
HETATM   15  C   UNK N   1      -2.636   2.225  -2.265  0.00  0.00     0.144 C 
HETATM   16  C   UNK N   1       3.828   3.331   2.857  0.00  0.00     0.038 C 
HETATM   17  C   UNK N   1      -0.782   2.143   1.954  0.00  0.00     0.007 C 
HETATM   18  C   UNK N   1       0.026   3.214   2.714  0.00  0.00     0.015 C 
HETATM   19  C   UNK N   1      -1.615  -0.280   0.103  0.00  0.00     0.019 C 
HETATM   20  C   UNK N   1       1.321  -0.264   1.615  0.00  0.00     0.023 C 
HETATM   21  C   UNK N   1       1.435   1.760   4.247  0.00  0.00     0.021 C 
HETATM   22  C   UNK N   1       3.393   2.438   1.743  0.00  0.00    -0.022 C 
HETATM   23  C   UNK N   1      -0.445   0.329  -4.317  0.00  0.00     0.047 C 
HETATM   24  C   UNK N   1      -0.563  -1.668  -2.846  0.00  0.00     0.047 C 
ENDROOT
BRANCH   5  25
HETATM   25  C   UNK N   1       2.196   5.207   2.677  0.00  0.00    -0.029 A 
HETATM   26  C   UNK N   1       1.974   6.408   3.326  0.00  0.00     0.148 A 
HETATM   27  O   UNK N   1       1.760   7.349   2.435  0.00  0.00    -0.334 OA
HETATM   28  C   UNK N   1       1.831   6.830   1.229  0.00  0.00     0.142 A 
HETATM   29  C   UNK N   1       2.107   5.480   1.325  0.00  0.00     0.034 A 
ENDBRANCH   5  25
BRANCH   4  30
HETATM   30  O   UNK N   1       2.348   2.223  -0.992  0.00  0.00    -0.315 OA
BRANCH  30  31
HETATM   31  C   UNK N   1       3.309   2.482  -1.917  0.00  0.00     0.255 C 
HETATM   32  O   UNK N   1       4.059   1.604  -2.310  0.00  0.00    -0.266 OA
HETATM   33  C   UNK N   1       3.456   3.876  -2.431  0.00  0.00     0.126 C 
ENDBRANCH  30  31
ENDBRANCH   4  30
BRANCH   3  34
HETATM   34  O   UNK N   1      -3.241   1.880   0.045  0.00  0.00    -0.315 OA
BRANCH  34  35
HETATM   35  C   UNK N   1      -4.211   2.791   0.326  0.00  0.00     0.255 C 
HETATM   36  O   UNK N   1      -4.136   3.937  -0.080  0.00  0.00    -0.266 OA
HETATM   37  C   UNK N   1      -5.368   2.368   1.169  0.00  0.00     0.126 C 
ENDBRANCH  34  35
ENDBRANCH   3  34
TORSDOF 5
