REMARK  7 active torsions:
REMARK  status: ('A' for Active; 'I' for Inactive)
REMARK    1  A    between atoms: O_1  and  C_8 
REMARK    2  A    between atoms: O_2  and  C_9 
REMARK    3  A    between atoms: O_3  and  C_10 
REMARK    4  A    between atoms: O_4  and  C_11 
REMARK    5  A    between atoms: O_5  and  C_12 
REMARK    6  A    between atoms: C_13  and  C_14 
REMARK    7  A    between atoms: C_15  and  C_27 
ROOT
HETATM    1  O   UNK N   1      -5.269   1.559  -2.538  0.00  0.00    -0.286 OA
HETATM    2  C   UNK N   1      -3.250   3.180  -1.442  0.00  0.00     0.081 A 
HETATM    3  C   UNK N   1      -5.325  -1.354  -2.584  0.00  0.00     0.080 A 
HETATM    4  C   UNK N   1      -0.917   1.876  -0.571  0.00  0.00    -0.007 A 
HETATM    5  C   UNK N   1      -3.160   1.768  -1.551  0.00  0.00     0.056 A 
HETATM    6  C   UNK N   1      -4.233  -0.525  -2.145  0.00  0.00     0.055 A 
HETATM    7  C   UNK N   1      -1.988   1.117  -1.114  0.00  0.00    -0.025 A 
HETATM    8  C   UNK N   1      -1.030   3.276  -0.453  0.00  0.00    -0.048 A 
HETATM    9  C   UNK N   1      -3.043  -1.157  -1.710  0.00  0.00    -0.037 A 
HETATM   10  C   UNK N   1      -2.192   3.912  -0.892  0.00  0.00     0.045 A 
HETATM   11  C   UNK N   1      -5.183  -2.746  -2.571  0.00  0.00     0.037 A 
HETATM   12  C   UNK N   1      -2.942  -2.557  -1.721  0.00  0.00     0.008 A 
HETATM   13  C   UNK N   1      -4.004  -3.342  -2.146  0.00  0.00     0.003 A 
HETATM   14  C   UNK N   1      -4.291   0.972  -2.113  0.00  0.00     0.199 A 
HETATM   15  C   UNK N   1      -1.849  -0.388  -1.206  0.00  0.00     0.080 A 
HETATM   16  C   UNK N   1       0.080   4.094   0.156  0.00  0.00     0.049 C 
ENDROOT
BRANCH   4  17
HETATM   17  C   UNK N   1       0.323   1.195  -0.121  0.00  0.00     0.043 A 
HETATM   18  C   UNK N   1       1.406   1.066  -1.009  0.00  0.00     0.096 A 
HETATM   19  C   UNK N   1       2.581   0.362  -0.607  0.00  0.00     0.077 A 
HETATM   20  C   UNK N   1       2.638  -0.180   0.707  0.00  0.00     0.087 A 
HETATM   21  C   UNK N   1       1.540  -0.022   1.576  0.00  0.00     0.075 A 
HETATM   22  C   UNK N   1       0.391   0.652   1.165  0.00  0.00     0.082 A 
BRANCH  18  23
HETATM   23  O   UNK N   1       1.261   1.587  -2.253  0.00  0.00    -0.359 OA
HETATM   24  H   UNK N   1       1.885   1.485  -2.978  0.00  0.00     0.218 HD
ENDBRANCH  18  23
BRANCH  19  25
HETATM   25  C   UNK N   1       3.735   0.190  -1.557  0.00  0.00     0.161 C 
HETATM   26  O   UNK N   1       4.022   1.085  -2.337  0.00  0.00    -0.293 OA
HETATM   27  C   UNK N   1       4.508  -1.100  -1.648  0.00  0.00     0.097 C 
ENDBRANCH  19  25
BRANCH  20  28
HETATM   28  O   UNK N   1       3.769  -0.810   1.126  0.00  0.00    -0.355 OA
HETATM   29  C   UNK N   1       4.003  -1.294   2.399  0.00  0.00     0.210 C 
ENDBRANCH  20  28
BRANCH  22  30
HETATM   30  O   UNK N   1      -0.658   0.782   2.006  0.00  0.00    -0.360 OA
HETATM   31  H   UNK N   1      -0.644   0.418   2.903  0.00  0.00     0.217 HD
ENDBRANCH  22  30
ENDBRANCH   4  17
BRANCH   2  32
HETATM   32  O   UNK N   1      -4.358   3.832  -1.853  0.00  0.00    -0.360 OA
HETATM   33  H   UNK N   1      -4.444   4.794  -1.784  0.00  0.00     0.217 HD
ENDBRANCH   2  32
BRANCH   3  34
HETATM   34  O   UNK N   1      -6.517  -0.876  -3.010  0.00  0.00    -0.360 OA
HETATM   35  H   UNK N   1      -6.789   0.044  -3.056  0.00  0.00     0.217 HD
ENDBRANCH   3  34
TORSDOF 7
