REMARK  11 active torsions:
REMARK  status: ('A' for Active; 'I' for Inactive)
REMARK    1  A    between atoms: O_1  and  C_9 
REMARK    2  A    between atoms: O_2  and  C_10 
REMARK    3  A    between atoms: O_3  and  C_11 
REMARK    4  A    between atoms: O_7  and  C_19 
REMARK    5  A    between atoms: O_8  and  C_20 
REMARK    6  A    between atoms: C_12  and  C_16 
REMARK    7  A    between atoms: C_13  and  C_22 
REMARK    8  A    between atoms: C_15  and  C_22 
REMARK    9  A    between atoms: C_16  and  C_27 
REMARK   10  A    between atoms: C_18  and  C_25 
REMARK   11  A    between atoms: C_18  and  C_28 
ROOT
HETATM    1  C   UNK N   1      -0.319   0.846  -2.423  0.00  0.00     0.068 C 
ENDROOT
BRANCH   1   2
HETATM    2  C   UNK N   1      -1.669   0.222  -2.148  0.00  0.00     0.011 A 
HETATM    3  C   UNK N   1      -2.836   0.895  -2.534  0.00  0.00     0.091 A 
HETATM    4  C   UNK N   1      -4.104   0.326  -2.285  0.00  0.00     0.078 A 
HETATM    5  C   UNK N   1      -4.195  -0.963  -1.671  0.00  0.00     0.093 A 
HETATM    6  C   UNK N   1      -3.007  -1.630  -1.290  0.00  0.00     0.006 A 
HETATM    7  C   UNK N   1      -1.749  -1.038  -1.529  0.00  0.00     0.083 A 
HETATM    8  C   UNK N   1      -3.076  -2.995  -0.638  0.00  0.00     0.054 C 
BRANCH   3   9
HETATM    9  O   UNK N   1      -2.717   2.100  -3.146  0.00  0.00    -0.359 OA
HETATM   10  H   UNK N   1      -3.463   2.615  -3.477  0.00  0.00     0.218 HD
ENDBRANCH   3   9
BRANCH   4  11
HETATM   11  C   UNK N   1      -5.303   1.115  -2.634  0.00  0.00     0.168 C 
HETATM   12  O   UNK N   1      -5.701   1.120  -3.791  0.00  0.00    -0.292 OA
BRANCH  11  13
HETATM   13  C   UNK N   1      -5.996   1.953  -1.564  0.00  0.00     0.053 C 
HETATM   14  C   UNK N   1      -5.059   3.043  -1.025  0.00  0.00     0.018 C 
HETATM   15  C   UNK N   1      -7.287   2.595  -2.089  0.00  0.00     0.018 C 
ENDBRANCH  11  13
ENDBRANCH   4  11
BRANCH   5  16
HETATM   16  O   UNK N   1      -5.373  -1.620  -1.453  0.00  0.00    -0.354 OA
HETATM   17  C   UNK N   1      -6.596  -1.440  -2.065  0.00  0.00     0.210 C 
ENDBRANCH   5  16
BRANCH   7  18
HETATM   18  O   UNK N   1      -0.600  -1.668  -1.179  0.00  0.00    -0.359 OA
HETATM   19  H   UNK N   1      -0.565  -2.532  -0.749  0.00  0.00     0.217 HD
ENDBRANCH   7  18
ENDBRANCH   1   2
BRANCH   1  20
HETATM   20  C   UNK N   1       0.255   1.755  -1.296  0.00  0.00     0.075 C 
HETATM   21  C   UNK N   1       1.584   2.228  -1.832  0.00  0.00     0.181 C 
HETATM   22  O   UNK N   1       1.599   3.161  -2.624  0.00  0.00    -0.291 OA
HETATM   23  C   UNK N   1       2.848   1.526  -1.482  0.00  0.00     0.091 C 
HETATM   24  C   UNK N   1       2.850   0.708  -0.387  0.00  0.00     0.091 C 
HETATM   25  C   UNK N   1       1.612   0.506   0.433  0.00  0.00     0.003 C 
HETATM   26  C   UNK N   1       0.398   0.971   0.006  0.00  0.00     0.068 C 
HETATM   27  C   UNK N   1       1.786  -0.283   1.720  0.00  0.00     0.054 C 
HETATM   28  C   UNK N   1      -0.642   2.987  -1.023  0.00  0.00     0.031 C 
BRANCH  23  29
HETATM   29  C   UNK N   1       4.067   1.747  -2.351  0.00  0.00     0.169 C 
HETATM   30  O   UNK N   1       5.190   1.624  -1.885  0.00  0.00    -0.292 OA
BRANCH  29  31
HETATM   31  C   UNK N   1       3.938   2.090  -3.831  0.00  0.00     0.053 C 
HETATM   32  C   UNK N   1       4.535   3.470  -4.117  0.00  0.00     0.018 C 
HETATM   33  C   UNK N   1       4.605   1.009  -4.686  0.00  0.00     0.018 C 
ENDBRANCH  29  31
ENDBRANCH  23  29
BRANCH  24  34
HETATM   34  O   UNK N   1       3.950   0.007  -0.004  0.00  0.00    -0.359 OA
HETATM   35  H   UNK N   1       4.768  -0.085  -0.501  0.00  0.00     0.218 HD
ENDBRANCH  24  34
BRANCH  26  36
HETATM   36  O   UNK N   1      -0.750   0.733   0.698  0.00  0.00    -0.363 OA
HETATM   37  H   UNK N   1      -0.839   0.223   1.508  0.00  0.00     0.217 HD
ENDBRANCH  26  36
ENDBRANCH   1  20
TORSDOF 11
