REMARK  6 active torsions:
REMARK  status: ('A' for Active; 'I' for Inactive)
REMARK    1  A    between atoms: O_1  and  C_6 
REMARK    2  A    between atoms: O_2  and  C_7 
REMARK    3  A    between atoms: O_3  and  C_8 
REMARK    4  A    between atoms: O_4  and  C_9 
REMARK    5  A    between atoms: C_12  and  C_24 
REMARK    6  A    between atoms: C_18  and  C_24 
ROOT
HETATM    1  N   UNK N   1      -1.935   1.119   2.018  0.00  0.00     0.093 N 
HETATM    2  C   UNK N   1      -4.402   0.599  -2.222  0.00  0.00     0.102 A 
HETATM    3  C   UNK N   1      -5.564   0.288  -1.506  0.00  0.00     0.102 A 
HETATM    4  C   UNK N   1      -3.142   0.692  -0.141  0.00  0.00    -0.016 A 
HETATM    5  C   UNK N   1      -4.320   0.408   0.582  0.00  0.00    -0.045 A 
HETATM    6  C   UNK N   1      -3.199   0.795  -1.543  0.00  0.00     0.049 A 
HETATM    7  C   UNK N   1      -5.526   0.217  -0.109  0.00  0.00     0.047 A 
HETATM    8  C   UNK N   1      -1.807   0.905   0.552  0.00  0.00     0.260 C 
HETATM    9  C   UNK N   1      -2.879   0.170   2.637  0.00  0.00     0.277 C 
HETATM   10  C   UNK N   1      -2.269   2.519   2.339  0.00  0.00     0.310 C 
HETATM   11  C   UNK N   1      -4.305   0.309   2.083  0.00  0.00     0.069 C 
ENDROOT
BRANCH   8  12
HETATM   12  C   UNK N   1      -0.873  -0.283   0.207  0.00  0.00     0.079 C 
BRANCH  12  13
HETATM   13  C   UNK N   1       0.569   0.006   0.523  0.00  0.00    -0.053 A 
HETATM   14  C   UNK N   1       1.442   0.348  -0.524  0.00  0.00     0.046 A 
HETATM   15  C   UNK N   1       2.783   0.639  -0.264  0.00  0.00     0.099 A 
HETATM   16  C   UNK N   1       3.269   0.569   1.052  0.00  0.00     0.101 A 
HETATM   17  C   UNK N   1       2.405   0.207   2.095  0.00  0.00     0.040 A 
HETATM   18  C   UNK N   1       1.057  -0.063   1.836  0.00  0.00     0.010 A 
BRANCH  15  19
HETATM   19  O   UNK N   1       3.611   0.985  -1.274  0.00  0.00    -0.358 OA
HETATM   20  H   UNK N   1       3.296   1.050  -2.187  0.00  0.00     0.218 HD
ENDBRANCH  15  19
BRANCH  16  21
HETATM   21  O   UNK N   1       4.560   0.848   1.322  0.00  0.00    -0.353 OA
HETATM   22  C   UNK N   1       5.011   2.148   1.393  0.00  0.00     0.210 C 
ENDBRANCH  16  21
ENDBRANCH  12  13
ENDBRANCH   8  12
BRANCH   2  23
HETATM   23  O   UNK N   1      -4.447   0.716  -3.568  0.00  0.00    -0.353 OA
HETATM   24  C   UNK N   1      -4.485   1.955  -4.172  0.00  0.00     0.210 C 
ENDBRANCH   2  23
BRANCH   3  25
HETATM   25  O   UNK N   1      -6.721   0.054  -2.157  0.00  0.00    -0.353 OA
HETATM   26  C   UNK N   1      -6.987  -1.191  -2.686  0.00  0.00     0.210 C 
ENDBRANCH   3  25
TORSDOF 6
