REMARK  10 active torsions:
REMARK  status: ('A' for Active; 'I' for Inactive)
REMARK    1  A    between atoms: O_1  and  C_11 
REMARK    2  A    between atoms: O_1  and  C_12 
REMARK    3  A    between atoms: O_4  and  C_13 
REMARK    4  A    between atoms: O_5  and  C_14 
REMARK    5  A    between atoms: O_6  and  C_15 
REMARK    6  A    between atoms: O_7  and  C_17 
REMARK    7  A    between atoms: O_9  and  C_21 
REMARK    8  A    between atoms: O_10  and  C_22 
REMARK    9  A    between atoms: C_16  and  C_22 
REMARK   10  A    between atoms: C_21  and  C_25 
ROOT
HETATM    1  O   UNK N   1       0.539   3.489  -1.613  0.00  0.00    -0.331 OA
HETATM    2  C   UNK N   1       0.389   3.064  -0.304  0.00  0.00     0.273 C 
HETATM    3  C   UNK N   1       2.378   1.980   1.802  0.00  0.00     0.123 C 
HETATM    4  C   UNK N   1       1.023   1.658  -0.140  0.00  0.00     0.056 C 
HETATM    5  C   UNK N   1       1.141   1.200   1.325  0.00  0.00     0.020 C 
HETATM    6  C   UNK N   1       2.474   1.675  -0.633  0.00  0.00     0.039 C 
HETATM    7  C   UNK N   1       1.723   3.389  -2.280  0.00  0.00     0.152 C 
HETATM    8  C   UNK N   1       3.348   1.982   0.601  0.00  0.00     0.042 C 
HETATM    9  C   UNK N   1       2.706   2.557  -1.848  0.00  0.00     0.042 C 
HETATM   10  C   UNK N   1       1.317  -0.325   1.424  0.00  0.00     0.013 C 
ENDROOT
BRANCH   2  11
HETATM   11  O   UNK N   1      -0.972   3.140   0.123  0.00  0.00    -0.328 OA
BRANCH  11  12
HETATM   12  C   UNK N   1      -1.847   2.283  -0.603  0.00  0.00     0.294 C 
HETATM   13  O   UNK N   1      -1.860   2.652  -1.973  0.00  0.00    -0.348 OA
HETATM   14  C   UNK N   1      -2.578   1.705  -2.743  0.00  0.00     0.179 C 
HETATM   15  C   UNK N   1      -4.071   1.758  -2.355  0.00  0.00     0.180 C 
HETATM   16  C   UNK N   1      -4.193   1.458  -0.845  0.00  0.00     0.183 C 
HETATM   17  C   UNK N   1      -3.269   2.394  -0.028  0.00  0.00     0.204 C 
BRANCH  14  18
HETATM   18  C   UNK N   1      -2.363   2.031  -4.228  0.00  0.00     0.198 C 
BRANCH  18  19
HETATM   19  O   UNK N   1      -1.007   1.907  -4.566  0.00  0.00    -0.398 OA
HETATM   20  H   UNK N   1      -0.545   2.711  -4.211  0.00  0.00     0.209 HD
ENDBRANCH  18  19
ENDBRANCH  14  18
BRANCH  15  21
HETATM   21  O   UNK N   1      -4.789   0.807  -3.099  0.00  0.00    -0.390 OA
HETATM   22  H   UNK N   1      -5.753   0.998  -2.958  0.00  0.00     0.210 HD
ENDBRANCH  15  21
BRANCH  16  23
HETATM   23  O   UNK N   1      -5.527   1.554  -0.413  0.00  0.00    -0.390 OA
HETATM   24  H   UNK N   1      -5.816   2.494  -0.552  0.00  0.00     0.210 HD
ENDBRANCH  16  23
BRANCH  17  25
HETATM   25  O   UNK N   1      -3.249   2.009   1.323  0.00  0.00    -0.388 OA
HETATM   26  H   UNK N   1      -4.159   2.165   1.685  0.00  0.00     0.210 HD
ENDBRANCH  17  25
ENDBRANCH  11  12
ENDBRANCH   2  11
BRANCH   9  27
HETATM   27  C   UNK N   1       4.000   2.476  -2.579  0.00  0.00     0.174 C 
HETATM   28  O   UNK N   1       4.205   3.167  -3.561  0.00  0.00    -0.646 OA
BRANCH  27  29
HETATM   29  O   UNK N   1       4.951   1.611  -2.157  0.00  0.00    -0.773 OA
HETATM   30  H   UNK N   1       5.793   1.528  -2.628  0.00  0.00     0.167 HD
ENDBRANCH  27  29
ENDBRANCH   9  27
BRANCH   3  31
HETATM   31  O   UNK N   1       2.941   1.463   2.979  0.00  0.00    -0.395 OA
HETATM   32  H   UNK N   1       3.766   1.985   3.154  0.00  0.00     0.210 HD
ENDBRANCH   3  31
TORSDOF 10
