REMARK  10 active torsions:
REMARK  status: ('A' for Active; 'I' for Inactive)
REMARK    1  A    between atoms: O_3  and  C_10 
REMARK    2  A    between atoms: O_4  and  C_11 
REMARK    3  A    between atoms: O_5  and  C_12 
REMARK    4  A    between atoms: O_6  and  C_13 
REMARK    5  A    between atoms: C_7  and  C_15 
REMARK    6  A    between atoms: C_16  and  C_22 
REMARK    7  A    between atoms: C_22  and  C_25 
REMARK    8  A    between atoms: C_23  and  C_27 
REMARK    9  A    between atoms: C_26  and  C_28 
REMARK   10  A    between atoms: C_27  and  C_28 
ROOT
HETATM    1  O   UNK N   1      -0.892   2.317  -4.200  0.00  0.00    -0.306 OA
HETATM    2  O   UNK N   1      -2.634  -0.327  -1.806  0.00  0.00    -0.284 OA
HETATM    3  C   UNK N   1      -2.186   2.059  -4.373  0.00  0.00     0.123 A 
HETATM    4  C   UNK N   1      -0.141   1.698  -3.295  0.00  0.00     0.096 A 
HETATM    5  C   UNK N   1      -2.085   0.474  -2.542  0.00  0.00     0.223 A 
HETATM    6  C   UNK N   1      -2.829   1.120  -3.543  0.00  0.00     0.152 A 
HETATM    7  C   UNK N   1       0.117   0.120  -1.445  0.00  0.00     0.092 A 
HETATM    8  C   UNK N   1       2.049   1.342  -2.318  0.00  0.00     0.077 A 
HETATM    9  C   UNK N   1      -0.705   0.754  -2.413  0.00  0.00     0.085 A 
HETATM   10  C   UNK N   1       1.510   0.409  -1.406  0.00  0.00     0.013 A 
HETATM   11  C   UNK N   1       1.221   1.984  -3.241  0.00  0.00     0.075 A 
ENDROOT
BRANCH  10  12
HETATM   12  C   UNK N   1       2.435  -0.271  -0.416  0.00  0.00     0.072 C 
BRANCH  12  13
HETATM   13  C   UNK N   1       2.586   0.590   0.815  0.00  0.00    -0.020 C 
HETATM   14  C   UNK N   1       2.326   0.224   2.096  0.00  0.00    -0.087 C 
HETATM   15  C   UNK N   1       1.826  -1.143   2.506  0.00  0.00     0.043 C 
BRANCH  14  16
HETATM   16  C   UNK N   1       2.559   1.239   3.198  0.00  0.00     0.037 C 
BRANCH  16  17
HETATM   17  C   UNK N   1       1.327   2.114   3.455  0.00  0.00     0.031 C 
BRANCH  17  18
HETATM   18  C   UNK N   1       0.987   2.966   2.250  0.00  0.00    -0.024 C 
HETATM   19  C   UNK N   1      -0.182   2.951   1.556  0.00  0.00    -0.091 C 
HETATM   20  C   UNK N   1      -0.346   3.878   0.379  0.00  0.00     0.042 C 
HETATM   21  C   UNK N   1      -1.360   2.056   1.877  0.00  0.00     0.042 C 
ENDBRANCH  17  18
ENDBRANCH  16  17
ENDBRANCH  14  16
ENDBRANCH  12  13
ENDBRANCH  10  12
BRANCH   7  22
HETATM   22  O   UNK N   1      -0.440  -0.756  -0.576  0.00  0.00    -0.359 OA
HETATM   23  H   UNK N   1       0.034  -1.186   0.143  0.00  0.00     0.218 HD
ENDBRANCH   7  22
BRANCH   8  24
HETATM   24  O   UNK N   1       3.372   1.619  -2.303  0.00  0.00    -0.360 OA
HETATM   25  H   UNK N   1       3.773   2.239  -2.929  0.00  0.00     0.217 HD
ENDBRANCH   8  24
BRANCH   6  26
HETATM   26  O   UNK N   1      -4.152   0.873  -3.685  0.00  0.00    -0.355 OA
HETATM   27  H   UNK N   1      -4.632   0.253  -3.120  0.00  0.00     0.218 HD
ENDBRANCH   6  26
BRANCH   3  28
HETATM   28  C   UNK N   1      -2.903   2.783  -5.451  0.00  0.00     0.001 A 
HETATM   29  C   UNK N   1      -3.866   2.140  -6.253  0.00  0.00     0.017 A 
HETATM   30  C   UNK N   1      -4.509   2.838  -7.279  0.00  0.00     0.037 A 
HETATM   31  C   UNK N   1      -4.220   4.187  -7.503  0.00  0.00     0.065 A 
HETATM   32  C   UNK N   1      -3.265   4.835  -6.706  0.00  0.00     0.037 A 
HETATM   33  C   UNK N   1      -2.598   4.132  -5.698  0.00  0.00     0.017 A 
BRANCH  31  34
HETATM   34  O   UNK N   1      -4.861   4.851  -8.486  0.00  0.00    -0.361 OA
HETATM   35  H   UNK N   1      -4.691   5.788  -8.662  0.00  0.00     0.217 HD
ENDBRANCH  31  34
ENDBRANCH   3  28
TORSDOF 10
