REMARK  8 active torsions:
REMARK  status: ('A' for Active; 'I' for Inactive)
REMARK    1  A    between atoms: O_1  and  C_7 
REMARK    2  A    between atoms: O_2  and  C_8 
REMARK    3  A    between atoms: O_3  and  C_9 
REMARK    4  A    between atoms: O_4  and  C_13 
REMARK    5  A    between atoms: O_5  and  C_14 
REMARK    6  A    between atoms: C_10  and  C_15 
REMARK    7  A    between atoms: C_23  and  C_28 
REMARK    8  A    between atoms: C_26  and  C_28 
ROOT
HETATM    1  O   UNK N   1       1.991   4.171  -2.294  0.00  0.00    -0.294 OA
HETATM    2  C   UNK N   1       1.987   1.775  -2.024  0.00  0.00     0.143 C 
HETATM    3  C   UNK N   1      -0.254   2.556  -0.262  0.00  0.00     0.159 C 
HETATM    4  C   UNK N   1      -0.368   1.973  -2.787  0.00  0.00     0.040 C 
HETATM    5  C   UNK N   1       0.933   1.106  -2.971  0.00  0.00     0.037 C 
HETATM    6  C   UNK N   1      -0.054   3.038  -1.725  0.00  0.00     0.101 C 
HETATM    7  C   UNK N   1       1.407   3.145  -1.984  0.00  0.00     0.173 C 
HETATM    8  C   UNK N   1       0.795   1.554   0.202  0.00  0.00    -0.048 C 
HETATM    9  C   UNK N   1       1.851   1.238  -0.590  0.00  0.00     0.025 C 
HETATM   10  C   UNK N   1       1.336   1.108  -4.463  0.00  0.00     0.014 C 
ENDROOT
BRANCH   4  11
HETATM   11  C   UNK N   1      -1.693   1.238  -2.653  0.00  0.00    -0.047 A 
HETATM   12  C   UNK N   1      -1.798   0.070  -1.881  0.00  0.00     0.047 A 
HETATM   13  C   UNK N   1      -3.019  -0.625  -1.791  0.00  0.00     0.104 A 
HETATM   14  C   UNK N   1      -4.156  -0.143  -2.458  0.00  0.00     0.135 A 
HETATM   15  C   UNK N   1      -4.066   1.072  -3.186  0.00  0.00     0.104 A 
HETATM   16  C   UNK N   1      -2.838   1.738  -3.289  0.00  0.00     0.047 A 
BRANCH  13  17
HETATM   17  O   UNK N   1      -3.139  -1.777  -1.074  0.00  0.00    -0.353 OA
HETATM   18  C   UNK N   1      -2.132  -2.373  -0.345  0.00  0.00     0.210 C 
ENDBRANCH  13  17
BRANCH  14  19
HETATM   19  O   UNK N   1      -5.296  -0.884  -2.369  0.00  0.00    -0.351 OA
HETATM   20  C   UNK N   1      -6.407  -0.808  -3.185  0.00  0.00     0.210 C 
ENDBRANCH  14  19
BRANCH  15  21
HETATM   21  O   UNK N   1      -5.155   1.618  -3.767  0.00  0.00    -0.353 OA
HETATM   22  C   UNK N   1      -5.846   2.638  -3.140  0.00  0.00     0.210 C 
ENDBRANCH  15  21
ENDBRANCH   4  11
BRANCH   2  23
HETATM   23  O   UNK N   1       3.329   1.771  -2.506  0.00  0.00    -0.373 OA
HETATM   24  C   UNK N   1       3.930   0.488  -2.470  0.00  0.00     0.203 C 
ENDBRANCH   2  23
BRANCH   3  25
HETATM   25  O   UNK N   1      -0.145   3.669   0.589  0.00  0.00    -0.390 OA
HETATM   26  H   UNK N   1      -0.986   4.190   0.500  0.00  0.00     0.210 HD
ENDBRANCH   3  25
BRANCH   8  27
HETATM   27  C   UNK N   1       0.720   1.038   1.622  0.00  0.00     0.063 C 
BRANCH  27  28
HETATM   28  C   UNK N   1       0.980  -0.443   1.718  0.00  0.00    -0.033 C 
HETATM   29  C   UNK N   1       1.986  -0.914   2.463  0.00  0.00     0.007 C 
ENDBRANCH  27  28
ENDBRANCH   8  27
TORSDOF 8
