REMARK  8 active torsions:
REMARK  status: ('A' for Active; 'I' for Inactive)
REMARK    1  A    between atoms: O_1  and  C_7 
REMARK    2  A    between atoms: O_2  and  C_8 
REMARK    3  A    between atoms: O_3  and  C_9 
REMARK    4  A    between atoms: O_4  and  C_10 
REMARK    5  A    between atoms: C_11  and  C_25 
REMARK    6  A    between atoms: C_12  and  C_26 
REMARK    7  A    between atoms: C_19  and  C_25 
REMARK    8  A    between atoms: C_20  and  C_26 
ROOT
HETATM    1  O   UNK N   1      -4.742   0.686   1.483  0.00  0.00    -0.265 OA
HETATM    2  O   UNK N   1      -2.974  -0.684   1.663  0.00  0.00    -0.321 OA
HETATM    3  C   UNK N   1      -2.549   1.637   1.589  0.00  0.00     0.096 C 
HETATM    4  C   UNK N   1      -1.260   0.800   1.408  0.00  0.00     0.028 C 
HETATM    5  C   UNK N   1      -3.533   0.526   1.503  0.00  0.00     0.263 C 
HETATM    6  C   UNK N   1      -1.635  -0.578   1.967  0.00  0.00     0.184 C 
ENDROOT
BRANCH   3   7
HETATM    7  C   UNK N   1      -2.717   2.775   0.545  0.00  0.00     0.053 C 
BRANCH   7   8
HETATM    8  C   UNK N   1      -2.716   2.299  -0.893  0.00  0.00    -0.055 A 
HETATM    9  C   UNK N   1      -3.901   1.836  -1.486  0.00  0.00     0.046 A 
HETATM   10  C   UNK N   1      -3.903   1.371  -2.818  0.00  0.00     0.101 A 
HETATM   11  C   UNK N   1      -2.698   1.367  -3.548  0.00  0.00     0.099 A 
HETATM   12  C   UNK N   1      -1.521   1.838  -2.955  0.00  0.00     0.040 A 
HETATM   13  C   UNK N   1      -1.530   2.309  -1.642  0.00  0.00     0.010 A 
BRANCH  10  14
HETATM   14  O   UNK N   1      -5.041   0.924  -3.418  0.00  0.00    -0.353 OA
HETATM   15  C   UNK N   1      -6.289   0.889  -2.830  0.00  0.00     0.210 C 
ENDBRANCH  10  14
BRANCH  11  16
HETATM   16  O   UNK N   1      -2.653   0.916  -4.820  0.00  0.00    -0.358 OA
HETATM   17  H   UNK N   1      -3.435   0.574  -5.276  0.00  0.00     0.218 HD
ENDBRANCH  11  16
ENDBRANCH   7   8
ENDBRANCH   3   7
BRANCH   4  18
HETATM   18  C   UNK N   1       0.018   1.448   1.962  0.00  0.00     0.046 C 
BRANCH  18  19
HETATM   19  C   UNK N   1       1.264   0.773   1.441  0.00  0.00    -0.055 A 
HETATM   20  C   UNK N   1       1.927   1.330   0.337  0.00  0.00     0.046 A 
HETATM   21  C   UNK N   1       3.086   0.731  -0.188  0.00  0.00     0.101 A 
HETATM   22  C   UNK N   1       3.592  -0.435   0.419  0.00  0.00     0.099 A 
HETATM   23  C   UNK N   1       2.932  -0.988   1.526  0.00  0.00     0.040 A 
HETATM   24  C   UNK N   1       1.771  -0.394   2.032  0.00  0.00     0.010 A 
BRANCH  21  25
HETATM   25  O   UNK N   1       3.727   1.251  -1.272  0.00  0.00    -0.353 OA
HETATM   26  C   UNK N   1       3.317   2.368  -1.975  0.00  0.00     0.210 C 
ENDBRANCH  21  25
BRANCH  22  27
HETATM   27  O   UNK N   1       4.707  -1.035  -0.049  0.00  0.00    -0.358 OA
HETATM   28  H   UNK N   1       5.199  -0.692  -0.809  0.00  0.00     0.218 HD
ENDBRANCH  22  27
ENDBRANCH  18  19
ENDBRANCH   4  18
TORSDOF 8
