REMARK  6 active torsions:
REMARK  status: ('A' for Active; 'I' for Inactive)
REMARK    1  A    between atoms: O_8  and  C_24 
REMARK    2  A    between atoms: O_9  and  C_27 
REMARK    3  A    between atoms: C_12  and  C_14 
REMARK    4  A    between atoms: C_17  and  C_29 
REMARK    5  A    between atoms: C_18  and  C_27 
REMARK    6  A    between atoms: C_24  and  C_29 
ROOT
HETATM    1  O   UNK N   1       0.623   1.453  -1.504  0.00  0.00    -0.356 OA
HETATM    2  O   UNK N   1       3.148   0.634  -0.317  0.00  0.00    -0.308 OA
HETATM    3  O   UNK N   1      -4.510  -2.218  -3.767  0.00  0.00    -0.374 OA
HETATM    4  O   UNK N   1       3.870   1.565  -2.206  0.00  0.00    -0.262 OA
HETATM    5  O   UNK N   1       0.484  -1.451  -4.192  0.00  0.00    -0.297 OA
HETATM    6  C   UNK N   1       2.093   0.287   0.507  0.00  0.00     0.178 C 
HETATM    7  C   UNK N   1       0.566   0.049  -1.545  0.00  0.00     0.122 A 
HETATM    8  C   UNK N   1       1.634   0.811  -2.280  0.00  0.00     0.258 A 
HETATM    9  C   UNK N   1      -3.984  -1.209  -2.939  0.00  0.00     0.143 C 
HETATM   10  C   UNK N   1      -3.004  -1.922  -1.948  0.00  0.00     0.019 C 
HETATM   11  C   UNK N   1       1.100  -0.663  -0.257  0.00  0.00     0.023 C 
HETATM   12  C   UNK N   1      -0.701  -0.516  -2.346  0.00  0.00     0.056 C 
HETATM   13  C   UNK N   1      -1.829  -1.022  -1.309  0.00  0.00     0.018 C 
HETATM   14  C   UNK N   1      -2.444  -3.040  -2.880  0.00  0.00     0.040 C 
HETATM   15  C   UNK N   1       2.953   1.041  -1.593  0.00  0.00     0.291 C 
HETATM   16  C   UNK N   1      -0.306  -1.658  -3.282  0.00  0.00     0.139 C 
HETATM   17  C   UNK N   1      -3.413  -3.043  -4.110  0.00  0.00     0.059 C 
HETATM   18  C   UNK N   1      -0.115  -0.962   0.633  0.00  0.00     0.016 C 
HETATM   19  C   UNK N   1      -1.180  -1.778  -0.090  0.00  0.00     0.008 C 
HETATM   20  C   UNK N   1      -0.912  -3.035  -3.136  0.00  0.00     0.087 C 
HETATM   21  C   UNK N   1       1.859  -1.963  -0.635  0.00  0.00     0.021 C 
HETATM   22  C   UNK N   1      -1.247   0.633  -3.263  0.00  0.00     0.027 C 
HETATM   23  C   UNK N   1      -2.775  -2.535  -5.426  0.00  0.00     0.046 C 
HETATM   24  C   UNK N   1      -3.959  -4.459  -4.364  0.00  0.00     0.046 C 
ENDROOT
BRANCH   6  25
HETATM   25  C   UNK N   1       2.633  -0.262   1.806  0.00  0.00    -0.004 A 
HETATM   26  C   UNK N   1       3.847  -0.886   2.009  0.00  0.00     0.151 A 
HETATM   27  O   UNK N   1       3.961  -1.203   3.279  0.00  0.00    -0.334 OA
HETATM   28  C   UNK N   1       2.882  -0.811   3.922  0.00  0.00     0.142 A 
HETATM   29  C   UNK N   1       2.014  -0.210   3.036  0.00  0.00     0.036 A 
ENDBRANCH   6  25
BRANCH  10  30
HETATM   30  C   UNK N   1      -3.896  -2.629  -0.846  0.00  0.00     0.177 C 
BRANCH  30  31
HETATM   31  O   UNK N   1      -4.551  -1.746   0.032  0.00  0.00    -0.400 OA
HETATM   32  H   UNK N   1      -3.880  -1.193   0.500  0.00  0.00     0.209 HD
ENDBRANCH  30  31
ENDBRANCH  10  30
BRANCH   9  33
HETATM   33  C   UNK N   1      -5.126  -0.355  -2.348  0.00  0.00     0.144 C 
BRANCH  33  34
HETATM   34  C   UNK N   1      -5.974   0.252  -3.430  0.00  0.00     0.260 C 
HETATM   35  O   UNK N   1      -5.486   1.052  -4.216  0.00  0.00    -0.265 OA
BRANCH  34  36
HETATM   36  O   UNK N   1      -7.279  -0.113  -3.527  0.00  0.00    -0.326 OA
HETATM   37  C   UNK N   1      -8.130   0.352  -4.505  0.00  0.00     0.213 C 
ENDBRANCH  34  36
ENDBRANCH  33  34
ENDBRANCH   9  33
TORSDOF 6
