REMARK  4 active torsions:
REMARK  status: ('A' for Active; 'I' for Inactive)
REMARK    1  A    between atoms: O_7  and  C_19 
REMARK    2  A    between atoms: C_10  and  C_13 
REMARK    3  A    between atoms: C_17  and  C_28 
REMARK    4  A    between atoms: C_19  and  C_28 
ROOT
HETATM    1  O   UNK N   1       3.406   0.801  -0.420  0.00  0.00    -0.310 OA
HETATM    2  O   UNK N   1       4.822   1.933  -1.714  0.00  0.00    -0.265 OA
HETATM    3  O   UNK N   1      -0.823  -1.427  -4.948  0.00  0.00    -0.296 OA
HETATM    4  O   UNK N   1      -1.258   2.803  -6.205  0.00  0.00    -0.296 OA
HETATM    5  C   UNK N   1      -0.486   0.884  -5.121  0.00  0.00     0.130 C 
HETATM    6  C   UNK N   1       2.137   0.398  -0.017  0.00  0.00     0.179 C 
HETATM    7  C   UNK N   1      -1.904  -0.098  -3.259  0.00  0.00     0.030 C 
HETATM    8  C   UNK N   1       1.071   1.535  -0.241  0.00  0.00     0.011 C 
HETATM    9  C   UNK N   1      -1.085   0.754  -2.185  0.00  0.00     0.031 C 
HETATM   10  C   UNK N   1      -3.192   0.668  -3.794  0.00  0.00     0.026 C 
HETATM   11  C   UNK N   1       3.663   1.652  -1.450  0.00  0.00     0.263 C 
HETATM   12  C   UNK N   1      -1.047  -0.317  -4.483  0.00  0.00     0.147 C 
HETATM   13  C   UNK N   1      -1.550   1.900  -5.430  0.00  0.00     0.146 C 
HETATM   14  C   UNK N   1       0.570   1.461  -4.166  0.00  0.00     0.054 C 
HETATM   15  C   UNK N   1       1.199   1.805  -1.749  0.00  0.00    -0.057 C 
HETATM   16  C   UNK N   1       0.246   1.391  -2.664  0.00  0.00    -0.070 C 
HETATM   17  C   UNK N   1      -2.886   1.975  -4.684  0.00  0.00     0.019 C 
HETATM   18  C   UNK N   1      -0.357   1.107   0.168  0.00  0.00     0.017 C 
HETATM   19  C   UNK N   1      -0.942   0.091  -0.797  0.00  0.00     0.011 C 
HETATM   20  C   UNK N   1      -2.307  -1.515  -2.725  0.00  0.00     0.025 C 
HETATM   21  C   UNK N   1       1.420   2.780   0.617  0.00  0.00     0.023 C 
HETATM   22  C   UNK N   1       2.552   2.358  -2.184  0.00  0.00     0.146 C 
HETATM   23  C   UNK N   1      -2.816   3.293  -3.869  0.00  0.00     0.023 C 
HETATM   24  C   UNK N   1      -3.998   2.138  -5.759  0.00  0.00     0.023 C 
ENDROOT
BRANCH   6  25
HETATM   25  C   UNK N   1       2.221  -0.130   1.394  0.00  0.00    -0.004 A 
HETATM   26  C   UNK N   1       1.383  -1.057   1.984  0.00  0.00     0.151 A 
HETATM   27  O   UNK N   1       1.789  -1.282   3.214  0.00  0.00    -0.334 OA
HETATM   28  C   UNK N   1       2.855  -0.551   3.459  0.00  0.00     0.142 A 
HETATM   29  C   UNK N   1       3.171   0.189   2.340  0.00  0.00     0.036 A 
ENDBRANCH   6  25
BRANCH  10  30
HETATM   30  C   UNK N   1      -4.257   0.879  -2.656  0.00  0.00     0.118 C 
BRANCH  30  31
HETATM   31  C   UNK N   1      -5.582   1.421  -3.099  0.00  0.00     0.258 C 
HETATM   32  O   UNK N   1      -6.277   0.781  -3.878  0.00  0.00    -0.265 OA
BRANCH  31  33
HETATM   33  O   UNK N   1      -5.998   2.620  -2.617  0.00  0.00    -0.326 OA
HETATM   34  C   UNK N   1      -7.133   3.269  -3.048  0.00  0.00     0.213 C 
ENDBRANCH  31  33
ENDBRANCH  30  31
ENDBRANCH  10  30
TORSDOF 4
