REMARK  14 active torsions:
REMARK  status: ('A' for Active; 'I' for Inactive)
REMARK    1  A    between atoms: O_1  and  C_11 
REMARK    2  A    between atoms: O_2  and  C_12 
REMARK    3  A    between atoms: O_3  and  C_13 
REMARK    4  A    between atoms: O_5  and  C_30 
REMARK    5  A    between atoms: O_6  and  C_31 
REMARK    6  A    between atoms: O_7  and  C_32 
REMARK    7  A    between atoms: O_9  and  C_37 
REMARK    8  A    between atoms: O_9  and  C_38 
REMARK    9  A    between atoms: O_10  and  C_36 
REMARK   10  A    between atoms: C_18  and  C_36 
REMARK   11  A    between atoms: C_19  and  C_39 
REMARK   12  A    between atoms: C_29  and  C_34 
REMARK   13  A    between atoms: C_33  and  C_37 
REMARK   14  A    between atoms: C_38  and  C_40 
ROOT
HETATM    1  O   UNK N   1       4.617   1.346  -1.621  0.00  0.00    -0.372 OA
HETATM    2  C   UNK N   1       5.427   0.622  -0.700  0.00  0.00     0.166 C 
HETATM    3  C   UNK N   1       5.233  -0.904  -0.932  0.00  0.00     0.179 C 
HETATM    4  C   UNK N   1       5.595  -1.274  -2.385  0.00  0.00     0.180 C 
HETATM    5  C   UNK N   1       4.799  -0.371  -3.337  0.00  0.00     0.180 C 
HETATM    6  C   UNK N   1       5.020   1.118  -2.964  0.00  0.00     0.177 C 
ENDROOT
BRANCH   2   7
HETATM    7  C   UNK N   1       5.082   1.119   0.749  0.00  0.00     0.085 C 
HETATM    8  C   UNK N   1       5.429   2.604   0.850  0.00  0.00    -0.029 A 
HETATM    9  C   UNK N   1       4.432   3.616   0.893  0.00  0.00     0.055 A 
HETATM   10  C   UNK N   1       6.790   2.965   0.895  0.00  0.00     0.018 A 
HETATM   11  C   UNK N   1       4.846   4.987   0.985  0.00  0.00     0.081 A 
HETATM   12  C   UNK N   1       2.999   3.197   0.867  0.00  0.00     0.199 C 
HETATM   13  C   UNK N   1       6.204   5.297   1.056  0.00  0.00     0.046 A 
HETATM   14  C   UNK N   1       7.177   4.301   1.015  0.00  0.00    -0.032 A 
HETATM   15  O   UNK N   1       2.110   4.018   0.711  0.00  0.00    -0.286 OA
HETATM   16  C   UNK N   1       2.637   1.786   1.143  0.00  0.00     0.055 A 
HETATM   17  C   UNK N   1       1.301   1.421   1.454  0.00  0.00     0.080 A 
HETATM   18  C   UNK N   1       3.642   0.796   1.137  0.00  0.00    -0.030 A 
HETATM   19  C   UNK N   1       0.995   0.097   1.789  0.00  0.00     0.037 A 
HETATM   20  C   UNK N   1       1.997  -0.866   1.825  0.00  0.00     0.003 A 
HETATM   21  C   UNK N   1       3.305  -0.523   1.501  0.00  0.00     0.009 A 
BRANCH  11  22
HETATM   22  O   UNK N   1       3.989   6.035   1.038  0.00  0.00    -0.360 OA
HETATM   23  H   UNK N   1       3.030   5.999   1.028  0.00  0.00     0.217 HD
ENDBRANCH  11  22
BRANCH  14  24
HETATM   24  C   UNK N   1       8.633   4.670   1.116  0.00  0.00     0.203 C 
BRANCH  24  25
HETATM   25  O   UNK N   1       9.300   4.349  -0.072  0.00  0.00    -0.396 OA
HETATM   26  H   UNK N   1       9.117   5.097  -0.702  0.00  0.00     0.209 HD
ENDBRANCH  24  25
ENDBRANCH  14  24
BRANCH  17  27
HETATM   27  O   UNK N   1       0.316   2.347   1.452  0.00  0.00    -0.360 OA
HETATM   28  H   UNK N   1      -0.600   2.120   1.662  0.00  0.00     0.217 HD
ENDBRANCH  17  27
ENDBRANCH   2   7
BRANCH   3  29
HETATM   29  O   UNK N   1       5.992  -1.662  -0.023  0.00  0.00    -0.390 OA
HETATM   30  H   UNK N   1       6.948  -1.444  -0.175  0.00  0.00     0.210 HD
ENDBRANCH   3  29
BRANCH   6  31
HETATM   31  C   UNK N   1       4.192   2.035  -3.880  0.00  0.00     0.202 C 
BRANCH  31  32
HETATM   32  O   UNK N   1       2.836   1.654  -3.797  0.00  0.00    -0.385 OA
BRANCH  32  33
HETATM   33  C   UNK N   1       1.992   2.679  -4.261  0.00  0.00     0.195 C 
BRANCH  33  34
HETATM   34  C   UNK N   1       0.588   2.245  -3.971  0.00  0.00    -0.000 C 
HETATM   35  C   UNK N   1      -0.381   2.256  -4.903  0.00  0.00     0.009 C 
BRANCH  35  36
HETATM   36  C   UNK N   1      -1.775   1.832  -4.600  0.00  0.00    -0.036 A 
HETATM   37  C   UNK N   1      -2.823   2.308  -5.406  0.00  0.00     0.014 A 
HETATM   38  C   UNK N   1      -4.147   1.955  -5.125  0.00  0.00     0.037 A 
HETATM   39  C   UNK N   1      -4.439   1.103  -4.055  0.00  0.00     0.065 A 
HETATM   40  C   UNK N   1      -3.398   0.603  -3.262  0.00  0.00     0.037 A 
HETATM   41  C   UNK N   1      -2.077   0.969  -3.525  0.00  0.00     0.014 A 
BRANCH  39  42
HETATM   42  O   UNK N   1      -5.719   0.770  -3.795  0.00  0.00    -0.361 OA
HETATM   43  H   UNK N   1      -5.953   0.187  -3.059  0.00  0.00     0.217 HD
ENDBRANCH  39  42
ENDBRANCH  35  36
ENDBRANCH  33  34
ENDBRANCH  32  33
ENDBRANCH  31  32
ENDBRANCH   6  31
BRANCH   4  44
HETATM   44  O   UNK N   1       5.273  -2.615  -2.652  0.00  0.00    -0.390 OA
HETATM   45  H   UNK N   1       5.899  -3.177  -2.126  0.00  0.00     0.210 HD
ENDBRANCH   4  44
BRANCH   5  46
HETATM   46  O   UNK N   1       5.140  -0.631  -4.677  0.00  0.00    -0.390 OA
HETATM   47  H   UNK N   1       6.092  -0.379  -4.798  0.00  0.00     0.210 HD
ENDBRANCH   5  46
TORSDOF 14
