REMARK  11 active torsions:
REMARK  status: ('A' for Active; 'I' for Inactive)
REMARK       I    between atoms: N_3  and  C_18 
REMARK    1  A    between atoms: N_3  and  C_20 
REMARK       I    between atoms: N_4  and  C_19 
REMARK    2  A    between atoms: N_4  and  C_21 
REMARK    3  A    between atoms: N_5  and  C_22 
REMARK    4  A    between atoms: N_5  and  C_23 
REMARK    5  A    between atoms: C_6  and  C_18 
REMARK    6  A    between atoms: C_7  and  C_19 
REMARK    7  A    between atoms: C_20  and  C_24 
REMARK    8  A    between atoms: C_21  and  C_25 
REMARK    9  A    between atoms: C_22  and  C_24 
REMARK   10  A    between atoms: C_23  and  C_26 
REMARK   11  A    between atoms: C_25  and  C_26 
ROOT
HETATM    1  N   UNK N   1      -2.132  -0.389  -4.493  0.00  0.00     0.083 N 
HETATM    2  H   UNK N   1      -2.032  -1.139  -5.218  0.00  0.00     0.315 HD
ENDROOT
BRANCH   1   3
HETATM    3  C   UNK N   1      -3.548  -0.051  -4.363  0.00  0.00     0.271 C 
BRANCH   3   4
HETATM    4  C   UNK N   1      -4.078   0.539  -5.675  0.00  0.00     0.050 C 
BRANCH   4   5
HETATM    5  C   UNK N   1      -5.559   0.899  -5.539  0.00  0.00     0.124 C 
BRANCH   5   6
HETATM    6  N   UNK N   1      -6.333  -0.309  -5.303  0.00  0.00    -0.357 N 
HETATM    7  C   UNK N   1      -7.022  -0.530  -4.142  0.00  0.00     0.251 C 
HETATM    8  O   UNK N   1      -7.008   0.319  -3.262  0.00  0.00    -0.268 OA
HETATM    9  H   UNK N   1      -6.326  -1.011  -6.051  0.00  0.00     0.162 HD
BRANCH   7  10
HETATM   10  C   UNK N   1      -7.794  -1.797  -3.906  0.00  0.00     0.032 A 
HETATM   11  C   UNK N   1      -8.544  -1.931  -2.718  0.00  0.00     0.017 A 
HETATM   12  C   UNK N   1      -9.287  -3.088  -2.469  0.00  0.00     0.001 A 
HETATM   13  C   UNK N   1      -9.290  -4.131  -3.393  0.00  0.00     0.000 A 
HETATM   14  C   UNK N   1      -8.547  -4.024  -4.568  0.00  0.00     0.001 A 
HETATM   15  C   UNK N   1      -7.803  -2.870  -4.829  0.00  0.00     0.017 A 
ENDBRANCH   7  10
ENDBRANCH   5   6
ENDBRANCH   4   5
ENDBRANCH   3   4
ENDBRANCH   1   3
BRANCH   1  16
HETATM   16  C   UNK N   1      -1.617  -0.897  -3.217  0.00  0.00     0.269 C 
BRANCH  16  17
HETATM   17  C   UNK N   1      -0.137  -1.259  -3.346  0.00  0.00     0.031 C 
BRANCH  17  18
HETATM   18  C   UNK N   1       0.757  -0.073  -3.761  0.00  0.00     0.021 C 
BRANCH  18  19
HETATM   19  C   UNK N   1       0.775   1.107  -2.778  0.00  0.00     0.123 C 
BRANCH  19  20
HETATM   20  N   UNK N   1       1.127   0.643  -1.447  0.00  0.00    -0.357 N 
HETATM   21  C   UNK N   1       2.306   0.963  -0.835  0.00  0.00     0.251 C 
HETATM   22  O   UNK N   1       3.107   1.688  -1.407  0.00  0.00    -0.268 OA
HETATM   23  H   UNK N   1       0.444   0.046  -0.974  0.00  0.00     0.162 HD
BRANCH  21  24
HETATM   24  C   UNK N   1       2.653   0.434   0.527  0.00  0.00     0.032 A 
HETATM   25  C   UNK N   1       3.832   0.884   1.157  0.00  0.00     0.017 A 
HETATM   26  C   UNK N   1       4.183   0.421   2.428  0.00  0.00     0.001 A 
HETATM   27  C   UNK N   1       3.371  -0.501   3.087  0.00  0.00     0.000 A 
HETATM   28  C   UNK N   1       2.208  -0.967   2.477  0.00  0.00     0.001 A 
HETATM   29  C   UNK N   1       1.845  -0.508   1.208  0.00  0.00     0.017 A 
ENDBRANCH  21  24
ENDBRANCH  19  20
ENDBRANCH  18  19
ENDBRANCH  17  18
ENDBRANCH  16  17
ENDBRANCH   1  16
TORSDOF 11
