REMARK  9 active torsions:
REMARK  status: ('A' for Active; 'I' for Inactive)
REMARK    1  A    between atoms: O_1  and  C_10 
REMARK    2  A    between atoms: O_2  and  C_11 
REMARK    3  A    between atoms: O_3  and  C_12 
REMARK    4  A    between atoms: O_5  and  C_23 
REMARK    5  A    between atoms: O_6  and  C_24 
REMARK    6  A    between atoms: O_7  and  C_25 
REMARK    7  A    between atoms: O_9  and  C_29 
REMARK    8  A    between atoms: C_22  and  C_27 
REMARK    9  A    between atoms: C_26  and  C_29 
ROOT
HETATM    1  O   UNK N   1      -2.046  -2.221  -2.377  0.00  0.00    -0.286 OA
HETATM    2  C   UNK N   1      -3.789  -0.078  -3.031  0.00  0.00     0.113 A 
HETATM    3  C   UNK N   1      -4.557   1.072  -3.350  0.00  0.00     0.099 A 
HETATM    4  C   UNK N   1      -0.036  -1.972  -0.268  0.00  0.00     0.081 A 
HETATM    5  C   UNK N   1      -0.049   0.400  -0.908  0.00  0.00    -0.029 A 
HETATM    6  C   UNK N   1      -1.975   1.365  -2.249  0.00  0.00    -0.030 A 
HETATM    7  C   UNK N   1      -2.496   0.074  -2.463  0.00  0.00     0.058 A 
HETATM    8  C   UNK N   1      -0.577  -0.910  -1.066  0.00  0.00     0.055 A 
HETATM    9  C   UNK N   1       1.489  -0.411   0.803  0.00  0.00    -0.059 A 
HETATM   10  C   UNK N   1       0.979  -1.698   0.651  0.00  0.00     0.044 A 
HETATM   11  C   UNK N   1      -4.040   2.339  -3.082  0.00  0.00     0.040 A 
HETATM   12  C   UNK N   1       0.985   0.628   0.019  0.00  0.00     0.015 A 
HETATM   13  C   UNK N   1      -2.771   2.486  -2.537  0.00  0.00     0.012 A 
HETATM   14  C   UNK N   1      -0.554   1.575  -1.746  0.00  0.00     0.085 C 
HETATM   15  C   UNK N   1      -1.700  -1.103  -2.032  0.00  0.00     0.199 C 
HETATM   16  C   UNK N   1       2.567  -0.159   1.816  0.00  0.00     0.048 C 
ENDROOT
BRANCH  14  17
HETATM   17  C   UNK N   1       0.471   1.853  -2.912  0.00  0.00     0.166 C 
HETATM   18  O   UNK N   1       1.724   2.168  -2.317  0.00  0.00    -0.372 OA
HETATM   19  C   UNK N   1       2.770   2.221  -3.272  0.00  0.00     0.176 C 
HETATM   20  C   UNK N   1       2.537   3.411  -4.230  0.00  0.00     0.180 C 
HETATM   21  C   UNK N   1       1.193   3.229  -4.940  0.00  0.00     0.180 C 
HETATM   22  C   UNK N   1       0.077   3.000  -3.903  0.00  0.00     0.179 C 
BRANCH  19  23
HETATM   23  C   UNK N   1       4.102   2.388  -2.526  0.00  0.00     0.198 C 
BRANCH  23  24
HETATM   24  O   UNK N   1       4.340   1.287  -1.691  0.00  0.00    -0.398 OA
HETATM   25  H   UNK N   1       3.785   1.417  -0.879  0.00  0.00     0.209 HD
ENDBRANCH  23  24
ENDBRANCH  19  23
BRANCH  20  26
HETATM   26  O   UNK N   1       3.577   3.537  -5.169  0.00  0.00    -0.390 OA
HETATM   27  H   UNK N   1       3.622   2.691  -5.687  0.00  0.00     0.210 HD
ENDBRANCH  20  26
BRANCH  21  28
HETATM   28  O   UNK N   1       0.922   4.365  -5.721  0.00  0.00    -0.390 OA
HETATM   29  H   UNK N   1       0.136   4.152  -6.287  0.00  0.00     0.210 HD
ENDBRANCH  21  28
BRANCH  22  30
HETATM   30  O   UNK N   1      -1.109   2.726  -4.604  0.00  0.00    -0.390 OA
HETATM   31  H   UNK N   1      -1.016   1.830  -5.022  0.00  0.00     0.210 HD
ENDBRANCH  22  30
ENDBRANCH  14  17
BRANCH   4  32
HETATM   32  O   UNK N   1      -0.474  -3.252  -0.322  0.00  0.00    -0.360 OA
HETATM   33  H   UNK N   1      -1.191  -3.593  -0.862  0.00  0.00     0.217 HD
ENDBRANCH   4  32
BRANCH   2  34
HETATM   34  O   UNK N   1      -4.276  -1.326  -3.236  0.00  0.00    -0.357 OA
HETATM   35  H   UNK N   1      -5.150  -1.524  -3.589  0.00  0.00     0.218 HD
ENDBRANCH   2  34
BRANCH   3  36
HETATM   36  O   UNK N   1      -5.788   0.996  -3.901  0.00  0.00    -0.358 OA
HETATM   37  H   UNK N   1      -6.226   0.173  -4.149  0.00  0.00     0.218 HD
ENDBRANCH   3  36
TORSDOF 9
