REMARK  5 active torsions:
REMARK  status: ('A' for Active; 'I' for Inactive)
REMARK    1  A    between atoms: O_1  and  C_8 
REMARK    2  A    between atoms: O_1  and  C_15 
REMARK    3  A    between atoms: O_2  and  C_10 
REMARK    4  A    between atoms: O_2  and  C_16 
REMARK    5  A    between atoms: O_3  and  C_9 
ROOT
HETATM    1  O   UNK N   1       4.956   1.576  -2.011  0.00  0.00    -0.260 OA
HETATM    2  O   UNK N   1       2.786   1.007  -2.341  0.00  0.00    -0.275 OA
HETATM    3  C   UNK N   1      -2.388  -0.393  -2.488  0.00  0.00     0.173 C 
HETATM    4  C   UNK N   1      -2.716  -0.995  -0.003  0.00  0.00     0.075 C 
HETATM    5  C   UNK N   1      -3.921  -0.181  -2.616  0.00  0.00     0.163 C 
HETATM    6  C   UNK N   1      -1.863  -0.098  -1.029  0.00  0.00     0.024 C 
HETATM    7  C   UNK N   1      -0.333  -0.507  -0.853  0.00  0.00     0.029 C 
HETATM    8  C   UNK N   1       0.165  -0.255   0.631  0.00  0.00     0.002 C 
HETATM    9  C   UNK N   1       1.669  -0.642   0.807  0.00  0.00     0.022 C 
HETATM   10  C   UNK N   1       3.914   1.087  -1.605  0.00  0.00     0.288 A 
HETATM   11  C   UNK N   1       1.869   0.413  -1.549  0.00  0.00     0.083 A 
HETATM   12  C   UNK N   1       2.449   0.083  -0.260  0.00  0.00    -0.014 A 
HETATM   13  C   UNK N   1       0.599   0.159  -1.872  0.00  0.00     0.017 C 
HETATM   14  C   UNK N   1      -4.304  -0.853  -0.150  0.00  0.00    -0.013 C 
HETATM   15  C   UNK N   1      -2.223  -0.692   1.450  0.00  0.00     0.040 C 
HETATM   16  C   UNK N   1      -4.682  -1.092  -1.638  0.00  0.00     0.047 C 
HETATM   17  C   UNK N   1      -0.733  -1.017   1.626  0.00  0.00     0.009 C 
HETATM   18  C   UNK N   1      -1.943   1.457  -0.813  0.00  0.00     0.022 C 
HETATM   19  C   UNK N   1       2.225  -0.351   2.213  0.00  0.00     0.015 C 
HETATM   20  C   UNK N   1       3.714   0.499  -0.278  0.00  0.00     0.093 A 
HETATM   21  C   UNK N   1      -5.046  -1.947   0.675  0.00  0.00     0.018 C 
HETATM   22  C   UNK N   1      -4.900   0.491   0.351  0.00  0.00     0.018 C 
ENDROOT
BRANCH   3  23
HETATM   23  O   UNK N   1      -2.096  -1.698  -2.865  0.00  0.00    -0.313 OA
BRANCH  23  24
HETATM   24  C   UNK N   1      -1.655  -2.067  -4.099  0.00  0.00     0.255 C 
HETATM   25  O   UNK N   1      -1.515  -1.241  -4.991  0.00  0.00    -0.266 OA
HETATM   26  C   UNK N   1      -1.383  -3.508  -4.376  0.00  0.00     0.126 C 
ENDBRANCH  23  24
ENDBRANCH   3  23
BRANCH   5  27
HETATM   27  O   UNK N   1      -4.306  -0.496  -3.910  0.00  0.00    -0.314 OA
BRANCH  27  28
HETATM   28  C   UNK N   1      -5.368   0.050  -4.557  0.00  0.00     0.255 C 
HETATM   29  O   UNK N   1      -6.027   0.944  -4.044  0.00  0.00    -0.266 OA
HETATM   30  C   UNK N   1      -5.730  -0.456  -5.915  0.00  0.00     0.126 C 
ENDBRANCH  27  28
ENDBRANCH   5  27
BRANCH   4  31
HETATM   31  O   UNK N   1      -2.408  -2.346  -0.314  0.00  0.00    -0.388 OA
HETATM   32  H   UNK N   1      -2.536  -2.921   0.486  0.00  0.00     0.210 HD
ENDBRANCH   4  31
TORSDOF 5
