REMARK  4 active torsions:
REMARK  status: ('A' for Active; 'I' for Inactive)
REMARK    1  A    between atoms: O_1  and  C_6 
REMARK    2  A    between atoms: O_2  and  C_7 
REMARK    3  A    between atoms: O_3  and  C_8 
REMARK    4  A    between atoms: O_4  and  C_9 
ROOT
HETATM    1  N   UNK N   1       0.250   1.249  -2.607  0.00  0.00    -0.355 N 
HETATM    2  C   UNK N   1       3.087   0.717  -0.293  0.00  0.00     0.114 A 
HETATM    3  C   UNK N   1       3.331   0.085   0.947  0.00  0.00     0.102 A 
HETATM    4  C   UNK N   1      -4.569   0.444  -2.461  0.00  0.00     0.102 A 
HETATM    5  C   UNK N   1      -4.647   0.620  -3.853  0.00  0.00     0.102 A 
HETATM    6  C   UNK N   1      -0.792   0.670  -1.914  0.00  0.00     0.046 A 
HETATM    7  C   UNK N   1       1.514   1.264  -2.091  0.00  0.00     0.106 A 
HETATM    8  C   UNK N   1       1.788   0.690  -0.841  0.00  0.00     0.026 A 
HETATM    9  C   UNK N   1       0.735   0.088  -0.121  0.00  0.00    -0.020 A 
HETATM   10  C   UNK N   1      -2.143   0.633  -2.550  0.00  0.00    -0.000 A 
HETATM   11  C   UNK N   1      -2.221   0.829  -3.942  0.00  0.00    -0.041 A 
HETATM   12  C   UNK N   1      -3.327   0.438  -1.816  0.00  0.00     0.054 A 
HETATM   13  C   UNK N   1      -3.462   0.822  -4.587  0.00  0.00     0.047 A 
HETATM   14  C   UNK N   1       2.280  -0.518   1.644  0.00  0.00     0.040 A 
HETATM   15  C   UNK N   1      -0.554   0.088  -0.656  0.00  0.00     0.043 A 
HETATM   16  C   UNK N   1       0.988  -0.508   1.121  0.00  0.00     0.015 A 
HETATM   17  C   UNK N   1      -0.011   1.895  -3.908  0.00  0.00     0.133 C 
HETATM   18  C   UNK N   1      -0.950   1.022  -4.733  0.00  0.00     0.060 C 
ENDROOT
BRANCH   2  19
HETATM   19  O   UNK N   1       4.077   1.357  -0.967  0.00  0.00    -0.352 OA
HETATM   20  C   UNK N   1       4.814   2.384  -0.409  0.00  0.00     0.210 C 
ENDBRANCH   2  19
BRANCH   3  21
HETATM   21  O   UNK N   1       4.578   0.025   1.460  0.00  0.00    -0.353 OA
HETATM   22  C   UNK N   1       5.417  -1.025   1.150  0.00  0.00     0.210 C 
ENDBRANCH   3  21
BRANCH   4  23
HETATM   23  O   UNK N   1      -5.696   0.291  -1.732  0.00  0.00    -0.353 OA
HETATM   24  C   UNK N   1      -6.356   1.386  -1.216  0.00  0.00     0.210 C 
ENDBRANCH   4  23
BRANCH   5  25
HETATM   25  O   UNK N   1      -5.866   0.585  -4.454  0.00  0.00    -0.353 OA
HETATM   26  C   UNK N   1      -6.075   0.685  -5.816  0.00  0.00     0.210 C 
ENDBRANCH   5  25
TORSDOF 4
