REMARK  8 active torsions:
REMARK  status: ('A' for Active; 'I' for Inactive)
REMARK    1  A    between atoms: O_1  and  C_5 
REMARK    2  A    between atoms: O_2  and  C_6 
REMARK    3  A    between atoms: O_4  and  C_15 
REMARK    4  A    between atoms: C_5  and  C_6 
REMARK    5  A    between atoms: C_5  and  C_15 
REMARK    6  A    between atoms: C_6  and  C_17 
REMARK    7  A    between atoms: C_9  and  C_13 
REMARK    8  A    between atoms: C_13  and  C_17 
ROOT
HETATM    1  O   UNK N   1       5.756   1.055  -1.815  0.00  0.00    -0.297 OA
HETATM    2  C   UNK N   1      -2.013   1.023  -0.261  0.00  0.00    -0.029 C 
HETATM    3  C   UNK N   1       2.032  -0.474  -1.344  0.00  0.00    -0.031 C 
HETATM    4  C   UNK N   1      -3.189   1.896   0.282  0.00  0.00    -0.002 C 
HETATM    5  C   UNK N   1      -0.839   1.477   0.679  0.00  0.00    -0.013 C 
HETATM    6  C   UNK N   1       0.878   0.579  -1.084  0.00  0.00     0.024 C 
HETATM    7  C   UNK N   1       3.079  -0.468  -0.171  0.00  0.00     0.013 C 
HETATM    8  C   UNK N   1       4.564   1.021  -1.551  0.00  0.00     0.135 C 
HETATM    9  C   UNK N   1       0.404   0.621   0.383  0.00  0.00    -0.070 C 
HETATM   10  C   UNK N   1       4.072   0.774  -0.124  0.00  0.00     0.018 C 
HETATM   11  C   UNK N   1      -1.547   1.269  -1.737  0.00  0.00     0.011 C 
HETATM   12  C   UNK N   1       2.767  -0.191  -2.691  0.00  0.00     0.017 C 
HETATM   13  C   UNK N   1      -2.947   1.880   1.828  0.00  0.00     0.007 C 
HETATM   14  C   UNK N   1      -1.503   1.374   2.059  0.00  0.00     0.015 C 
HETATM   15  C   UNK N   1      -0.320   0.401  -2.072  0.00  0.00     0.010 C 
HETATM   16  C   UNK N   1       2.356  -0.785   1.168  0.00  0.00     0.034 C 
HETATM   17  C   UNK N   1      -2.406  -0.489  -0.079  0.00  0.00     0.016 C 
HETATM   18  C   UNK N   1       1.449  -1.920  -1.446  0.00  0.00     0.016 C 
HETATM   19  C   UNK N   1      -0.387   2.973   0.531  0.00  0.00     0.021 C 
HETATM   20  C   UNK N   1       1.068  -0.023   1.376  0.00  0.00    -0.022 C 
HETATM   21  C   UNK N   1       3.567   1.118  -2.668  0.00  0.00     0.080 C 
HETATM   22  C   UNK N   1       5.297   0.419   0.771  0.00  0.00     0.023 C 
HETATM   23  C   UNK N   1       3.475   2.078   0.453  0.00  0.00     0.023 C 
ENDROOT
BRANCH   4  24
HETATM   24  C   UNK N   1      -4.678   1.589  -0.110  0.00  0.00    -0.011 C 
HETATM   25  C   UNK N   1      -5.633   2.554   0.625  0.00  0.00     0.010 C 
BRANCH  24  26
HETATM   26  C   UNK N   1      -4.882   1.684  -1.646  0.00  0.00     0.039 C 
BRANCH  26  27
HETATM   27  C   UNK N   1      -6.311   1.467  -2.193  0.00  0.00     0.150 C 
BRANCH  27  28
HETATM   28  O   UNK N   1      -6.311   1.669  -3.586  0.00  0.00    -0.393 OA
HETATM   29  H   UNK N   1      -5.626   1.079  -3.995  0.00  0.00     0.210 HD
ENDBRANCH  27  28
BRANCH  27  30
HETATM   30  C   UNK N   1      -6.900   0.073  -1.808  0.00  0.00     0.180 C 
BRANCH  30  31
HETATM   31  O   UNK N   1      -6.068  -0.978  -2.243  0.00  0.00    -0.390 OA
HETATM   32  H   UNK N   1      -6.039  -0.973  -3.232  0.00  0.00     0.210 HD
ENDBRANCH  30  31
BRANCH  30  33
HETATM   33  C   UNK N   1      -8.399  -0.191  -2.193  0.00  0.00     0.079 C 
HETATM   34  C   UNK N   1      -8.647  -0.179  -3.715  0.00  0.00     0.048 C 
HETATM   35  C   UNK N   1      -9.326   0.860  -1.544  0.00  0.00     0.048 C 
BRANCH  33  36
HETATM   36  O   UNK N   1      -8.764  -1.470  -1.729  0.00  0.00    -0.388 OA
HETATM   37  H   UNK N   1      -8.670  -1.483  -0.740  0.00  0.00     0.210 HD
ENDBRANCH  33  36
ENDBRANCH  30  33
ENDBRANCH  27  30
ENDBRANCH  26  27
ENDBRANCH  24  26
ENDBRANCH   4  24
TORSDOF 8
