REMARK  5 active torsions:
REMARK  status: ('A' for Active; 'I' for Inactive)
REMARK    1  A    between atoms: O_3  and  C_13 
REMARK    2  A    between atoms: O_7  and  C_20 
REMARK    3  A    between atoms: C_10  and  C_12 
REMARK    4  A    between atoms: C_17  and  C_27 
REMARK    5  A    between atoms: C_20  and  C_27 
ROOT
HETATM    1  O   UNK N   1      -3.297   2.469  -3.480  0.00  0.00    -0.310 OA
HETATM    2  O   UNK N   1      -5.012   1.112  -3.074  0.00  0.00    -0.265 OA
HETATM    3  O   UNK N   1       2.006  -3.500  -1.926  0.00  0.00    -0.297 OA
HETATM    4  C   UNK N   1      -1.992   2.857  -3.228  0.00  0.00     0.179 C 
HETATM    5  C   UNK N   1       0.369  -1.908   0.494  0.00  0.00     0.138 C 
HETATM    6  C   UNK N   1       2.028  -1.084  -1.905  0.00  0.00     0.029 C 
HETATM    7  C   UNK N   1      -1.016   1.691  -3.597  0.00  0.00     0.011 C 
HETATM    8  C   UNK N   1       0.132  -2.488  -0.922  0.00  0.00     0.089 C 
HETATM    9  C   UNK N   1       2.279  -0.401  -0.467  0.00  0.00     0.021 C 
HETATM   10  C   UNK N   1       0.995  -0.416  -2.911  0.00  0.00     0.031 C 
HETATM   11  C   UNK N   1      -3.802   1.287  -3.055  0.00  0.00     0.263 C 
HETATM   12  C   UNK N   1       1.445  -2.458  -1.613  0.00  0.00     0.143 C 
HETATM   13  C   UNK N   1       1.056  -0.486   0.568  0.00  0.00    -0.016 C 
HETATM   14  C   UNK N   1      -1.419   0.425  -2.837  0.00  0.00    -0.057 C 
HETATM   15  C   UNK N   1      -0.489  -0.536  -2.508  0.00  0.00    -0.070 C 
HETATM   16  C   UNK N   1       0.445   2.068  -3.252  0.00  0.00     0.017 C 
HETATM   17  C   UNK N   1      -0.921  -1.839  -1.840  0.00  0.00     0.049 C 
HETATM   18  C   UNK N   1       1.409   0.932  -3.567  0.00  0.00     0.011 C 
HETATM   19  C   UNK N   1       3.378  -1.312  -2.660  0.00  0.00     0.025 C 
HETATM   20  C   UNK N   1      -1.171   1.411  -5.117  0.00  0.00     0.023 C 
HETATM   21  C   UNK N   1      -2.902   0.186  -2.559  0.00  0.00     0.146 C 
HETATM   22  C   UNK N   1       0.024   0.663   0.424  0.00  0.00     0.018 C 
HETATM   23  C   UNK N   1       1.584  -0.321   2.033  0.00  0.00     0.018 C 
ENDROOT
BRANCH   4  24
HETATM   24  C   UNK N   1      -1.863   3.379  -1.804  0.00  0.00    -0.004 A 
HETATM   25  C   UNK N   1      -0.917   4.288  -1.365  0.00  0.00     0.151 A 
HETATM   26  O   UNK N   1      -1.113   4.538  -0.091  0.00  0.00    -0.334 OA
HETATM   27  C   UNK N   1      -2.146   3.844   0.332  0.00  0.00     0.142 A 
HETATM   28  C   UNK N   1      -2.661   3.104  -0.711  0.00  0.00     0.036 A 
ENDBRANCH   4  24
BRANCH   9  29
HETATM   29  C   UNK N   1       2.921   1.027  -0.478  0.00  0.00     0.117 C 
BRANCH  29  30
HETATM   30  C   UNK N   1       4.301   1.084  -1.062  0.00  0.00     0.258 C 
HETATM   31  O   UNK N   1       4.540   1.837  -1.996  0.00  0.00    -0.265 OA
BRANCH  30  32
HETATM   32  O   UNK N   1       5.276   0.302  -0.533  0.00  0.00    -0.326 OA
HETATM   33  C   UNK N   1       6.543   0.211  -1.067  0.00  0.00     0.213 C 
ENDBRANCH  30  32
ENDBRANCH  29  30
ENDBRANCH   9  29
BRANCH   5  34
HETATM   34  O   UNK N   1       1.195  -2.843   1.156  0.00  0.00    -0.394 OA
HETATM   35  H   UNK N   1       0.615  -3.584   1.474  0.00  0.00     0.210 HD
ENDBRANCH   5  34
TORSDOF 5
