REMARK  5 active torsions:
REMARK  status: ('A' for Active; 'I' for Inactive)
REMARK    1  A    between atoms: O_3  and  C_8 
REMARK    2  A    between atoms: O_4  and  C_9 
REMARK    3  A    between atoms: C_10  and  C_18 
REMARK    4  A    between atoms: C_13  and  C_22 
REMARK    5  A    between atoms: C_22  and  C_26 
ROOT
HETATM    1  O   UNK N   1       3.862   1.731  -2.401  0.00  0.00    -0.336 OA
HETATM    2  C   UNK N   1       2.510   1.785  -2.501  0.00  0.00     0.087 A 
HETATM    3  C   UNK N   1      -0.288   1.847  -2.729  0.00  0.00    -0.027 A 
HETATM    4  C   UNK N   1       1.905   1.837  -3.764  0.00  0.00    -0.002 A 
HETATM    5  C   UNK N   1       1.714   1.773  -1.338  0.00  0.00    -0.020 A 
HETATM    6  C   UNK N   1       0.513   1.869  -3.880  0.00  0.00     0.024 A 
HETATM    7  C   UNK N   1       0.317   1.797  -1.464  0.00  0.00     0.020 A 
HETATM    8  C   UNK N   1       4.757   1.683  -3.469  0.00  0.00     0.078 A 
HETATM    9  C   UNK N   1       2.755   1.852  -4.958  0.00  0.00     0.013 A 
HETATM   10  C   UNK N   1       4.083   1.779  -4.833  0.00  0.00     0.011 A 
HETATM   11  C   UNK N   1       5.743   2.847  -3.325  0.00  0.00     0.051 C 
HETATM   12  C   UNK N   1       5.502   0.346  -3.391  0.00  0.00     0.051 C 
ENDROOT
BRANCH   3  13
HETATM   13  C   UNK N   1      -1.790   1.880  -2.829  0.00  0.00     0.169 C 
HETATM   14  O   UNK N   1      -2.210   2.606  -3.935  0.00  0.00    -0.340 OA
HETATM   15  C   UNK N   1      -3.529   2.707  -4.239  0.00  0.00     0.089 A 
HETATM   16  C   UNK N   1      -4.439   1.744  -3.754  0.00  0.00     0.076 A 
HETATM   17  C   UNK N   1      -3.980   3.779  -5.012  0.00  0.00     0.074 A 
HETATM   18  C   UNK N   1      -5.817   1.896  -4.015  0.00  0.00     0.085 A 
HETATM   19  C   UNK N   1      -3.884   0.595  -2.986  0.00  0.00     0.167 C 
HETATM   20  C   UNK N   1      -6.260   2.992  -4.773  0.00  0.00     0.074 A 
HETATM   21  C   UNK N   1      -5.345   3.926  -5.278  0.00  0.00     0.071 A 
HETATM   22  O   UNK N   1      -4.610  -0.264  -2.511  0.00  0.00    -0.292 OA
HETATM   23  C   UNK N   1      -2.388   0.468  -2.860  0.00  0.00     0.121 C 
BRANCH  18  24
HETATM   24  O   UNK N   1      -6.707   1.000  -3.541  0.00  0.00    -0.360 OA
HETATM   25  H   UNK N   1      -7.657   1.094  -3.696  0.00  0.00     0.217 HD
ENDBRANCH  18  24
BRANCH  21  26
HETATM   26  O   UNK N   1      -5.769   4.976  -6.010  0.00  0.00    -0.361 OA
HETATM   27  H   UNK N   1      -6.707   5.113  -6.203  0.00  0.00     0.217 HD
ENDBRANCH  21  26
ENDBRANCH   3  13
BRANCH   5  28
HETATM   28  C   UNK N   1       2.334   1.745   0.038  0.00  0.00     0.068 C 
BRANCH  28  29
HETATM   29  C   UNK N   1       2.549   0.321   0.497  0.00  0.00    -0.020 C 
HETATM   30  C   UNK N   1       2.029  -0.255   1.613  0.00  0.00    -0.091 C 
HETATM   31  C   UNK N   1       2.357  -1.695   1.917  0.00  0.00     0.042 C 
HETATM   32  C   UNK N   1       1.126   0.451   2.601  0.00  0.00     0.042 C 
ENDBRANCH  28  29
ENDBRANCH   5  28
TORSDOF 5
