REMARK  9 active torsions:
REMARK  status: ('A' for Active; 'I' for Inactive)
REMARK    1  A    between atoms: O_2  and  C_8 
REMARK    2  A    between atoms: O_3  and  C_9 
REMARK    3  A    between atoms: O_4  and  C_10 
REMARK    4  A    between atoms: O_5  and  C_11 
REMARK    5  A    between atoms: C_12  and  C_19 
REMARK    6  A    between atoms: C_14  and  C_21 
REMARK    7  A    between atoms: C_15  and  C_22 
REMARK    8  A    between atoms: C_21  and  C_26 
REMARK    9  A    between atoms: C_22  and  C_27 
ROOT
HETATM    1  C   UNK N   1       3.513   1.778  -2.263  0.00  0.00     0.106 A 
HETATM    2  C   UNK N   1       3.594   1.820  -0.846  0.00  0.00     0.106 A 
HETATM    3  C   UNK N   1       1.100   1.363  -2.101  0.00  0.00    -0.018 A 
HETATM    4  C   UNK N   1       2.266   1.557  -2.899  0.00  0.00    -0.010 A 
HETATM    5  C   UNK N   1       2.441   1.597  -0.073  0.00  0.00    -0.018 A 
HETATM    6  C   UNK N   1       1.216   1.364  -0.702  0.00  0.00     0.020 A 
ENDROOT
BRANCH   3   7
HETATM    7  C   UNK N   1      -0.277   1.143  -2.702  0.00  0.00     0.169 C 
HETATM    8  O   UNK N   1      -0.766  -0.106  -2.348  0.00  0.00    -0.340 OA
HETATM    9  C   UNK N   1      -2.016  -0.497  -2.714  0.00  0.00     0.089 A 
HETATM   10  C   UNK N   1      -2.992   0.469  -3.033  0.00  0.00     0.076 A 
HETATM   11  C   UNK N   1      -2.321  -1.859  -2.789  0.00  0.00     0.074 A 
HETATM   12  C   UNK N   1      -4.271   0.053  -3.463  0.00  0.00     0.085 A 
HETATM   13  C   UNK N   1      -2.620   1.903  -2.885  0.00  0.00     0.167 C 
HETATM   14  C   UNK N   1      -4.557  -1.319  -3.552  0.00  0.00     0.074 A 
HETATM   15  C   UNK N   1      -3.588  -2.273  -3.211  0.00  0.00     0.071 A 
HETATM   16  O   UNK N   1      -3.402   2.797  -3.167  0.00  0.00    -0.292 OA
HETATM   17  C   UNK N   1      -1.276   2.240  -2.295  0.00  0.00     0.121 C 
BRANCH  12  18
HETATM   18  O   UNK N   1      -5.213   0.962  -3.787  0.00  0.00    -0.360 OA
HETATM   19  H   UNK N   1      -6.093   0.699  -4.093  0.00  0.00     0.217 HD
ENDBRANCH  12  18
BRANCH  15  20
HETATM   20  O   UNK N   1      -3.862  -3.591  -3.293  0.00  0.00    -0.361 OA
HETATM   21  H   UNK N   1      -4.725  -3.913  -3.590  0.00  0.00     0.217 HD
ENDBRANCH  15  20
ENDBRANCH   3   7
BRANCH   4  22
HETATM   22  C   UNK N   1       2.214   1.533  -4.426  0.00  0.00     0.069 C 
BRANCH  22  23
HETATM   23  C   UNK N   1       1.918   2.917  -4.964  0.00  0.00    -0.020 C 
HETATM   24  C   UNK N   1       0.902   3.272  -5.792  0.00  0.00    -0.091 C 
HETATM   25  C   UNK N   1       0.790   4.710  -6.235  0.00  0.00     0.042 C 
HETATM   26  C   UNK N   1      -0.142   2.318  -6.323  0.00  0.00     0.042 C 
ENDBRANCH  22  23
ENDBRANCH   4  22
BRANCH   1  27
HETATM   27  O   UNK N   1       4.613   1.951  -3.035  0.00  0.00    -0.357 OA
HETATM   28  H   UNK N   1       5.512   2.047  -2.702  0.00  0.00     0.218 HD
ENDBRANCH   1  27
BRANCH   5  29
HETATM   29  C   UNK N   1       2.499   1.616   1.438  0.00  0.00     0.068 C 
BRANCH  29  30
HETATM   30  C   UNK N   1       2.767   0.220   1.956  0.00  0.00    -0.020 C 
HETATM   31  C   UNK N   1       1.983  -0.494   2.803  0.00  0.00    -0.091 C 
HETATM   32  C   UNK N   1       2.425  -1.876   3.218  0.00  0.00     0.042 C 
HETATM   33  C   UNK N   1       0.675  -0.002   3.377  0.00  0.00     0.042 C 
ENDBRANCH  29  30
ENDBRANCH   5  29
BRANCH   2  34
HETATM   34  O   UNK N   1       4.762   2.070  -0.206  0.00  0.00    -0.357 OA
HETATM   35  H   UNK N   1       5.588   2.305  -0.642  0.00  0.00     0.218 HD
ENDBRANCH   2  34
TORSDOF 9
