REMARK  9 active torsions:
REMARK  status: ('A' for Active; 'I' for Inactive)
REMARK    1  A    between atoms: O_2  and  C_11 
REMARK    2  A    between atoms: O_2  and  C_22 
REMARK    3  A    between atoms: O_3  and  C_12 
REMARK    4  A    between atoms: O_3  and  C_23 
REMARK    5  A    between atoms: O_4  and  C_10 
REMARK    6  A    between atoms: O_5  and  C_13 
REMARK    7  A    between atoms: C_14  and  C_21 
REMARK    8  A    between atoms: C_16  and  C_26 
REMARK    9  A    between atoms: C_26  and  C_29 
ROOT
HETATM    1  C   UNK N   1       2.697   1.167  -0.234  0.00  0.00     0.108 A 
HETATM    2  C   UNK N   1       2.556   0.789  -1.596  0.00  0.00     0.113 A 
HETATM    3  C   UNK N   1       0.555  -0.503  -1.042  0.00  0.00    -0.025 A 
HETATM    4  C   UNK N   1       1.793   0.646   0.719  0.00  0.00    -0.018 A 
HETATM    5  C   UNK N   1       1.471  -0.017  -1.987  0.00  0.00     0.050 A 
HETATM    6  C   UNK N   1       0.743  -0.191   0.311  0.00  0.00     0.020 A 
ENDROOT
BRANCH   3   7
HETATM    7  C   UNK N   1      -0.626  -1.354  -1.467  0.00  0.00     0.169 C 
HETATM    8  O   UNK N   1      -1.495  -0.606  -2.253  0.00  0.00    -0.340 OA
HETATM    9  C   UNK N   1      -2.578  -1.162  -2.868  0.00  0.00     0.089 A 
HETATM   10  C   UNK N   1      -2.635  -2.561  -3.088  0.00  0.00     0.076 A 
HETATM   11  C   UNK N   1      -3.645  -0.341  -3.251  0.00  0.00     0.075 A 
HETATM   12  C   UNK N   1      -3.792  -3.117  -3.704  0.00  0.00     0.085 A 
HETATM   13  C   UNK N   1      -1.457  -3.353  -2.620  0.00  0.00     0.167 C 
HETATM   14  C   UNK N   1      -4.845  -2.274  -4.074  0.00  0.00     0.075 A 
HETATM   15  C   UNK N   1      -4.796  -0.899  -3.839  0.00  0.00     0.084 A 
HETATM   16  O   UNK N   1      -1.507  -4.563  -2.472  0.00  0.00    -0.292 OA
HETATM   17  C   UNK N   1      -0.206  -2.611  -2.238  0.00  0.00     0.121 C 
BRANCH  12  18
HETATM   18  O   UNK N   1      -3.933  -4.437  -3.962  0.00  0.00    -0.360 OA
HETATM   19  H   UNK N   1      -3.269  -5.110  -3.790  0.00  0.00     0.217 HD
ENDBRANCH  12  18
BRANCH  15  20
HETATM   20  O   UNK N   1      -5.879  -0.151  -4.186  0.00  0.00    -0.279 OA
BRANCH  20  21
HETATM   21  C   UNK N   1      -6.336   0.960  -3.547  0.00  0.00     0.260 C 
HETATM   22  O   UNK N   1      -5.856   1.319  -2.481  0.00  0.00    -0.265 OA
HETATM   23  C   UNK N   1      -7.507   1.698  -4.113  0.00  0.00     0.126 C 
ENDBRANCH  20  21
ENDBRANCH  15  20
ENDBRANCH   3   7
BRANCH   2  24
HETATM   24  O   UNK N   1       3.481   1.185  -2.510  0.00  0.00    -0.276 OA
BRANCH  24  25
HETATM   25  C   UNK N   1       4.033   0.367  -3.452  0.00  0.00     0.260 C 
HETATM   26  O   UNK N   1       3.754  -0.824  -3.496  0.00  0.00    -0.265 OA
HETATM   27  C   UNK N   1       5.066   0.911  -4.384  0.00  0.00     0.126 C 
ENDBRANCH  24  25
ENDBRANCH   2  24
BRANCH   4  28
HETATM   28  C   UNK N   1       1.947   0.965   2.187  0.00  0.00     0.068 C 
BRANCH  28  29
HETATM   29  C   UNK N   1       2.662  -0.181   2.868  0.00  0.00    -0.020 C 
HETATM   30  C   UNK N   1       2.200  -0.939   3.892  0.00  0.00    -0.091 C 
HETATM   31  C   UNK N   1       3.088  -2.022   4.456  0.00  0.00     0.042 C 
HETATM   32  C   UNK N   1       0.839  -0.775   4.523  0.00  0.00     0.042 C 
ENDBRANCH  28  29
ENDBRANCH   4  28
BRANCH   1  33
HETATM   33  O   UNK N   1       3.689   1.992   0.212  0.00  0.00    -0.353 OA
HETATM   34  C   UNK N   1       4.553   2.759  -0.542  0.00  0.00     0.210 C 
ENDBRANCH   1  33
TORSDOF 9
