REMARK  6 active torsions:
REMARK  status: ('A' for Active; 'I' for Inactive)
REMARK    1  A    between atoms: O_3  and  C_9 
REMARK    2  A    between atoms: O_4  and  C_10 
REMARK    3  A    between atoms: O_5  and  C_11 
REMARK    4  A    between atoms: C_12  and  C_19 
REMARK    5  A    between atoms: C_14  and  C_23 
REMARK    6  A    between atoms: C_23  and  C_27 
ROOT
HETATM    1  O   UNK N   1       3.347   0.135   0.707  0.00  0.00    -0.333 OA
HETATM    2  C   UNK N   1       2.184   0.477   0.095  0.00  0.00     0.114 A 
HETATM    3  C   UNK N   1       2.196   0.870  -1.251  0.00  0.00     0.107 A 
HETATM    4  C   UNK N   1      -0.244   1.107  -1.189  0.00  0.00    -0.018 A 
HETATM    5  C   UNK N   1       0.985   1.184  -1.912  0.00  0.00    -0.010 A 
HETATM    6  C   UNK N   1       0.982   0.415   0.798  0.00  0.00     0.001 A 
HETATM    7  C   UNK N   1      -0.221   0.733   0.167  0.00  0.00     0.024 A 
HETATM    8  C   UNK N   1       3.471  -0.361   2.002  0.00  0.00     0.078 A 
HETATM    9  C   UNK N   1       1.003  -0.009   2.203  0.00  0.00     0.013 A 
HETATM   10  C   UNK N   1       2.156  -0.378   2.772  0.00  0.00     0.011 A 
HETATM   11  C   UNK N   1       4.479   0.511   2.762  0.00  0.00     0.051 C 
HETATM   12  C   UNK N   1       3.993  -1.797   1.894  0.00  0.00     0.051 C 
ENDROOT
BRANCH   4  13
HETATM   13  C   UNK N   1      -1.592   1.384  -1.833  0.00  0.00     0.169 C 
HETATM   14  O   UNK N   1      -2.238   2.430  -1.194  0.00  0.00    -0.340 OA
HETATM   15  C   UNK N   1      -3.494   2.796  -1.561  0.00  0.00     0.089 A 
HETATM   16  C   UNK N   1      -4.337   1.873  -2.219  0.00  0.00     0.076 A 
HETATM   17  C   UNK N   1      -3.939   4.094  -1.304  0.00  0.00     0.074 A 
HETATM   18  C   UNK N   1      -5.618   2.279  -2.645  0.00  0.00     0.085 A 
HETATM   19  C   UNK N   1      -3.823   0.491  -2.420  0.00  0.00     0.167 C 
HETATM   20  C   UNK N   1      -6.044   3.594  -2.399  0.00  0.00     0.074 A 
HETATM   21  C   UNK N   1      -5.209   4.498  -1.725  0.00  0.00     0.071 A 
HETATM   22  O   UNK N   1      -4.490  -0.362  -2.986  0.00  0.00    -0.292 OA
HETATM   23  C   UNK N   1      -2.488   0.129  -1.830  0.00  0.00     0.121 C 
BRANCH  18  24
HETATM   24  O   UNK N   1      -6.432   1.415  -3.288  0.00  0.00    -0.360 OA
HETATM   25  H   UNK N   1      -7.310   1.676  -3.601  0.00  0.00     0.217 HD
ENDBRANCH  18  24
BRANCH  21  26
HETATM   26  O   UNK N   1      -5.616   5.761  -1.487  0.00  0.00    -0.361 OA
HETATM   27  H   UNK N   1      -6.482   6.080  -1.777  0.00  0.00     0.217 HD
ENDBRANCH  21  26
ENDBRANCH   4  13
BRANCH   5  28
HETATM   28  C   UNK N   1       1.039   1.599  -3.374  0.00  0.00     0.069 C 
BRANCH  28  29
HETATM   29  C   UNK N   1       1.155   3.103  -3.485  0.00  0.00    -0.020 C 
HETATM   30  C   UNK N   1       0.732   3.856  -4.529  0.00  0.00    -0.091 C 
HETATM   31  C   UNK N   1       0.961   5.347  -4.499  0.00  0.00     0.042 C 
HETATM   32  C   UNK N   1       0.048   3.293  -5.751  0.00  0.00     0.042 C 
ENDBRANCH  28  29
ENDBRANCH   5  28
BRANCH   3  33
HETATM   33  O   UNK N   1       3.367   0.951  -1.923  0.00  0.00    -0.357 OA
HETATM   34  H   UNK N   1       4.221   0.765  -1.507  0.00  0.00     0.218 HD
ENDBRANCH   3  33
TORSDOF 6
