REMARK  4 active torsions:
REMARK  status: ('A' for Active; 'I' for Inactive)
REMARK    1  A    between atoms: O_3  and  C_9 
REMARK    2  A    between atoms: O_4  and  C_10 
REMARK    3  A    between atoms: O_5  and  C_11 
REMARK    4  A    between atoms: C_12  and  C_19 
ROOT
HETATM    1  O   UNK N   1      -1.667  -1.221  -1.577  0.00  0.00    -0.340 OA
HETATM    2  O   UNK N   1      -4.379   1.712  -1.511  0.00  0.00    -0.292 OA
HETATM    3  C   UNK N   1      -2.893  -1.533  -2.070  0.00  0.00     0.089 A 
HETATM    4  C   UNK N   1      -5.168  -0.890  -2.705  0.00  0.00     0.085 A 
HETATM    5  C   UNK N   1      -4.356  -3.151  -3.116  0.00  0.00     0.071 A 
HETATM    6  C   UNK N   1      -3.914  -0.549  -2.116  0.00  0.00     0.076 A 
HETATM    7  C   UNK N   1      -3.126  -2.824  -2.549  0.00  0.00     0.074 A 
HETATM    8  C   UNK N   1      -5.364  -2.185  -3.199  0.00  0.00     0.074 A 
HETATM    9  C   UNK N   1      -1.229   0.092  -1.547  0.00  0.00     0.169 C 
HETATM   10  C   UNK N   1      -3.586   0.788  -1.518  0.00  0.00     0.167 C 
HETATM   11  C   UNK N   1      -2.261   0.968  -0.834  0.00  0.00     0.121 C 
ENDROOT
BRANCH   9  12
HETATM   12  C   UNK N   1       0.123   0.187  -0.900  0.00  0.00    -0.025 A 
HETATM   13  C   UNK N   1       1.214   0.686  -1.631  0.00  0.00     0.049 A 
HETATM   14  C   UNK N   1       2.477   0.781  -1.043  0.00  0.00     0.100 A 
HETATM   15  C   UNK N   1       2.655   0.372   0.288  0.00  0.00     0.113 A 
HETATM   16  O   UNK N   1       3.883   0.440   0.857  0.00  0.00    -0.333 OA
HETATM   17  C   UNK N   1       1.569  -0.119   1.022  0.00  0.00     0.001 A 
HETATM   18  C   UNK N   1       4.208   0.018   2.143  0.00  0.00     0.078 A 
HETATM   19  C   UNK N   1       3.007  -0.477   2.943  0.00  0.00     0.011 A 
HETATM   20  C   UNK N   1       4.847   1.197   2.884  0.00  0.00     0.051 C 
HETATM   21  C   UNK N   1       5.210  -1.132   2.007  0.00  0.00     0.051 C 
HETATM   22  C   UNK N   1       1.782  -0.535   2.411  0.00  0.00     0.013 A 
HETATM   23  C   UNK N   1       0.306  -0.215   0.432  0.00  0.00     0.024 A 
BRANCH  14  24
HETATM   24  O   UNK N   1       3.507   1.263  -1.769  0.00  0.00    -0.358 OA
HETATM   25  H   UNK N   1       4.398   1.354  -1.403  0.00  0.00     0.218 HD
ENDBRANCH  14  24
ENDBRANCH   9  12
BRANCH   4  26
HETATM   26  O   UNK N   1      -6.198  -0.020  -2.822  0.00  0.00    -0.360 OA
HETATM   27  H   UNK N   1      -6.187   0.902  -2.552  0.00  0.00     0.217 HD
ENDBRANCH   4  26
BRANCH   5  28
HETATM   28  O   UNK N   1      -4.559  -4.397  -3.593  0.00  0.00    -0.361 OA
HETATM   29  H   UNK N   1      -5.397  -4.652  -4.005  0.00  0.00     0.217 HD
ENDBRANCH   5  28
TORSDOF 4
