REMARK  7 active torsions:
REMARK  status: ('A' for Active; 'I' for Inactive)
REMARK    1  A    between atoms: O_2  and  C_8 
REMARK    2  A    between atoms: O_3  and  C_9 
REMARK    3  A    between atoms: O_4  and  C_10 
REMARK    4  A    between atoms: O_5  and  C_11 
REMARK    5  A    between atoms: C_12  and  C_19 
REMARK    6  A    between atoms: C_14  and  C_22 
REMARK    7  A    between atoms: C_22  and  C_25 
ROOT
HETATM    1  C   UNK N   1       2.495   1.781  -2.565  0.00  0.00     0.107 A 
HETATM    2  C   UNK N   1       1.824   1.808  -3.820  0.00  0.00     0.100 A 
HETATM    3  C   UNK N   1      -0.328   1.851  -2.683  0.00  0.00    -0.025 A 
HETATM    4  C   UNK N   1       1.726   1.784  -1.376  0.00  0.00    -0.018 A 
HETATM    5  C   UNK N   1       0.426   1.840  -3.862  0.00  0.00     0.049 A 
HETATM    6  C   UNK N   1       0.325   1.815  -1.446  0.00  0.00     0.020 A 
ENDROOT
BRANCH   3   7
HETATM    7  C   UNK N   1      -1.833   1.899  -2.740  0.00  0.00     0.169 C 
HETATM    8  O   UNK N   1      -2.255   2.638  -3.841  0.00  0.00    -0.340 OA
HETATM    9  C   UNK N   1      -3.563   2.707  -4.199  0.00  0.00     0.089 A 
HETATM   10  C   UNK N   1      -4.474   1.738  -3.735  0.00  0.00     0.076 A 
HETATM   11  C   UNK N   1      -4.001   3.754  -5.015  0.00  0.00     0.074 A 
HETATM   12  C   UNK N   1      -5.843   1.858  -4.054  0.00  0.00     0.085 A 
HETATM   13  C   UNK N   1      -3.929   0.622  -2.915  0.00  0.00     0.167 C 
HETATM   14  C   UNK N   1      -6.274   2.927  -4.857  0.00  0.00     0.074 A 
HETATM   15  C   UNK N   1      -5.354   3.868  -5.344  0.00  0.00     0.071 A 
HETATM   16  O   UNK N   1      -4.662  -0.182  -2.361  0.00  0.00    -0.292 OA
HETATM   17  C   UNK N   1      -2.433   0.489  -2.795  0.00  0.00     0.121 C 
BRANCH  12  18
HETATM   18  O   UNK N   1      -6.734   0.955  -3.596  0.00  0.00    -0.360 OA
HETATM   19  H   UNK N   1      -7.679   1.027  -3.790  0.00  0.00     0.217 HD
ENDBRANCH  12  18
BRANCH  15  20
HETATM   20  O   UNK N   1      -5.763   4.892  -6.121  0.00  0.00    -0.361 OA
HETATM   21  H   UNK N   1      -6.693   5.009  -6.361  0.00  0.00     0.217 HD
ENDBRANCH  15  20
ENDBRANCH   3   7
BRANCH   2  22
HETATM   22  O   UNK N   1       2.511   1.804  -4.981  0.00  0.00    -0.358 OA
HETATM   23  H   UNK N   1       2.067   1.826  -5.842  0.00  0.00     0.218 HD
ENDBRANCH   2  22
BRANCH   4  24
HETATM   24  C   UNK N   1       2.384   1.748  -0.015  0.00  0.00     0.068 C 
BRANCH  24  25
HETATM   25  C   UNK N   1       2.527   0.316   0.449  0.00  0.00    -0.020 C 
HETATM   26  C   UNK N   1       1.996  -0.234   1.572  0.00  0.00    -0.091 C 
HETATM   27  C   UNK N   1       2.271  -1.687   1.873  0.00  0.00     0.042 C 
HETATM   28  C   UNK N   1       1.133   0.510   2.564  0.00  0.00     0.042 C 
ENDBRANCH  24  25
ENDBRANCH   4  24
BRANCH   1  29
HETATM   29  O   UNK N   1       3.855   1.740  -2.455  0.00  0.00    -0.353 OA
HETATM   30  C   UNK N   1       4.773   1.698  -3.484  0.00  0.00     0.210 C 
ENDBRANCH   1  29
TORSDOF 7
