REMARK  7 active torsions:
REMARK  status: ('A' for Active; 'I' for Inactive)
REMARK    1  A    between atoms: O_2  and  C_8 
REMARK    2  A    between atoms: O_3  and  C_9 
REMARK    3  A    between atoms: O_4  and  C_10 
REMARK    4  A    between atoms: O_5  and  C_11 
REMARK    5  A    between atoms: C_12  and  C_19 
REMARK    6  A    between atoms: C_14  and  C_21 
REMARK    7  A    between atoms: C_21  and  C_24 
ROOT
HETATM    1  C   UNK N   1       2.282   1.673  -2.153  0.00  0.00     0.105 A 
HETATM    2  C   UNK N   1       1.422   2.550  -2.844  0.00  0.00     0.099 A 
HETATM    3  C   UNK N   1      -0.508   1.344  -1.987  0.00  0.00    -0.025 A 
HETATM    4  C   UNK N   1       1.742   0.632  -1.369  0.00  0.00    -0.018 A 
HETATM    5  C   UNK N   1       0.035   2.381  -2.757  0.00  0.00     0.049 A 
HETATM    6  C   UNK N   1       0.349   0.478  -1.289  0.00  0.00     0.020 A 
ENDROOT
BRANCH   3   7
HETATM    7  C   UNK N   1      -2.001   1.153  -1.907  0.00  0.00     0.169 C 
HETATM    8  O   UNK N   1      -2.600   2.272  -1.348  0.00  0.00    -0.340 OA
HETATM    9  C   UNK N   1      -3.951   2.353  -1.231  0.00  0.00     0.089 A 
HETATM   10  C   UNK N   1      -4.779   1.566  -2.059  0.00  0.00     0.076 A 
HETATM   11  C   UNK N   1      -4.513   3.200  -0.273  0.00  0.00     0.074 A 
HETATM   12  C   UNK N   1      -6.178   1.603  -1.883  0.00  0.00     0.085 A 
HETATM   13  C   UNK N   1      -4.118   0.727  -3.098  0.00  0.00     0.167 C 
HETATM   14  C   UNK N   1      -6.728   2.441  -0.900  0.00  0.00     0.074 A 
HETATM   15  C   UNK N   1      -5.899   3.244  -0.102  0.00  0.00     0.071 A 
HETATM   16  O   UNK N   1      -4.763  -0.002  -3.835  0.00  0.00    -0.292 OA
HETATM   17  C   UNK N   1      -2.628   0.850  -3.279  0.00  0.00     0.121 C 
BRANCH  12  18
HETATM   18  O   UNK N   1      -6.984   0.840  -2.649  0.00  0.00    -0.360 OA
HETATM   19  H   UNK N   1      -7.945   0.836  -2.533  0.00  0.00     0.217 HD
ENDBRANCH  12  18
BRANCH  15  20
HETATM   20  O   UNK N   1      -6.426   4.052   0.840  0.00  0.00    -0.361 OA
HETATM   21  H   UNK N   1      -7.380   4.099   0.995  0.00  0.00     0.217 HD
ENDBRANCH  15  20
ENDBRANCH   3   7
BRANCH   2  22
HETATM   22  O   UNK N   1       1.933   3.550  -3.592  0.00  0.00    -0.358 OA
HETATM   23  H   UNK N   1       1.364   4.164  -4.080  0.00  0.00     0.218 HD
ENDBRANCH   2  22
BRANCH   4  24
HETATM   24  C   UNK N   1       2.635  -0.329  -0.618  0.00  0.00     0.068 C 
BRANCH  24  25
HETATM   25  C   UNK N   1       2.886   0.183   0.783  0.00  0.00    -0.020 C 
HETATM   26  C   UNK N   1       2.598  -0.459   1.946  0.00  0.00    -0.091 C 
HETATM   27  C   UNK N   1       2.927   0.215   3.255  0.00  0.00     0.042 C 
HETATM   28  C   UNK N   1       1.962  -1.828   2.033  0.00  0.00     0.042 C 
ENDBRANCH  24  25
ENDBRANCH   4  24
BRANCH   1  29
HETATM   29  O   UNK N   1       3.623   1.829  -2.230  0.00  0.00    -0.357 OA
HETATM   30  H   UNK N   1       4.033   2.534  -2.750  0.00  0.00     0.218 HD
ENDBRANCH   1  29
TORSDOF 7
