REMARK  7 active torsions:
REMARK  status: ('A' for Active; 'I' for Inactive)
REMARK    1  A    between atoms: N_2  and  C_9 
REMARK       I    between atoms: N_4  and  C_7 
REMARK    2  A    between atoms: N_4  and  C_10 
REMARK       I    between atoms: N_5  and  C_8 
REMARK    3  A    between atoms: N_5  and  C_11 
REMARK       I    between atoms: N_6  and  C_8 
REMARK    4  A    between atoms: C_9  and  C_13 
REMARK    5  A    between atoms: C_10  and  C_14 
REMARK    6  A    between atoms: C_11  and  C_15 
REMARK    7  A    between atoms: C_14  and  C_15 
ROOT
HETATM    1  N   UNK N   1       3.904   1.475  -1.827  0.00  0.00    -0.223 N 
ATOM      2  HN  UNK N   1       4.854   1.172  -2.042  1.00  0.00     0.178 HD
HETATM    3  N   UNK N   1       1.822   2.291  -2.651  0.00  0.00    -0.227 N 
HETATM    4  N   UNK N   1       3.697   1.656  -4.143  0.00  0.00    -0.235 N 
HETATM    5  C   UNK N   1       3.156   1.794  -2.833  0.00  0.00     0.667 C 
HETATM    6  H   UNK N   1       1.446   2.402  -1.701  0.00  0.00     0.177 HD
HETATM    7  H   UNK N   1       4.653   1.293  -4.267  0.00  0.00     0.174 HD
HETATM    8  H   UNK N   1       3.155   1.898  -4.982  0.00  0.00     0.174 HD
ENDROOT
BRANCH   3   9
HETATM    9  C   UNK N   1       0.995   2.667  -3.784  0.00  0.00     0.138 C 
BRANCH   9  10
HETATM   10  C   UNK N   1      -0.385   3.197  -3.359  0.00  0.00     0.022 C 
BRANCH  10  11
HETATM   11  C   UNK N   1      -1.237   2.198  -2.554  0.00  0.00     0.021 C 
BRANCH  11  12
HETATM   12  C   UNK N   1      -1.538   0.904  -3.319  0.00  0.00     0.122 C 
BRANCH  12  13
HETATM   13  N   UNK N   1      -2.305   0.002  -2.484  0.00  0.00    -0.361 N 
HETATM   14  C   UNK N   1      -3.665   0.020  -2.438  0.00  0.00     0.213 C 
HETATM   15  O   UNK N   1      -4.301   0.814  -3.118  0.00  0.00    -0.274 OA
HETATM   16  C   UNK N   1      -4.402  -0.945  -1.556  0.00  0.00     0.117 C 
HETATM   17  H   UNK N   1      -1.790  -0.692  -1.922  0.00  0.00     0.162 HD
ENDBRANCH  12  13
ENDBRANCH  11  12
ENDBRANCH  10  11
ENDBRANCH   9  10
ENDBRANCH   3   9
BRANCH   1  18
HETATM   18  C   UNK N   1       3.533   1.503  -0.425  0.00  0.00     0.165 C 
BRANCH  18  19
HETATM   19  C   UNK N   1       2.912   0.183  -0.027  0.00  0.00    -0.005 C 
HETATM   20  C   UNK N   1       1.937   0.004   0.900  0.00  0.00    -0.090 C 
HETATM   21  C   UNK N   1       1.460  -1.395   1.204  0.00  0.00     0.042 C 
HETATM   22  C   UNK N   1       1.306   1.124   1.693  0.00  0.00     0.042 C 
ENDBRANCH  18  19
ENDBRANCH   1  18
TORSDOF 7
