REMARK  6 active torsions:
REMARK  status: ('A' for Active; 'I' for Inactive)
REMARK    1  A    between atoms: O_3  and  C_14 
REMARK    2  A    between atoms: O_4  and  C_15 
REMARK    3  A    between atoms: O_8  and  C_21 
REMARK    4  A    between atoms: C_11  and  C_13 
REMARK    5  A    between atoms: C_14  and  C_17 
REMARK    6  A    between atoms: C_14  and  C_21 
ROOT
HETATM    1  O   UNK N   1      -4.190  -0.880  -4.146  0.00  0.00    -0.310 OA
HETATM    2  O   UNK N   1      -5.690   0.672  -3.600  0.00  0.00    -0.265 OA
HETATM    3  O   UNK N   1       0.770   3.629  -0.617  0.00  0.00    -0.297 OA
HETATM    4  C   UNK N   1      -3.071  -1.617  -3.804  0.00  0.00     0.179 C 
HETATM    5  C   UNK N   1       0.002   0.879   1.446  0.00  0.00     0.138 C 
HETATM    6  C   UNK N   1       1.245   1.327  -1.138  0.00  0.00     0.032 C 
HETATM    7  C   UNK N   1       2.208   0.672  -0.017  0.00  0.00     0.051 C 
HETATM    8  C   UNK N   1      -1.853  -0.663  -3.625  0.00  0.00     0.011 C 
HETATM    9  C   UNK N   1      -0.533   2.030   0.527  0.00  0.00     0.089 C 
HETATM   10  C   UNK N   1       0.168   0.221  -1.596  0.00  0.00     0.031 C 
HETATM   11  C   UNK N   1      -4.574   0.208  -3.432  0.00  0.00     0.263 C 
HETATM   12  C   UNK N   1       0.518   2.445  -0.432  0.00  0.00     0.143 C 
HETATM   13  C   UNK N   1       1.581   0.812   1.486  0.00  0.00    -0.013 C 
HETATM   14  C   UNK N   1      -2.217   0.308  -2.488  0.00  0.00    -0.057 C 
HETATM   15  C   UNK N   1      -1.297   0.699  -1.548  0.00  0.00    -0.070 C 
HETATM   16  C   UNK N   1      -0.581  -1.486  -3.269  0.00  0.00     0.017 C 
HETATM   17  C   UNK N   1      -1.719   1.602  -0.370  0.00  0.00     0.049 C 
HETATM   18  C   UNK N   1       0.560  -0.572  -2.862  0.00  0.00     0.011 C 
HETATM   19  C   UNK N   1       1.932   1.958  -2.383  0.00  0.00     0.025 C 
HETATM   20  C   UNK N   1      -1.639   0.156  -4.931  0.00  0.00     0.023 C 
HETATM   21  C   UNK N   1      -3.648   0.842  -2.422  0.00  0.00     0.146 C 
HETATM   22  C   UNK N   1       1.966  -0.420   2.349  0.00  0.00     0.018 C 
HETATM   23  C   UNK N   1       2.102   2.084   2.224  0.00  0.00     0.018 C 
ENDROOT
BRANCH   7  24
HETATM   24  C   UNK N   1       3.726   1.108  -0.089  0.00  0.00     0.223 C 
BRANCH  24  25
HETATM   25  O   UNK N   1       4.481   0.536   0.948  0.00  0.00    -0.385 OA
HETATM   26  H   UNK N   1       4.518  -0.446   0.800  0.00  0.00     0.210 HD
ENDBRANCH  24  25
BRANCH  24  27
HETATM   27  C   UNK N   1       4.404   0.732  -1.389  0.00  0.00     0.287 C 
HETATM   28  O   UNK N   1       4.927   1.594  -2.079  0.00  0.00    -0.262 OA
BRANCH  27  29
HETATM   29  O   UNK N   1       4.428  -0.572  -1.769  0.00  0.00    -0.324 OA
HETATM   30  C   UNK N   1       4.964  -1.005  -2.962  0.00  0.00     0.213 C 
ENDBRANCH  27  29
ENDBRANCH  24  27
ENDBRANCH   7  24
BRANCH   5  31
HETATM   31  O   UNK N   1      -0.535   1.020   2.740  0.00  0.00    -0.394 OA
HETATM   32  H   UNK N   1      -1.521   0.935   2.662  0.00  0.00     0.210 HD
ENDBRANCH   5  31
BRANCH   4  33
HETATM   33  C   UNK N   1      -2.871  -2.731  -4.802  0.00  0.00    -0.004 A 
HETATM   34  C   UNK N   1      -2.260  -3.944  -4.551  0.00  0.00     0.151 A 
HETATM   35  O   UNK N   1      -2.292  -4.676  -5.640  0.00  0.00    -0.334 OA
HETATM   36  C   UNK N   1      -2.896  -4.005  -6.596  0.00  0.00     0.142 A 
HETATM   37  C   UNK N   1      -3.287  -2.771  -6.115  0.00  0.00     0.036 A 
ENDBRANCH   4  33
TORSDOF 6
