REMARK  10 active torsions:
REMARK  status: ('A' for Active; 'I' for Inactive)
REMARK    1  A    between atoms: O_1  and  C_6 
REMARK    2  A    between atoms: O_2  and  C_7 
REMARK    3  A    between atoms: O_4  and  C_17 
REMARK    4  A    between atoms: O_5  and  C_18 
REMARK    5  A    between atoms: C_6  and  C_7 
REMARK    6  A    between atoms: C_6  and  C_17 
REMARK    7  A    between atoms: C_7  and  C_20 
REMARK    8  A    between atoms: C_11  and  C_15 
REMARK    9  A    between atoms: C_13  and  C_18 
REMARK   10  A    between atoms: C_15  and  C_20 
ROOT
HETATM    1  O   UNK N   1       6.361   3.352   1.441  0.00  0.00    -0.297 OA
HETATM    2  C   UNK N   1      -1.185   1.756  -0.511  0.00  0.00    -0.029 C 
HETATM    3  C   UNK N   1       2.411   2.640   1.950  0.00  0.00    -0.031 C 
HETATM    4  C   UNK N   1       3.478   1.486   2.012  0.00  0.00     0.015 C 
HETATM    5  C   UNK N   1      -2.128   1.362  -1.686  0.00  0.00    -0.002 C 
HETATM    6  C   UNK N   1       0.093   0.902  -0.840  0.00  0.00    -0.013 C 
HETATM    7  C   UNK N   1       4.736   1.627   1.045  0.00  0.00     0.043 C 
HETATM    8  C   UNK N   1       1.517   2.527   0.647  0.00  0.00     0.024 C 
HETATM    9  C   UNK N   1       5.209   3.078   1.140  0.00  0.00     0.137 C 
HETATM   10  C   UNK N   1       1.119   1.077   0.295  0.00  0.00    -0.070 C 
HETATM   11  C   UNK N   1      -0.740   3.253  -0.436  0.00  0.00     0.011 C 
HETATM   12  C   UNK N   1       3.135   4.020   2.025  0.00  0.00     0.017 C 
HETATM   13  C   UNK N   1      -1.845  -0.168  -1.855  0.00  0.00     0.007 C 
HETATM   14  C   UNK N   1       2.754   0.110   1.966  0.00  0.00     0.034 C 
HETATM   15  C   UNK N   1      -0.531  -0.478  -1.091  0.00  0.00     0.015 C 
HETATM   16  C   UNK N   1       0.265   3.464   0.709  0.00  0.00     0.010 C 
HETATM   17  C   UNK N   1      -1.879   1.338   0.837  0.00  0.00     0.016 C 
HETATM   18  C   UNK N   1       1.529   2.530   3.236  0.00  0.00     0.016 C 
HETATM   19  C   UNK N   1       0.845   1.275  -2.166  0.00  0.00     0.021 C 
HETATM   20  C   UNK N   1       5.874   0.690   1.556  0.00  0.00     0.026 C 
HETATM   21  C   UNK N   1       1.668   0.006   0.920  0.00  0.00    -0.022 C 
HETATM   22  C   UNK N   1       4.217   4.187   0.952  0.00  0.00     0.080 C 
ENDROOT
BRANCH   5  23
HETATM   23  C   UNK N   1      -3.659   1.713  -1.655  0.00  0.00    -0.011 C 
HETATM   24  C   UNK N   1      -3.905   3.224  -1.480  0.00  0.00     0.010 C 
BRANCH  23  25
HETATM   25  C   UNK N   1      -4.345   1.199  -2.956  0.00  0.00     0.039 C 
BRANCH  25  26
HETATM   26  C   UNK N   1      -5.868   1.484  -3.093  0.00  0.00     0.150 C 
BRANCH  26  27
HETATM   27  O   UNK N   1      -6.319   1.014  -4.339  0.00  0.00    -0.393 OA
HETATM   28  H   UNK N   1      -6.097   0.051  -4.411  0.00  0.00     0.210 HD
ENDBRANCH  26  27
BRANCH  26  29
HETATM   29  C   UNK N   1      -6.724   0.915  -1.915  0.00  0.00     0.180 C 
BRANCH  29  30
HETATM   30  O   UNK N   1      -6.577  -0.482  -1.818  0.00  0.00    -0.390 OA
HETATM   31  H   UNK N   1      -7.021  -0.899  -2.597  0.00  0.00     0.210 HD
ENDBRANCH  29  30
BRANCH  29  32
HETATM   32  C   UNK N   1      -8.233   1.361  -1.885  0.00  0.00     0.079 C 
HETATM   33  C   UNK N   1      -9.046   0.927  -3.128  0.00  0.00     0.048 C 
HETATM   34  C   UNK N   1      -8.912   0.750  -0.643  0.00  0.00     0.048 C 
BRANCH  32  35
HETATM   35  O   UNK N   1      -8.305   2.761  -1.737  0.00  0.00    -0.388 OA
HETATM   36  H   UNK N   1      -8.076   3.187  -2.603  0.00  0.00     0.210 HD
ENDBRANCH  32  35
ENDBRANCH  29  32
ENDBRANCH  26  29
ENDBRANCH  25  26
ENDBRANCH  23  25
ENDBRANCH   5  23
BRANCH   7  37
HETATM   37  C   UNK N   1       4.470   1.256  -0.445  0.00  0.00     0.181 C 
BRANCH  37  38
HETATM   38  O   UNK N   1       5.651   1.307  -1.207  0.00  0.00    -0.400 OA
HETATM   39  H   UNK N   1       5.898   2.263  -1.305  0.00  0.00     0.209 HD
ENDBRANCH  37  38
ENDBRANCH   7  37
TORSDOF 10
