REMARK  7 active torsions:
REMARK  status: ('A' for Active; 'I' for Inactive)
REMARK    1  A    between atoms: O_1  and  C_5 
REMARK    2  A    between atoms: O_2  and  C_6 
REMARK    3  A    between atoms: O_4  and  C_11 
REMARK    4  A    between atoms: O_4  and  C_12 
REMARK    5  A    between atoms: C_7  and  C_14 
REMARK    6  A    between atoms: C_11  and  C_15 
REMARK    7  A    between atoms: C_12  and  C_16 
ROOT
HETATM    1  C   UNK N   1      -3.067   0.926  -4.256  0.00  0.00     0.102 A 
HETATM    2  C   UNK N   1      -3.097   0.636  -5.633  0.00  0.00     0.099 A 
HETATM    3  C   UNK N   1      -0.617   0.958  -4.329  0.00  0.00    -0.033 A 
HETATM    4  C   UNK N   1      -1.825   1.081  -3.617  0.00  0.00     0.051 A 
HETATM    5  C   UNK N   1      -1.898   0.523  -6.348  0.00  0.00     0.040 A 
HETATM    6  C   UNK N   1      -0.667   0.690  -5.705  0.00  0.00     0.014 A 
ENDROOT
BRANCH   3   7
HETATM    7  C   UNK N   1       0.708   1.107  -3.659  0.00  0.00     0.017 C 
HETATM    8  C   UNK N   1       0.845   1.087  -2.317  0.00  0.00     0.083 C 
BRANCH   8   9
HETATM    9  C   UNK N   1       2.137   1.224  -1.631  0.00  0.00     0.282 C 
HETATM   10  O   UNK N   1       3.168   1.424  -2.254  0.00  0.00    -0.260 OA
BRANCH   9  11
HETATM   11  O   UNK N   1       2.143   1.116  -0.279  0.00  0.00    -0.318 OA
BRANCH  11  12
HETATM   12  C   UNK N   1       3.271   1.213   0.503  0.00  0.00     0.178 C 
BRANCH  12  13
HETATM   13  C   UNK N   1       2.891   1.011   1.971  0.00  0.00     0.022 C 
HETATM   14  C   UNK N   1       2.273  -0.366   2.219  0.00  0.00     0.007 C 
ENDBRANCH  12  13
ENDBRANCH  11  12
ENDBRANCH   9  11
ENDBRANCH   8   9
ENDBRANCH   3   7
BRANCH   1  15
HETATM   15  O   UNK N   1      -4.237   1.053  -3.569  0.00  0.00    -0.353 OA
HETATM   16  C   UNK N   1      -4.330   1.352  -2.221  0.00  0.00     0.210 C 
ENDBRANCH   1  15
BRANCH   2  17
HETATM   17  O   UNK N   1      -4.268   0.468  -6.283  0.00  0.00    -0.358 OA
HETATM   18  H   UNK N   1      -5.122   0.532  -5.833  0.00  0.00     0.218 HD
ENDBRANCH   2  17
TORSDOF 7
