REMARK  3 active torsions:
REMARK  status: ('A' for Active; 'I' for Inactive)
REMARK    1  A    between atoms: O_1  and  C_7 
REMARK    2  A    between atoms: O_1  and  C_15 
REMARK    3  A    between atoms: C_11  and  C_14 
ROOT
HETATM    1  O   UNK N   1       4.569   1.503  -1.415  0.00  0.00    -0.260 OA
HETATM    2  O   UNK N   1       3.523   0.366   0.183  0.00  0.00    -0.307 OA
HETATM    3  C   UNK N   1      -1.174  -1.314   1.290  0.00  0.00     0.145 C 
HETATM    4  C   UNK N   1      -1.177  -2.048  -0.113  0.00  0.00     0.011 C 
HETATM    5  C   UNK N   1       0.946  -0.596  -0.893  0.00  0.00    -0.015 C 
HETATM    6  C   UNK N   1      -0.569  -1.043  -1.156  0.00  0.00     0.013 C 
HETATM    7  C   UNK N   1      -4.583  -2.643  -1.921  0.00  0.00     0.008 C 
HETATM    8  C   UNK N   1      -3.010  -2.648  -2.004  0.00  0.00    -0.016 C 
HETATM    9  C   UNK N   1       1.273  -0.571   0.661  0.00  0.00     0.035 C 
HETATM   10  C   UNK N   1       3.513   1.082  -0.975  0.00  0.00     0.283 C 
HETATM   11  C   UNK N   1       2.497   0.330   1.123  0.00  0.00     0.068 C 
HETATM   12  C   UNK N   1      -2.617  -2.426  -0.563  0.00  0.00    -0.064 C 
HETATM   13  C   UNK N   1      -0.007  -0.292   1.486  0.00  0.00     0.042 C 
HETATM   14  C   UNK N   1       1.111   0.773  -1.573  0.00  0.00    -0.011 C 
HETATM   15  C   UNK N   1      -0.845  -1.454  -2.636  0.00  0.00     0.008 C 
HETATM   16  C   UNK N   1      -4.832  -3.195  -0.488  0.00  0.00     0.033 C 
HETATM   17  C   UNK N   1      -2.357  -1.565  -2.881  0.00  0.00     0.014 C 
HETATM   18  C   UNK N   1      -0.403  -3.392   0.012  0.00  0.00     0.023 C 
HETATM   19  C   UNK N   1       1.928  -1.588  -1.599  0.00  0.00     0.020 C 
HETATM   20  C   UNK N   1      -2.592  -4.064  -2.492  0.00  0.00     0.020 C 
HETATM   21  C   UNK N   1       2.258   1.468  -1.652  0.00  0.00     0.079 C 
HETATM   22  C   UNK N   1      -3.614  -2.767   0.253  0.00  0.00    -0.022 C 
HETATM   23  C   UNK N   1       2.095   1.788   1.496  0.00  0.00     0.047 C 
HETATM   24  C   UNK N   1       3.119  -0.289   2.395  0.00  0.00     0.047 C 
ENDROOT
BRANCH   7  25
HETATM   25  C   UNK N   1      -5.301  -1.256  -2.117  0.00  0.00     0.025 C 
HETATM   26  C   UNK N   1      -6.836  -1.310  -1.884  0.00  0.00     0.184 C 
HETATM   27  O   UNK N   1      -7.318  -0.216  -2.559  0.00  0.00    -0.321 OA
HETATM   28  C   UNK N   1      -6.484   0.136  -3.539  0.00  0.00     0.259 C 
HETATM   29  O   UNK N   1      -6.801   0.921  -4.418  0.00  0.00    -0.265 OA
HETATM   30  C   UNK N   1      -5.232  -0.646  -3.546  0.00  0.00     0.118 C 
ENDBRANCH   7  25
BRANCH   3  31
HETATM   31  O   UNK N   1      -2.357  -0.607   1.464  0.00  0.00    -0.315 OA
BRANCH  31  32
HETATM   32  C   UNK N   1      -2.844  -0.186   2.660  0.00  0.00     0.255 C 
HETATM   33  O   UNK N   1      -2.291  -0.494   3.707  0.00  0.00    -0.266 OA
HETATM   34  C   UNK N   1      -4.092   0.635   2.688  0.00  0.00     0.126 C 
ENDBRANCH  31  32
ENDBRANCH   3  31
TORSDOF 3
