REMARK  5 active torsions:
REMARK  status: ('A' for Active; 'I' for Inactive)
REMARK    1  A    between atoms: O_2  and  C_8 
REMARK    2  A    between atoms: O_3  and  C_9 
REMARK    3  A    between atoms: O_3  and  C_18 
REMARK    4  A    between atoms: O_4  and  C_10 
REMARK    5  A    between atoms: C_16  and  C_24 
ROOT
HETATM    1  O   UNK N   1      -5.567   0.637  -3.352  0.00  0.00    -0.292 OA
HETATM    2  C   UNK N   1       1.830   1.603  -1.697  0.00  0.00     0.145 C 
HETATM    3  C   UNK N   1      -1.523   0.561   0.980  0.00  0.00     0.131 C 
HETATM    4  C   UNK N   1      -0.358   1.314   0.270  0.00  0.00     0.011 C 
HETATM    5  C   UNK N   1       1.835   0.278  -0.900  0.00  0.00     0.015 C 
HETATM    6  C   UNK N   1      -2.161   2.248  -1.518  0.00  0.00    -0.017 C 
HETATM    7  C   UNK N   1      -0.766   1.539  -1.242  0.00  0.00     0.015 C 
HETATM    8  C   UNK N   1      -3.331   1.553  -0.693  0.00  0.00     0.016 C 
HETATM    9  C   UNK N   1       3.188   0.071  -0.152  0.00  0.00     0.043 C 
HETATM   10  C   UNK N   1      -4.511   0.951  -2.820  0.00  0.00     0.157 C 
HETATM   11  C   UNK N   1       0.937   0.470   0.300  0.00  0.00    -0.061 C 
HETATM   12  C   UNK N   1       0.412   2.041  -2.155  0.00  0.00     0.040 C 
HETATM   13  C   UNK N   1      -2.889   1.281   0.787  0.00  0.00     0.039 C 
HETATM   14  C   UNK N   1      -2.446   2.258  -3.025  0.00  0.00    -0.013 C 
HETATM   15  C   UNK N   1      -4.140   0.412  -1.449  0.00  0.00     0.022 C 
HETATM   16  C   UNK N   1       2.810  -0.670   1.140  0.00  0.00     0.038 C 
HETATM   17  C   UNK N   1      -0.010   2.611   1.057  0.00  0.00     0.023 C 
HETATM   18  C   UNK N   1       1.456  -0.965  -1.744  0.00  0.00     0.023 C 
HETATM   19  C   UNK N   1      -2.151   3.764  -1.163  0.00  0.00     0.020 C 
HETATM   20  C   UNK N   1      -3.524   1.708  -3.595  0.00  0.00     0.048 C 
HETATM   21  C   UNK N   1       1.480  -0.047   1.408  0.00  0.00    -0.021 C 
HETATM   22  C   UNK N   1      -3.422  -0.928  -1.704  0.00  0.00     0.024 C 
HETATM   23  C   UNK N   1      -5.445   0.080  -0.668  0.00  0.00     0.024 C 
ENDROOT
BRANCH   9  24
HETATM   24  C   UNK N   1       4.366  -0.491  -0.916  0.00  0.00     0.024 A 
HETATM   25  C   UNK N   1       5.471   0.256  -1.452  0.00  0.00     0.292 A 
HETATM   26  O   UNK N   1       6.343  -0.566  -2.055  0.00  0.00    -0.283 OA
HETATM   27  O   UNK N   1       5.607   1.466  -1.402  0.00  0.00    -0.259 OA
HETATM   28  C   UNK N   1       5.912  -1.885  -1.960  0.00  0.00     0.291 A 
HETATM   29  C   UNK N   1       4.602  -1.762  -1.204  0.00  0.00     0.047 A 
BRANCH  28  30
HETATM   30  O   UNK N   1       6.827  -2.643  -1.219  0.00  0.00    -0.367 OA
HETATM   31  H   UNK N   1       7.650  -2.698  -1.772  0.00  0.00     0.213 HD
ENDBRANCH  28  30
ENDBRANCH   9  24
BRANCH   2  32
HETATM   32  O   UNK N   1       2.720   1.552  -2.757  0.00  0.00    -0.315 OA
BRANCH  32  33
HETATM   33  C   UNK N   1       3.257   2.643  -3.364  0.00  0.00     0.255 C 
HETATM   34  O   UNK N   1       3.056   3.767  -2.926  0.00  0.00    -0.266 OA
HETATM   35  C   UNK N   1       4.132   2.456  -4.562  0.00  0.00     0.126 C 
ENDBRANCH  32  33
ENDBRANCH   2  32
BRANCH   3  36
HETATM   36  O   UNK N   1      -1.574  -0.761   0.524  0.00  0.00    -0.394 OA
HETATM   37  H   UNK N   1      -2.011  -1.299   1.236  0.00  0.00     0.210 HD
ENDBRANCH   3  36
TORSDOF 5
