REMARK  5 active torsions:
REMARK  status: ('A' for Active; 'I' for Inactive)
REMARK    1  A    between atoms: O_2  and  C_8 
REMARK    2  A    between atoms: O_3  and  C_9 
REMARK    3  A    between atoms: O_3  and  C_18 
REMARK    4  A    between atoms: O_4  and  C_10 
REMARK    5  A    between atoms: C_15  and  C_20 
ROOT
HETATM    1  O   UNK N   1      -4.739   0.803  -3.408  0.00  0.00    -0.292 OA
HETATM    2  C   UNK N   1       2.533   0.266  -1.101  0.00  0.00     0.145 C 
HETATM    3  C   UNK N   1      -1.133   0.845   1.295  0.00  0.00     0.131 C 
HETATM    4  C   UNK N   1       0.234   1.062   0.575  0.00  0.00     0.011 C 
HETATM    5  C   UNK N   1       2.107  -0.776  -0.045  0.00  0.00     0.015 C 
HETATM    6  C   UNK N   1      -1.134   1.930  -1.588  0.00  0.00    -0.017 C 
HETATM    7  C   UNK N   1      -0.010   0.988  -0.982  0.00  0.00     0.015 C 
HETATM    8  C   UNK N   1       3.288  -1.174   0.908  0.00  0.00     0.038 C 
HETATM    9  C   UNK N   1      -2.497   1.796  -0.776  0.00  0.00     0.016 C 
HETATM   10  C   UNK N   1      -3.673   0.973  -2.832  0.00  0.00     0.157 C 
HETATM   11  C   UNK N   1       1.233  -0.055   0.958  0.00  0.00    -0.061 C 
HETATM   12  C   UNK N   1       1.321   0.924  -1.824  0.00  0.00     0.040 C 
HETATM   13  C   UNK N   1      -2.234   1.813   0.770  0.00  0.00     0.039 C 
HETATM   14  C   UNK N   1      -1.316   1.612  -3.076  0.00  0.00    -0.013 C 
HETATM   15  C   UNK N   1      -3.554   0.747  -1.335  0.00  0.00     0.022 C 
HETATM   16  C   UNK N   1       2.616  -1.432   2.263  0.00  0.00     0.038 C 
HETATM   17  C   UNK N   1       0.887   2.386   1.062  0.00  0.00     0.023 C 
HETATM   18  C   UNK N   1       1.412  -2.020  -0.658  0.00  0.00     0.023 C 
HETATM   19  C   UNK N   1      -0.722   3.430  -1.600  0.00  0.00     0.020 C 
HETATM   20  C   UNK N   1      -2.469   1.220  -3.632  0.00  0.00     0.048 C 
HETATM   21  C   UNK N   1       1.529  -0.411   2.212  0.00  0.00    -0.021 C 
HETATM   22  C   UNK N   1      -4.944   0.993  -0.678  0.00  0.00     0.024 C 
HETATM   23  C   UNK N   1      -3.238  -0.751  -1.155  0.00  0.00     0.024 C 
ENDROOT
BRANCH   8  24
HETATM   24  C   UNK N   1       4.285  -2.236   0.483  0.00  0.00    -0.014 A 
HETATM   25  C   UNK N   1       5.775  -1.987   0.312  0.00  0.00     0.298 A 
HETATM   26  O   UNK N   1       6.255  -3.231  -0.076  0.00  0.00    -0.282 OA
HETATM   27  C   UNK N   1       5.255  -4.124  -0.118  0.00  0.00     0.285 A 
HETATM   28  O   UNK N   1       5.402  -5.293  -0.428  0.00  0.00    -0.260 OA
HETATM   29  C   UNK N   1       4.011  -3.511   0.244  0.00  0.00     0.090 A 
BRANCH  25  30
HETATM   30  O   UNK N   1       6.005  -1.038  -0.690  0.00  0.00    -0.367 OA
HETATM   31  H   UNK N   1       6.941  -0.728  -0.573  0.00  0.00     0.213 HD
ENDBRANCH  25  30
ENDBRANCH   8  24
BRANCH   2  32
HETATM   32  O   UNK N   1       3.431  -0.275  -2.006  0.00  0.00    -0.315 OA
BRANCH  32  33
HETATM   33  C   UNK N   1       4.284   0.456  -2.771  0.00  0.00     0.255 C 
HETATM   34  O   UNK N   1       4.404   1.661  -2.600  0.00  0.00    -0.266 OA
HETATM   35  C   UNK N   1       5.110  -0.234  -3.809  0.00  0.00     0.126 C 
ENDBRANCH  32  33
ENDBRANCH   2  32
BRANCH   3  36
HETATM   36  O   UNK N   1      -1.527  -0.492   1.164  0.00  0.00    -0.394 OA
HETATM   37  H   UNK N   1      -2.162  -0.681   1.904  0.00  0.00     0.210 HD
ENDBRANCH   3  36
TORSDOF 5
