REMARK  6 active torsions:
REMARK  status: ('A' for Active; 'I' for Inactive)
REMARK    1  A    between atoms: O_2  and  C_9 
REMARK    2  A    between atoms: O_3  and  C_10 
REMARK    3  A    between atoms: O_3  and  C_19 
REMARK    4  A    between atoms: O_4  and  C_11 
REMARK    5  A    between atoms: O_4  and  C_20 
REMARK    6  A    between atoms: C_16  and  C_22 
ROOT
HETATM    1  O   UNK N   1       4.201   3.490   4.125  0.00  0.00    -0.292 OA
HETATM    2  C   UNK N   1       3.052   1.050  -1.007  0.00  0.00     0.145 C 
HETATM    3  C   UNK N   1      -0.955   2.727  -0.457  0.00  0.00     0.145 C 
HETATM    4  C   UNK N   1       1.510   0.875  -0.903  0.00  0.00     0.012 C 
HETATM    5  C   UNK N   1      -0.194   2.755  -1.842  0.00  0.00     0.015 C 
HETATM    6  C   UNK N   1       1.769   0.947   1.778  0.00  0.00    -0.017 C 
HETATM    7  C   UNK N   1       1.068   1.518   0.479  0.00  0.00     0.015 C 
HETATM    8  C   UNK N   1      -1.026   2.672  -3.168  0.00  0.00     0.038 C 
HETATM    9  C   UNK N   1       3.349   0.967   1.614  0.00  0.00     0.016 C 
HETATM   10  C   UNK N   1       3.545   2.756   3.399  0.00  0.00     0.157 C 
HETATM   11  C   UNK N   1       0.775   1.616  -2.046  0.00  0.00    -0.061 C 
HETATM   12  C   UNK N   1      -0.480   1.621   0.520  0.00  0.00     0.040 C 
HETATM   13  C   UNK N   1       3.783   0.406   0.217  0.00  0.00     0.040 C 
HETATM   14  C   UNK N   1       1.326   1.766   2.994  0.00  0.00    -0.013 C 
HETATM   15  C   UNK N   1       4.120   2.280   2.076  0.00  0.00     0.022 C 
HETATM   16  C   UNK N   1       0.014   2.185  -4.206  0.00  0.00     0.038 C 
HETATM   17  C   UNK N   1       1.128  -0.633  -1.088  0.00  0.00     0.023 C 
HETATM   18  C   UNK N   1       0.637   4.077  -1.908  0.00  0.00     0.023 C 
HETATM   19  C   UNK N   1       1.310  -0.491   2.145  0.00  0.00     0.020 C 
HETATM   20  C   UNK N   1       2.133   2.533   3.731  0.00  0.00     0.048 C 
HETATM   21  C   UNK N   1       0.908   1.342  -3.352  0.00  0.00    -0.021 C 
HETATM   22  C   UNK N   1       5.623   1.938   2.306  0.00  0.00     0.024 C 
HETATM   23  C   UNK N   1       4.078   3.480   1.109  0.00  0.00     0.024 C 
ENDROOT
BRANCH   8  24
HETATM   24  C   UNK N   1      -2.197   1.683  -3.139  0.00  0.00    -0.014 A 
HETATM   25  C   UNK N   1      -2.147   0.185  -2.854  0.00  0.00     0.298 A 
HETATM   26  O   UNK N   1      -3.475  -0.199  -2.961  0.00  0.00    -0.282 OA
HETATM   27  C   UNK N   1      -4.247   0.857  -3.265  0.00  0.00     0.285 A 
HETATM   28  O   UNK N   1      -5.450   0.794  -3.419  0.00  0.00    -0.260 OA
HETATM   29  C   UNK N   1      -3.451   2.044  -3.380  0.00  0.00     0.090 A 
BRANCH  25  30
HETATM   30  O   UNK N   1      -1.379  -0.480  -3.820  0.00  0.00    -0.367 OA
HETATM   31  H   UNK N   1      -1.034  -1.306  -3.392  0.00  0.00     0.213 HD
ENDBRANCH  25  30
ENDBRANCH   8  24
BRANCH   3  32
HETATM   32  O   UNK N   1      -2.331   2.690  -0.594  0.00  0.00    -0.315 OA
BRANCH  32  33
HETATM   33  C   UNK N   1      -3.207   3.176   0.325  0.00  0.00     0.255 C 
HETATM   34  O   UNK N   1      -2.813   3.805   1.298  0.00  0.00    -0.266 OA
HETATM   35  C   UNK N   1      -4.669   2.951   0.132  0.00  0.00     0.126 C 
ENDBRANCH  32  33
ENDBRANCH   3  32
BRANCH   2  36
HETATM   36  O   UNK N   1       3.506   0.478  -2.183  0.00  0.00    -0.315 OA
BRANCH  36  37
HETATM   37  C   UNK N   1       4.708   0.734  -2.758  0.00  0.00     0.255 C 
HETATM   38  O   UNK N   1       5.445   1.603  -2.313  0.00  0.00    -0.266 OA
HETATM   39  C   UNK N   1       5.112  -0.041  -3.969  0.00  0.00     0.126 C 
ENDBRANCH  36  37
ENDBRANCH   2  36
TORSDOF 6
