REMARK  9 active torsions:
REMARK  status: ('A' for Active; 'I' for Inactive)
REMARK    1  A    between atoms: O_2  and  C_9 
REMARK    2  A    between atoms: O_2  and  C_23 
REMARK    3  A    between atoms: O_3  and  C_10 
REMARK    4  A    between atoms: O_4  and  C_11 
REMARK    5  A    between atoms: O_5  and  C_21 
REMARK    6  A    between atoms: O_7  and  C_24 
REMARK    7  A    between atoms: C_12  and  C_20 
REMARK    8  A    between atoms: C_23  and  C_26 
REMARK    9  A    between atoms: C_24  and  C_25 
ROOT
HETATM    1  O   UNK N   1       2.465   0.473  -1.138  0.00  0.00    -0.337 OA
HETATM    2  O   UNK N   1       4.363   3.797   0.021  0.00  0.00    -0.289 OA
HETATM    3  C   UNK N   1       1.721   1.609  -1.083  0.00  0.00     0.089 A 
HETATM    4  C   UNK N   1      -0.422   2.700  -1.419  0.00  0.00     0.074 A 
HETATM    5  C   UNK N   1       1.467   3.989  -0.575  0.00  0.00     0.085 A 
HETATM    6  C   UNK N   1       2.292   2.826  -0.639  0.00  0.00     0.079 A 
HETATM    7  C   UNK N   1       0.389   1.555  -1.473  0.00  0.00     0.074 A 
HETATM    8  C   UNK N   1       0.124   3.903  -0.966  0.00  0.00     0.074 A 
HETATM    9  C   UNK N   1       3.593   0.299  -0.355  0.00  0.00     0.198 C 
HETATM   10  C   UNK N   1       4.524   1.516  -0.532  0.00  0.00     0.227 C 
HETATM   11  C   UNK N   1       3.751   2.794  -0.306  0.00  0.00     0.196 C 
ENDROOT
BRANCH   4  12
HETATM   12  O   UNK N   1      -1.728   2.673  -1.796  0.00  0.00    -0.347 OA
BRANCH  12  13
HETATM   13  C   UNK N   1      -2.377   1.543  -2.251  0.00  0.00     0.203 C 
BRANCH  13  14
HETATM   14  C   UNK N   1      -3.810   1.876  -2.558  0.00  0.00     0.004 C 
HETATM   15  C   UNK N   1      -4.423   1.735  -3.762  0.00  0.00    -0.062 C 
HETATM   16  C   UNK N   1      -3.750   1.214  -5.017  0.00  0.00     0.045 C 
BRANCH  15  17
HETATM   17  C   UNK N   1      -5.881   2.113  -3.880  0.00  0.00     0.198 C 
BRANCH  17  18
HETATM   18  O   UNK N   1      -6.640   1.006  -4.286  0.00  0.00    -0.397 OA
HETATM   19  H   UNK N   1      -6.587   0.340  -3.550  0.00  0.00     0.209 HD
ENDBRANCH  17  18
ENDBRANCH  15  17
ENDBRANCH  13  14
ENDBRANCH  12  13
ENDBRANCH   4  12
BRANCH   5  20
HETATM   20  O   UNK N   1       1.910   5.197  -0.154  0.00  0.00    -0.360 OA
HETATM   21  H   UNK N   1       2.793   5.389   0.172  0.00  0.00     0.217 HD
ENDBRANCH   5  20
BRANCH   9  22
HETATM   22  C   UNK N   1       3.154  -0.015   1.076  0.00  0.00    -0.026 A 
HETATM   23  C   UNK N   1       3.459   0.814   2.177  0.00  0.00     0.012 A 
HETATM   24  C   UNK N   1       3.038   0.466   3.464  0.00  0.00     0.037 A 
HETATM   25  C   UNK N   1       2.321  -0.713   3.678  0.00  0.00     0.065 A 
HETATM   26  C   UNK N   1       2.012  -1.544   2.594  0.00  0.00     0.037 A 
HETATM   27  C   UNK N   1       2.420  -1.195   1.303  0.00  0.00     0.012 A 
BRANCH  25  28
HETATM   28  O   UNK N   1       1.937  -1.040   4.928  0.00  0.00    -0.361 OA
HETATM   29  H   UNK N   1       1.451  -1.857   5.114  0.00  0.00     0.217 HD
ENDBRANCH  25  28
ENDBRANCH   9  22
BRANCH  10  30
HETATM   30  O   UNK N   1       5.021   1.517  -1.845  0.00  0.00    -0.385 OA
HETATM   31  H   UNK N   1       5.735   2.207  -1.881  0.00  0.00     0.210 HD
ENDBRANCH  10  30
TORSDOF 9
