REMARK  9 active torsions:
REMARK  status: ('A' for Active; 'I' for Inactive)
REMARK    1  A    between atoms: O_1  and  C_8 
REMARK    2  A    between atoms: O_1  and  C_14 
REMARK    3  A    between atoms: O_2  and  C_9 
REMARK    4  A    between atoms: O_4  and  C_15 
REMARK    5  A    between atoms: O_5  and  C_16 
REMARK    6  A    between atoms: O_6  and  C_17 
REMARK    7  A    between atoms: O_7  and  C_19 
REMARK    8  A    between atoms: C_10  and  C_20 
REMARK    9  A    between atoms: C_18  and  C_19 
ROOT
HETATM    1  O   UNK N   1      -2.037   1.142  -2.111  0.00  0.00    -0.348 OA
HETATM    2  C   UNK N   1      -1.941  -0.271  -2.109  0.00  0.00     0.298 C 
HETATM    3  C   UNK N   1      -3.267  -0.881  -1.628  0.00  0.00     0.205 C 
HETATM    4  C   UNK N   1      -4.385  -0.398  -2.589  0.00  0.00     0.183 C 
HETATM    5  C   UNK N   1      -4.372   1.144  -2.715  0.00  0.00     0.180 C 
HETATM    6  C   UNK N   1      -2.945   1.595  -3.092  0.00  0.00     0.179 C 
ENDROOT
BRANCH   2   7
HETATM    7  O   UNK N   1      -0.895  -0.605  -1.265  0.00  0.00    -0.317 OA
BRANCH   7   8
HETATM    8  C   UNK N   1       0.383  -0.162  -1.466  0.00  0.00     0.079 A 
HETATM    9  C   UNK N   1       1.246   0.029  -0.361  0.00  0.00    -0.018 A 
HETATM   10  C   UNK N   1       2.541   0.545  -0.584  0.00  0.00     0.047 A 
HETATM   11  C   UNK N   1       2.981   0.855  -1.878  0.00  0.00     0.072 A 
HETATM   12  C   UNK N   1       2.133   0.650  -2.973  0.00  0.00    -0.026 A 
HETATM   13  C   UNK N   1       0.845   0.149  -2.765  0.00  0.00     0.047 A 
HETATM   14  C   UNK N   1       2.591   0.974  -4.368  0.00  0.00     0.051 C 
BRANCH   9  15
HETATM   15  C   UNK N   1       0.787  -0.278   1.060  0.00  0.00     0.013 C 
HETATM   16  C   UNK N   1       0.737   1.003   1.903  0.00  0.00     0.015 C 
HETATM   17  C   UNK N   1       1.697  -1.325   1.719  0.00  0.00     0.015 C 
ENDBRANCH   9  15
BRANCH  11  18
HETATM   18  O   UNK N   1       4.221   1.356  -2.072  0.00  0.00    -0.360 OA
HETATM   19  H   UNK N   1       4.825   1.521  -1.336  0.00  0.00     0.217 HD
ENDBRANCH  11  18
ENDBRANCH   7   8
ENDBRANCH   2   7
BRANCH   3  20
HETATM   20  O   UNK N   1      -3.166  -2.282  -1.649  0.00  0.00    -0.388 OA
HETATM   21  H   UNK N   1      -4.026  -2.645  -1.313  0.00  0.00     0.210 HD
ENDBRANCH   3  20
BRANCH   6  22
HETATM   22  C   UNK N   1      -2.830   3.124  -3.159  0.00  0.00     0.198 C 
BRANCH  22  23
HETATM   23  O   UNK N   1      -1.531   3.502  -3.533  0.00  0.00    -0.398 OA
HETATM   24  H   UNK N   1      -0.953   3.390  -2.732  0.00  0.00     0.209 HD
ENDBRANCH  22  23
ENDBRANCH   6  22
BRANCH   4  25
HETATM   25  O   UNK N   1      -5.647  -0.860  -2.175  0.00  0.00    -0.390 OA
HETATM   26  H   UNK N   1      -5.822  -0.478  -1.275  0.00  0.00     0.210 HD
ENDBRANCH   4  25
BRANCH   5  27
HETATM   27  O   UNK N   1      -5.274   1.563  -3.706  0.00  0.00    -0.390 OA
HETATM   28  H   UNK N   1      -6.188   1.387  -3.362  0.00  0.00     0.210 HD
ENDBRANCH   5  27
TORSDOF 9
