farinosone C
XX    ILIB03122402103D

 50 50  0  0  1  0              1 V2000
    1.1810    0.8305   -3.8054 O   0  0  0  0  0
    1.0241    1.2878   -2.6795 C   0  0  0  0  0
    1.7510    0.9734   -1.5584 N   0  0  0  0  0
    2.8536    0.0294   -1.5980 C   0  0  1  0  0
    4.1422    0.7131   -1.1545 C   0  0  0  0  0
    4.4299    1.7980   -2.0298 O   0  0  0  0  0
    3.6645    2.3972   -2.0118 H   0  0  0  0  0
    4.0622    1.1147   -0.1388 H   0  0  0  0  0
    4.9900    0.0225   -1.1946 H   0  0  0  0  0
    2.5385   -1.2065   -0.7318 C   0  0  0  0  0
    2.3448   -0.8804    0.7227 C   0  0  0  0  0
    1.0699   -0.5539    1.2065 C   0  0  0  0  0
    0.8779   -0.2389    2.5529 C   0  0  0  0  0
    1.9627   -0.2458    3.4216 C   0  0  0  0  0
    1.7466    0.0708    4.7339 O   0  0  0  0  0
    2.5957    0.0288    5.2060 H   0  0  0  0  0
    3.2378   -0.5673    2.9643 C   0  0  0  0  0
    3.4260   -0.8830    1.6178 C   0  0  0  0  0
    4.4266   -1.1282    1.2703 H   0  0  0  0  0
    4.0880   -0.5743    3.6412 H   0  0  0  0  0
   -0.1172    0.0112    2.9103 H   0  0  0  0  0
    0.2137   -0.5431    0.5360 H   0  0  0  0  0
    1.6485   -1.7213   -1.1162 H   0  0  0  0  0
    3.3635   -1.9255   -0.8180 H   0  0  0  0  0
    2.9778   -0.2811   -2.6429 H   0  0  0  0  0
    1.5688    1.4478   -0.6865 H   0  0  0  0  0
   -0.0615    2.2656   -2.3714 C   0  0  0  0  0
   -1.3121    2.0087   -1.9917 C   0  0  0  0  0
   -1.9478    0.7287   -1.8049 C   0  0  0  0  0
   -3.2255    0.5446   -1.4158 C   0  0  0  0  0
   -4.2742    1.5988   -1.1194 C   0  0  1  0  0
   -5.1348    2.0351   -2.3257 C   0  0  0  0  0
   -5.8848    0.8595   -2.8929 C   0  0  0  0  0
   -7.0023    0.5175   -2.5271 O   0  0  0  0  0
   -5.1826    0.2111   -3.8557 O   0  0  0  0  0
   -4.2975    0.5868   -4.0471 H   0  0  0  0  0
   -4.5210    2.4588   -3.1298 H   0  0  0  0  0
   -5.8650    2.8061   -2.0484 H   0  0  0  0  0
   -5.1970    1.1033    0.0029 C   0  0  0  0  0
   -5.7272    0.1899   -0.2915 H   0  0  0  0  0
   -4.6338    0.8876    0.9173 H   0  0  0  0  0
   -5.9455    1.8610    0.2553 H   0  0  0  0  0
   -3.7469    2.4903   -0.7500 H   0  0  0  0  0
   -3.5745   -0.4835   -1.3132 H   0  0  0  0  0
   -1.0635   -0.4477   -2.1218 C   0  0  0  0  0
   -0.7404   -0.4179   -3.1680 H   0  0  0  0  0
   -1.5745   -1.4044   -1.9635 H   0  0  0  0  0
   -0.1740   -0.4429   -1.4826 H   0  0  0  0  0
   -1.9493    2.8721   -1.8007 H   0  0  0  0  0
    0.2300    3.3209   -2.4654 H   0  0  0  0  0
  1  2  2  0  0  0
  2  3  1  0  0  0
  2 27  1  0  0  0
  3  4  1  0  0  0
  3 26  1  0  0  0
  4  5  1  0  0  0
  4 10  1  0  0  0
  4 25  1  0  0  0
  5  6  1  0  0  0
  5  8  1  0  0  0
  5  9  1  0  0  0
  6  7  1  0  0  0
 10 11  1  0  0  0
 10 23  1  0  0  0
 10 24  1  0  0  0
 11 12  2  0  0  0
 11 18  1  0  0  0
 12 13  1  0  0  0
 12 22  1  0  0  0
 13 14  2  0  0  0
 13 21  1  0  0  0
 14 15  1  0  0  0
 14 17  1  0  0  0
 15 16  1  0  0  0
 17 18  2  0  0  0
 17 20  1  0  0  0
 18 19  1  0  0  0
 27 28  2  0  0  0
 27 50  1  0  0  0
 28 29  1  0  0  0
 28 49  1  0  0  0
 29 30  2  0  0  0
 29 45  1  0  0  0
 30 31  1  0  0  0
 30 44  1  0  0  0
 31 32  1  0  0  0
 31 39  1  0  0  0
 31 43  1  0  0  0
 32 33  1  0  0  0
 32 37  1  0  0  0
 32 38  1  0  0  0
 33 34  2  0  0  0
 33 35  1  0  0  0
 35 36  1  0  0  0
 39 40  1  0  0  0
 39 41  1  0  0  0
 39 42  1  0  0  0
 45 46  1  0  0  0
 45 47  1  0  0  0
 45 48  1  0  0  0
M  END
> <Tumorigenic>
none

> <Score>
44.555935

> <Active/Decoy>
active

> <InChI>
InChI=1S/C19H25NO5/c1-13(9-14(2)10-19(24)25)3-8-18(23)20-16(12-21)11-15-4-6-17(22)7-5-15/h3-9,14,16,21-22H,10-12H2,1-2H3,(H,20,23)(H,24,25)/b8-3+,13-9+/t14-,16+/m0/s1

> <Matching Features>
H:14924486185440016873|HBA:149238150533300697|HBA:14924321692640012300|HBA:14924486112070016868

> <Mol. Index>
555

> <Pharmacophore Match>
Model -1

> <# Confs.>
25

> <Source Database>
Pharm-Screening-input-NANPDB_After_DataWarror.ldb

> <Pharmacophore-Fit Score>
44.56

> <formula>
C19H25NO5

> <Mutagenic>
none

> <Reproductive Effective>
none

> <Irritant>
none

$$$$
blumenol C glucoside
XX    ILIB03122402103D

 58 59  0  0  1  0              1 V2000
    4.2064    1.4738   -2.0719 O   0  0  0  0  0
    3.3474    0.7246   -1.6094 C   0  0  0  0  0
    2.6756   -0.2482   -2.5013 C   0  0  0  0  0
    1.6851   -1.0366   -2.0559 C   0  0  0  0  0
    1.1858   -1.0115   -0.6174 C   0  0  1  0  0
    2.2853   -0.4856    0.3685 C   0  0  0  0  0
    2.9308    0.8097   -0.1577 C   0  0  0  0  0
    3.8246    1.0457    0.4332 H   0  0  0  0  0
    2.2510    1.6628   -0.0622 H   0  0  0  0  0
    3.3878   -1.5671    0.5339 C   0  0  0  0  0
    4.1703   -1.2292    1.2235 H   0  0  0  0  0
    2.9674   -2.4927    0.9431 H   0  0  0  0  0
    3.8750   -1.8168   -0.4126 H   0  0  0  0  0
    1.7171   -0.2188    1.7765 C   0  0  0  0  0
    1.0169    0.6239    1.7820 H   0  0  0  0  0
    2.5150    0.0300    2.4842 H   0  0  0  0  0
    1.1931   -1.0998    2.1643 H   0  0  0  0  0
   -0.1671   -0.3089   -0.5417 C   0  0  0  0  0
   -0.1189    1.1226   -1.0243 C   0  0  0  0  0
   -1.4630    1.8246   -0.9535 C   0  0  2  0  0
   -2.4385    1.1635   -1.7471 O   0  0  0  0  0
   -3.7684    1.2883   -1.2618 C   0  0  2  0  0
   -3.8842    0.7380    0.0546 O   0  0  0  0  0
   -5.2070    0.8543    0.5859 C   0  0  1  0  0
   -6.1781    0.0285   -0.2649 C   0  0  1  0  0
   -7.5081    0.1816    0.2209 O   0  0  0  0  0
   -7.7325    1.1278    0.1876 H   0  0  0  0  0
   -6.1159    0.4652   -1.7292 C   0  0  2  0  0
   -6.8609   -0.4527   -2.5292 O   0  0  0  0  0
   -6.4531   -1.3319   -2.4388 H   0  0  0  0  0
   -4.6727    0.5168   -2.2307 C   0  0  1  0  0
   -4.6642    1.1625   -3.5036 O   0  0  0  0  0
   -3.7385    1.2096   -3.7986 H   0  0  0  0  0
   -4.2910   -0.4998   -2.3856 H   0  0  0  0  0
   -6.6010    1.4396   -1.8600 H   0  0  0  0  0
   -5.9349   -1.0394   -0.2042 H   0  0  0  0  0
   -5.1672    0.4138    2.0396 C   0  0  0  0  0
   -4.2811    1.2262    2.7934 O   0  0  0  0  0
   -3.3833    1.0839    2.4497 H   0  0  0  0  0
   -6.1654    0.4931    2.4848 H   0  0  0  0  0
   -4.8630   -0.6338    2.1346 H   0  0  0  0  0
   -5.4995    1.9128    0.5786 H   0  0  0  0  0
   -4.0549    2.3503   -1.2542 H   0  0  0  0  0
   -1.3496    3.2565   -1.5045 C   0  0  0  0  0
   -1.0538    3.2478   -2.5594 H   0  0  0  0  0
   -0.6231    3.8476   -0.9390 H   0  0  0  0  0
   -2.3205    3.7621   -1.4560 H   0  0  0  0  0
   -1.8143    1.9002    0.0842 H   0  0  0  0  0
    0.6276    1.6935   -0.4431 H   0  0  0  0  0
    0.2405    1.1390   -2.0687 H   0  0  0  0  0
   -0.9049   -0.8699   -1.1282 H   0  0  0  0  0
   -0.5110   -0.3269    0.4996 H   0  0  0  0  0
    0.9910   -2.0546   -0.3252 H   0  0  0  0  0
    1.0275   -2.0252   -2.9794 C   0  0  0  0  0
    1.4855   -2.0289   -3.9744 H   0  0  0  0  0
   -0.0338   -1.7913   -3.1084 H   0  0  0  0  0
    1.1147   -3.0380   -2.5742 H   0  0  0  0  0
    3.0172   -0.2857   -3.5299 H   0  0  0  0  0
  1  2  2  0  0  0
  2  3  1  0  0  0
  2  7  1  0  0  0
  3  4  2  0  0  0
  3 58  1  0  0  0
  4  5  1  0  0  0
  4 54  1  0  0  0
  5  6  1  0  0  0
  5 18  1  0  0  0
  5 53  1  0  0  0
  6  7  1  0  0  0
  6 10  1  0  0  0
  6 14  1  0  0  0
  7  8  1  0  0  0
  7  9  1  0  0  0
 10 11  1  0  0  0
 10 12  1  0  0  0
 10 13  1  0  0  0
 14 15  1  0  0  0
 14 16  1  0  0  0
 14 17  1  0  0  0
 18 19  1  0  0  0
 18 51  1  0  0  0
 18 52  1  0  0  0
 19 20  1  0  0  0
 19 49  1  0  0  0
 19 50  1  0  0  0
 20 21  1  0  0  0
 20 44  1  0  0  0
 20 48  1  0  0  0
 21 22  1  0  0  0
 22 23  1  0  0  0
 22 31  1  0  0  0
 22 43  1  0  0  0
 23 24  1  0  0  0
 24 25  1  0  0  0
 24 37  1  0  0  0
 24 42  1  0  0  0
 25 26  1  0  0  0
 25 28  1  0  0  0
 25 36  1  0  0  0
 26 27  1  0  0  0
 28 29  1  0  0  0
 28 31  1  0  0  0
 28 35  1  0  0  0
 29 30  1  0  0  0
 31 32  1  0  0  0
 31 34  1  0  0  0
 32 33  1  0  0  0
 37 38  1  0  0  0
 37 40  1  0  0  0
 37 41  1  0  0  0
 38 39  1  0  0  0
 44 45  1  0  0  0
 44 46  1  0  0  0
 44 47  1  0  0  0
 54 55  1  0  0  0
 54 56  1  0  0  0
 54 57  1  0  0  0
M  END
> <Tumorigenic>
none

> <Score>
44.478733

> <Active/Decoy>
active

> <InChI>
InChI=1S/C19H32O7/c1-10-7-12(21)8-19(3,4)13(10)6-5-11(2)25-18-17(24)16(23)15(22)14(9-20)26-18/h7,11,13-18,20,22-24H,5-6,8-9H2,1-4H3/t11-,13+,14-,15-,16+,17-,18-/m1/s1

> <Matching Features>
H:14924486185440016873|HBA:149238150533300697|HBA:14924321692640012300|HBA:14924486112070016868

> <Mol. Index>
679

> <Pharmacophore Match>
Model -1

> <# Confs.>
11

> <Source Database>
Pharm-Screening-input-NANPDB_After_DataWarror.ldb

> <Pharmacophore-Fit Score>
44.48

> <formula>
C19H32O7

> <Mutagenic>
none

> <Reproductive Effective>
none

> <Irritant>
none

$$$$
(2S,4aS,5S,6R,8aS)-5-(2-((1S,3aS,5R,8aS,Z)-1-hydroxy-1,4,4,6-tetramethyl-1,2,3,3a,4,5,8,8a-octahydroazulen-5-yl)-ethyl)-4a,6-dimethyloctahydro-2H-chromene-2,6-diol
XX    ILIB03122402103D

 77 80  0  0  1  0              1 V2000
   -5.2443    0.4276   -3.5185 O   0  0  0  0  0
   -6.1223   -0.1216   -2.5367 C   0  0  2  0  0
   -7.4750    0.2038   -2.8412 O   0  0  0  0  0
   -7.7907   -0.4561   -3.4814 H   0  0  0  0  0
   -5.7994    0.4457   -1.1583 C   0  0  0  0  0
   -4.3265    0.2499   -0.8088 C   0  0  0  0  0
   -3.3757    0.7430   -1.9399 C   0  0  2  0  0
   -3.8713    0.1078   -3.2607 C   0  0  2  0  0
   -3.0490    0.5400   -4.4736 C   0  0  0  0  0
   -1.5733    0.7753   -4.1746 C   0  0  0  0  0
   -1.0312    0.0311   -2.9461 C   0  0  1  0  0
    0.3052    0.5080   -2.7369 O   0  0  0  0  0
    0.8226    0.3321   -3.5409 H   0  0  0  0  0
   -1.9071    0.2432   -1.6390 C   0  0  1  0  0
   -1.2055    1.1022   -0.5744 C   0  0  0  0  0
    0.0812    0.4705   -0.0738 C   0  0  0  0  0
    0.7855    1.3096    0.9826 C   0  0  1  0  0
    2.1461    0.8034    1.6032 C   0  0  0  0  0
    3.3715    0.6569    0.6540 C   0  0  2  0  0
    3.8154    1.8391   -0.2399 C   0  0  1  0  0
    4.9310    1.1773   -1.1003 C   0  0  2  0  0
    5.1883    1.8901   -2.3052 O   0  0  0  0  0
    5.5117    2.7747   -2.0627 H   0  0  0  0  0
    4.3498   -0.1993   -1.4387 C   0  0  0  0  0
    3.4174   -0.5679   -0.2810 C   0  0  0  0  0
    2.4405   -0.8497   -0.6742 H   0  0  0  0  0
    3.8064   -1.4415    0.2536 H   0  0  0  0  0
    3.7806   -0.1633   -2.3763 H   0  0  0  0  0
    5.1286   -0.9563   -1.5827 H   0  0  0  0  0
    6.2676    1.0520   -0.3602 C   0  0  0  0  0
    6.2114    0.4175    0.5279 H   0  0  0  0  0
    6.6324    2.0390   -0.0553 H   0  0  0  0  0
    7.0334    0.6311   -1.0216 H   0  0  0  0  0
    2.7127    2.4518   -1.1193 C   0  0  0  0  0
    1.6783    3.2352   -0.3796 C   0  0  0  0  0
    0.8165    2.7544    0.5296 C   0  0  0  0  0
   -0.1975    3.6682    1.1682 C   0  0  0  0  0
   -0.1240    4.6959    0.7989 H   0  0  0  0  0
   -1.2115    3.3123    0.9605 H   0  0  0  0  0
   -0.0522    3.6966    2.2532 H   0  0  0  0  0
    1.6223    4.2907   -0.6428 H   0  0  0  0  0
    3.1730    3.1580   -1.8219 H   0  0  0  0  0
    2.2303    1.6997   -1.7515 H   0  0  0  0  0
    4.2484    2.6397    0.3732 H   0  0  0  0  0
    4.2149    0.4898    1.3435 H   0  0  0  0  0
    1.9286   -0.5556    2.3366 C   0  0  0  0  0
    1.0916   -0.4984    3.0423 H   0  0  0  0  0
    1.7300   -1.3771    1.6449 H   0  0  0  0  0
    2.8184   -0.8379    2.9115 H   0  0  0  0  0
    2.5510    1.7993    2.7386 C   0  0  0  0  0
    3.4238    1.4369    3.2938 H   0  0  0  0  0
    1.7386    1.9277    3.4630 H   0  0  0  0  0
    2.8113    2.7876    2.3481 H   0  0  0  0  0
    0.0735    1.2874    1.8406 H   0  0  0  0  0
   -0.1054   -0.5428    0.3042 H   0  0  0  0  0
    0.7659    0.3500   -0.9386 H   0  0  0  0  0
   -1.0202    2.0947   -0.9606 H   0  0  0  0  0
   -1.9022    1.2007    0.2737 H   0  0  0  0  0
   -2.0114   -0.7486   -1.1969 H   0  0  0  0  0
   -0.8916   -1.4722   -3.2549 C   0  0  0  0  0
   -1.8518   -1.9600   -3.4387 H   0  0  0  0  0
   -0.2568   -1.6329   -4.1335 H   0  0  0  0  0
   -0.3967   -1.9907   -2.4257 H   0  0  0  0  0
   -0.9810    0.5260   -5.0652 H   0  0  0  0  0
   -1.3948    1.8500   -4.0441 H   0  0  0  0  0
   -3.1469   -0.2325   -5.2463 H   0  0  0  0  0
   -3.4730    1.4439   -4.9285 H   0  0  0  0  0
   -3.8061   -0.9859   -3.1826 H   0  0  0  0  0
   -3.4760    2.2893   -1.9983 C   0  0  0  0  0
   -3.3778    2.7350   -1.0026 H   0  0  0  0  0
   -2.7038    2.7388   -2.6248 H   0  0  0  0  0
   -4.4397    2.6219   -2.3984 H   0  0  0  0  0
   -4.1113    0.7565    0.1382 H   0  0  0  0  0
   -4.1625   -0.8213   -0.6309 H   0  0  0  0  0
   -6.0473    1.5146   -1.1318 H   0  0  0  0  0
   -6.4370   -0.0245   -0.3997 H   0  0  0  0  0
   -6.0307   -1.2149   -2.5313 H   0  0  0  0  0
  1  2  1  0  0  0
  1  8  1  0  0  0
  2  3  1  0  0  0
  2  5  1  0  0  0
  2 77  1  0  0  0
  3  4  1  0  0  0
  5  6  1  0  0  0
  5 75  1  0  0  0
  5 76  1  0  0  0
  6  7  1  0  0  0
  6 73  1  0  0  0
  6 74  1  0  0  0
  7  8  1  0  0  0
  7 14  1  0  0  0
  7 69  1  0  0  0
  8  9  1  0  0  0
  8 68  1  0  0  0
  9 10  1  0  0  0
  9 66  1  0  0  0
  9 67  1  0  0  0
 10 11  1  0  0  0
 10 64  1  0  0  0
 10 65  1  0  0  0
 11 12  1  0  0  0
 11 14  1  0  0  0
 11 60  1  0  0  0
 12 13  1  0  0  0
 14 15  1  0  0  0
 14 59  1  0  0  0
 15 16  1  0  0  0
 15 57  1  0  0  0
 15 58  1  0  0  0
 16 17  1  0  0  0
 16 55  1  0  0  0
 16 56  1  0  0  0
 17 18  1  0  0  0
 17 36  1  0  0  0
 17 54  1  0  0  0
 18 19  1  0  0  0
 18 46  1  0  0  0
 18 50  1  0  0  0
 19 20  1  0  0  0
 19 25  1  0  0  0
 19 45  1  0  0  0
 20 21  1  0  0  0
 20 34  1  0  0  0
 20 44  1  0  0  0
 21 22  1  0  0  0
 21 24  1  0  0  0
 21 30  1  0  0  0
 22 23  1  0  0  0
 24 25  1  0  0  0
 24 28  1  0  0  0
 24 29  1  0  0  0
 25 26  1  0  0  0
 25 27  1  0  0  0
 30 31  1  0  0  0
 30 32  1  0  0  0
 30 33  1  0  0  0
 34 35  1  0  0  0
 34 42  1  0  0  0
 34 43  1  0  0  0
 35 36  2  0  0  0
 35 41  1  0  0  0
 36 37  1  0  0  0
 37 38  1  0  0  0
 37 39  1  0  0  0
 37 40  1  0  0  0
 46 47  1  0  0  0
 46 48  1  0  0  0
 46 49  1  0  0  0
 50 51  1  0  0  0
 50 52  1  0  0  0
 50 53  1  0  0  0
 60 61  1  0  0  0
 60 62  1  0  0  0
 60 63  1  0  0  0
 69 70  1  0  0  0
 69 71  1  0  0  0
 69 72  1  0  0  0
M  END
> <Tumorigenic>
none

> <Score>
44.375694

> <Active/Decoy>
active

> <InChI>
InChI=1S/C27H46O4/c1-17-7-8-20-19(11-15-26(20,5)29)24(2,3)18(17)9-10-21-25(4)14-13-23(28)31-22(25)12-16-27(21,6)30/h7,18-23,28-30H,8-16H2,1-6H3/t18-,19+,20+,21+,22+,23+,25+,26-,27-/m1/s1

> <Matching Features>
H:14924486185440016873|HBA:149238150533300697|HBA:14924321692640012300|HBA:14924486112070016868

> <Mol. Index>
152

> <Pharmacophore Match>
Model -1

> <# Confs.>
3

> <Source Database>
Pharm-Screening-input-NANPDB_After_DataWarror.ldb

> <Pharmacophore-Fit Score>
44.38

> <formula>
C27H46O4

> <Mutagenic>
none

> <Reproductive Effective>
none

> <Irritant>
none

$$$$
3,4-dimethylphenol beta-gentiobioside
XX    ILIB03122402103D

 61 63  0  0  1  0              1 V2000
    1.4541    0.0774   -1.7254 O   0  0  0  0  0
    2.6631    0.7071   -1.2872 C   0  0  1  0  0
    3.2652   -0.0257   -0.2072 O   0  0  0  0  0
    2.5140   -0.1611    0.9246 C   0  0  0  0  0
    3.1219   -0.8767    1.9608 C   0  0  0  0  0
    2.4623   -1.0968    3.1824 C   0  0  0  0  0
    1.1656   -0.5775    3.3647 C   0  0  0  0  0
    0.4086   -0.7919    4.6440 C   0  0  0  0  0
    0.9819   -0.4173    5.4991 H   0  0  0  0  0
    0.1994   -1.8568    4.7864 H   0  0  0  0  0
   -0.5504   -0.2628    4.6385 H   0  0  0  0  0
    0.5637    0.1400    2.3205 C   0  0  0  0  0
    1.2296    0.3476    1.1101 C   0  0  0  0  0
    0.7158    0.9109    0.3367 H   0  0  0  0  0
   -0.4381    0.5463    2.4419 H   0  0  0  0  0
    3.1607   -1.8665    4.2693 C   0  0  0  0  0
    3.3427   -1.2203    5.1329 H   0  0  0  0  0
    4.1288   -2.2503    3.9313 H   0  0  0  0  0
    2.5589   -2.7269    4.5774 H   0  0  0  0  0
    4.1257   -1.2730    1.8144 H   0  0  0  0  0
    3.6783    0.7215   -2.4353 C   0  0  2  0  0
    4.8233    1.4792   -2.0455 O   0  0  0  0  0
    5.1553    1.0970   -1.2149 H   0  0  0  0  0
    3.0901    1.3559   -3.6936 C   0  0  1  0  0
    3.9730    1.1334   -4.7940 O   0  0  0  0  0
    4.0474    0.1733   -4.9294 H   0  0  0  0  0
    1.7155    0.7738   -4.0240 C   0  0  2  0  0
    1.1165    1.5485   -5.0587 O   0  0  0  0  0
    1.7232    1.5364   -5.8186 H   0  0  0  0  0
    0.8105    0.7763   -2.7896 C   0  0  1  0  0
   -0.5236    0.1049   -3.0425 C   0  0  0  0  0
   -1.3165    0.1555   -1.8712 O   0  0  0  0  0
   -2.5936   -0.4588   -2.0073 C   0  0  2  0  0
   -3.3628    0.1743   -3.0345 O   0  0  0  0  0
   -4.6517   -0.4239   -3.2113 C   0  0  1  0  0
   -5.4802   -0.2360   -1.9388 C   0  0  1  0  0
   -6.7315   -0.9040   -2.0860 O   0  0  0  0  0
   -7.2234   -0.7849   -1.2560 H   0  0  0  0  0
   -4.7454   -0.8094   -0.7276 C   0  0  2  0  0
   -5.4359   -0.4332    0.4647 O   0  0  0  0  0
   -5.4419    0.5366    0.5134 H   0  0  0  0  0
   -3.3047   -0.3081   -0.6587 C   0  0  1  0  0
   -2.6124   -1.0695    0.3299 O   0  0  0  0  0
   -1.6857   -0.7764    0.3255 H   0  0  0  0  0
   -3.2854    0.7378   -0.3266 H   0  0  0  0  0
   -4.7684   -1.9057   -0.7530 H   0  0  0  0  0
   -5.6894    0.8282   -1.7760 H   0  0  0  0  0
   -5.3035    0.2436   -4.4098 C   0  0  0  0  0
   -5.4343    1.6408   -4.1673 O   0  0  0  0  0
   -4.5454    1.9891   -3.9867 H   0  0  0  0  0
   -4.7065    0.1161   -5.3188 H   0  0  0  0  0
   -6.3069   -0.1574   -4.5852 H   0  0  0  0  0
   -4.5164   -1.4937   -3.4360 H   0  0  0  0  0
   -2.4574   -1.5258   -2.2383 H   0  0  0  0  0
   -0.3523   -0.9358   -3.3677 H   0  0  0  0  0
   -1.0320    0.6197   -3.8834 H   0  0  0  0  0
    0.6118    1.8187   -2.4610 H   0  0  0  0  0
    1.8276   -0.2510   -4.3985 H   0  0  0  0  0
    3.0243    2.4441   -3.5782 H   0  0  0  0  0
    4.0281   -0.2950   -2.6541 H   0  0  0  0  0
    2.4611    1.7371   -0.9568 H   0  0  0  0  0
  1  2  1  0  0  0
  1 30  1  0  0  0
  2  3  1  0  0  0
  2 21  1  0  0  0
  2 61  1  0  0  0
  3  4  1  0  0  0
  4  5  2  0  0  0
  4 13  1  0  0  0
  5  6  1  0  0  0
  5 20  1  0  0  0
  6  7  2  0  0  0
  6 16  1  0  0  0
  7  8  1  0  0  0
  7 12  1  0  0  0
  8  9  1  0  0  0
  8 10  1  0  0  0
  8 11  1  0  0  0
 12 13  2  0  0  0
 12 15  1  0  0  0
 13 14  1  0  0  0
 16 17  1  0  0  0
 16 18  1  0  0  0
 16 19  1  0  0  0
 21 22  1  0  0  0
 21 24  1  0  0  0
 21 60  1  0  0  0
 22 23  1  0  0  0
 24 25  1  0  0  0
 24 27  1  0  0  0
 24 59  1  0  0  0
 25 26  1  0  0  0
 27 28  1  0  0  0
 27 30  1  0  0  0
 27 58  1  0  0  0
 28 29  1  0  0  0
 30 31  1  0  0  0
 30 57  1  0  0  0
 31 32  1  0  0  0
 31 55  1  0  0  0
 31 56  1  0  0  0
 32 33  1  0  0  0
 33 34  1  0  0  0
 33 42  1  0  0  0
 33 54  1  0  0  0
 34 35  1  0  0  0
 35 36  1  0  0  0
 35 48  1  0  0  0
 35 53  1  0  0  0
 36 37  1  0  0  0
 36 39  1  0  0  0
 36 47  1  0  0  0
 37 38  1  0  0  0
 39 40  1  0  0  0
 39 42  1  0  0  0
 39 46  1  0  0  0
 40 41  1  0  0  0
 42 43  1  0  0  0
 42 45  1  0  0  0
 43 44  1  0  0  0
 48 49  1  0  0  0
 48 51  1  0  0  0
 48 52  1  0  0  0
 49 50  1  0  0  0
M  END
> <Tumorigenic>
none

> <Score>
44.373344

> <Active/Decoy>
active

> <InChI>
InChI=1S/C20H30O11/c1-8-3-4-10(5-9(8)2)29-20-18(27)16(25)14(23)12(31-20)7-28-19-17(26)15(24)13(22)11(6-21)30-19/h3-5,11-27H,6-7H2,1-2H3/t11-,12-,13-,14-,15+,16+,17-,18-,19-,20-/m1/s1

> <Matching Features>
H:14924486185440016873|HBA:149238150533300697|HBA:14924321692640012300|HBA:14924486112070016868

> <Mol. Index>
724

> <Pharmacophore Match>
Model -1

> <# Confs.>
25

> <Source Database>
Pharm-Screening-input-NANPDB_After_DataWarror.ldb

> <Pharmacophore-Fit Score>
44.37

> <formula>
C20H30O11

> <Mutagenic>
none

> <Reproductive Effective>
none

> <Irritant>
none

$$$$
teferin
XX    ILIB03122402103D

 60 62  0  0  1  0              1 V2000
   -0.6341    2.5148   -1.7307 O   0  0  0  0  0
   -0.8376    1.3393   -1.9578 C   0  0  0  0  0
    0.0843    0.3638   -2.0846 O   0  0  0  0  0
    1.4622    0.7267   -1.9194 C   0  0  2  0  0
    2.3255   -0.2095   -2.7995 C   0  0  1  0  0
    3.8061    0.2620   -3.0663 C   0  0  2  0  0
    4.2411    1.2337   -2.1156 O   0  0  0  0  0
    3.7766    2.0692   -2.2897 H   0  0  0  0  0
    4.0058    0.8295   -4.4842 C   0  0  0  0  0
    3.2017    2.1174   -4.6892 C   0  0  0  0  0
    3.3714    2.5262   -5.6919 H   0  0  0  0  0
    2.1268    1.9357   -4.5899 H   0  0  0  0  0
    3.4868    2.8830   -3.9591 H   0  0  0  0  0
    5.4861    1.1038   -4.7720 C   0  0  0  0  0
    5.6137    1.5249   -5.7751 H   0  0  0  0  0
    5.9045    1.8157   -4.0512 H   0  0  0  0  0
    6.0791    0.1857   -4.7257 H   0  0  0  0  0
    3.6526    0.0930   -5.2173 H   0  0  0  0  0
    4.6847   -0.9801   -2.8425 C   0  0  0  0  0
    3.8842   -1.8357   -1.8727 C   0  0  0  0  0
    2.4301   -1.7048   -2.3626 C   0  0  1  0  0
    1.4150   -2.2139   -1.3195 C   0  0  0  0  0
    1.4538   -1.6543    0.0661 C   0  0  0  0  0
    1.6332   -0.3847    0.4594 C   0  0  0  0  0
    1.7737    0.8257   -0.4254 C   0  0  0  0  0
    2.7789    1.2278   -0.2726 H   0  0  0  0  0
    1.0891    1.5836   -0.0185 H   0  0  0  0  0
    1.6967   -0.0685    1.9344 C   0  0  0  0  0
    0.8781    0.6012    2.2162 H   0  0  0  0  0
    2.6466    0.4208    2.1737 H   0  0  0  0  0
    1.6224   -0.9644    2.5605 H   0  0  0  0  0
    1.3307   -2.4102    0.8427 H   0  0  0  0  0
    0.3903   -2.1334   -1.7001 H   0  0  0  0  0
    1.5849   -3.2952   -1.2044 H   0  0  0  0  0
    2.2340   -2.6012   -3.6193 C   0  0  0  0  0
    2.8686   -2.2973   -4.4575 H   0  0  0  0  0
    1.1961   -2.5525   -3.9702 H   0  0  0  0  0
    2.4611   -3.6491   -3.3966 H   0  0  0  0  0
    4.0115   -1.4382   -0.8597 H   0  0  0  0  0
    4.2364   -2.8723   -1.8658 H   0  0  0  0  0
    4.8528   -1.5343   -3.7729 H   0  0  0  0  0
    5.6660   -0.7367   -2.4194 H   0  0  0  0  0
    1.8100   -0.2227   -3.7718 H   0  0  0  0  0
    1.5759    1.7395   -2.3423 H   0  0  0  0  0
   -2.1928    0.7798   -2.1795 C   0  0  0  0  0
   -3.2287    1.5596   -2.7053 C   0  0  0  0  0
   -4.5027    1.0069   -2.8976 C   0  0  0  0  0
   -5.5767    1.6754   -3.4099 O   0  0  0  0  0
   -5.3377    3.0370   -3.7579 C   0  0  0  0  0
   -5.0560    3.6260   -2.8774 H   0  0  0  0  0
   -6.2720    3.4494   -4.1499 H   0  0  0  0  0
   -4.5803    3.1180   -4.5432 H   0  0  0  0  0
   -4.7210   -0.3318   -2.5443 C   0  0  0  0  0
   -5.9630   -0.8745   -2.7367 O   0  0  0  0  0
   -5.9465   -1.8005   -2.4494 H   0  0  0  0  0
   -3.6959   -1.1114   -2.0163 C   0  0  0  0  0
   -2.4322   -0.5568   -1.8248 C   0  0  0  0  0
   -1.6468   -1.1808   -1.4074 H   0  0  0  0  0
   -3.8691   -2.1485   -1.7473 H   0  0  0  0  0
   -3.0372    2.5943   -2.9704 H   0  0  0  0  0
  1  2  2  0  0  0
  2  3  1  0  0  0
  2 45  1  0  0  0
  3  4  1  0  0  0
  4  5  1  0  0  0
  4 25  1  0  0  0
  4 44  1  0  0  0
  5  6  1  0  0  0
  5 21  1  0  0  0
  5 43  1  0  0  0
  6  7  1  0  0  0
  6  9  1  0  0  0
  6 19  1  0  0  0
  7  8  1  0  0  0
  9 10  1  0  0  0
  9 14  1  0  0  0
  9 18  1  0  0  0
 10 11  1  0  0  0
 10 12  1  0  0  0
 10 13  1  0  0  0
 14 15  1  0  0  0
 14 16  1  0  0  0
 14 17  1  0  0  0
 19 20  1  0  0  0
 19 41  1  0  0  0
 19 42  1  0  0  0
 20 21  1  0  0  0
 20 39  1  0  0  0
 20 40  1  0  0  0
 21 22  1  0  0  0
 21 35  1  0  0  0
 22 23  1  0  0  0
 22 33  1  0  0  0
 22 34  1  0  0  0
 23 24  2  0  0  0
 23 32  1  0  0  0
 24 25  1  0  0  0
 24 28  1  0  0  0
 25 26  1  0  0  0
 25 27  1  0  0  0
 28 29  1  0  0  0
 28 30  1  0  0  0
 28 31  1  0  0  0
 35 36  1  0  0  0
 35 37  1  0  0  0
 35 38  1  0  0  0
 45 46  2  0  0  0
 45 57  1  0  0  0
 46 47  1  0  0  0
 46 60  1  0  0  0
 47 48  1  0  0  0
 47 53  2  0  0  0
 48 49  1  0  0  0
 49 50  1  0  0  0
 49 51  1  0  0  0
 49 52  1  0  0  0
 53 54  1  0  0  0
 53 56  1  0  0  0
 54 55  1  0  0  0
 56 57  2  0  0  0
 56 59  1  0  0  0
 57 58  1  0  0  0
M  END
> <Tumorigenic>
none

> <Score>
44.047962

> <Active/Decoy>
active

> <InChI>
InChI=1S/C23H32O5/c1-14(2)23(26)11-10-22(4)9-8-15(3)12-19(20(22)23)28-21(25)16-6-7-17(24)18(13-16)27-5/h6-8,13-14,19-20,24,26H,9-12H2,1-5H3/t19-,20+,22+,23+/m0/s1

> <Matching Features>
H:14924486185440016873|HBA:149238150533300697|HBA:14924321692640012300|HBA:14924486112070016868

> <Mol. Index>
933

> <Pharmacophore Match>
Model -1

> <# Confs.>
25

> <Source Database>
Pharm-Screening-input-NANPDB_After_DataWarror.ldb

> <Pharmacophore-Fit Score>
44.05

> <formula>
C23H32O5

> <Mutagenic>
none

> <Reproductive Effective>
none

> <Irritant>
none

$$$$
roseoside
XX    ILIB03122402103D

 57 58  0  0  1  0              1 V2000
    4.2450    1.3612   -2.0748 O   0  0  0  0  0
    3.1495    1.4144   -1.5189 C   0  0  0  0  0
    2.9489    0.7071   -0.2328 C   0  0  0  0  0
    1.7578    0.7017    0.3881 C   0  0  0  0  0
    0.5295    1.4313   -0.1631 C   0  0  1  0  0
   -0.1836    1.9791    0.9573 O   0  0  0  0  0
   -0.9730    2.4407    0.6296 H   0  0  0  0  0
    0.9552    2.6269   -1.1044 C   0  0  0  0  0
    1.9812    2.1379   -2.1472 C   0  0  0  0  0
    1.5226    1.4539   -2.8703 H   0  0  0  0  0
    2.3786    2.9899   -2.7103 H   0  0  0  0  0
   -0.2449    3.2326   -1.8622 C   0  0  0  0  0
   -0.7180    2.5086   -2.5363 H   0  0  0  0  0
   -1.0170    3.6060   -1.1784 H   0  0  0  0  0
    0.0696    4.0814   -2.4844 H   0  0  0  0  0
    1.5806    3.7908   -0.2855 C   0  0  0  0  0
    0.8498    4.2384    0.3964 H   0  0  0  0  0
    2.4371    3.4689    0.3140 H   0  0  0  0  0
    1.9313    4.5895   -0.9491 H   0  0  0  0  0
   -0.3384    0.4274   -0.8666 C   0  0  0  0  0
   -1.5942    0.0607   -0.5339 C   0  0  0  0  0
   -2.4406   -0.9448   -1.2498 C   0  0  2  0  0
   -3.6426   -0.4093   -1.7777 O   0  0  0  0  0
   -3.4449    0.6612   -2.6989 C   0  0  2  0  0
   -4.6676    1.2968   -3.0908 O   0  0  0  0  0
   -5.3439    0.7371   -4.2157 C   0  0  1  0  0
   -4.4599    0.8075   -5.4756 C   0  0  1  0  0
   -4.7696    2.0056   -6.1979 O   0  0  0  0  0
   -5.6985    1.9454   -6.4781 H   0  0  0  0  0
   -2.9638    0.8704   -5.1601 C   0  0  2  0  0
   -2.2389    0.2860   -6.2418 O   0  0  0  0  0
   -2.4680    0.7824   -7.0466 H   0  0  0  0  0
   -2.6448    0.1065   -3.8848 C   0  0  1  0  0
   -1.2550    0.2309   -3.5765 O   0  0  0  0  0
   -0.7572   -0.0848   -4.3502 H   0  0  0  0  0
   -2.8246   -0.9662   -4.0215 H   0  0  0  0  0
   -2.6090    1.9047   -5.0768 H   0  0  0  0  0
   -4.6836   -0.0181   -6.1612 H   0  0  0  0  0
   -5.8627   -0.6582   -3.9194 C   0  0  0  0  0
   -6.7727   -0.6150   -2.8323 O   0  0  0  0  0
   -7.0779   -1.5257   -2.6795 H   0  0  0  0  0
   -5.0399   -1.3384   -3.6727 H   0  0  0  0  0
   -6.3753   -1.0681   -4.7963 H   0  0  0  0  0
   -6.2236    1.3733   -4.3778 H   0  0  0  0  0
   -2.8474    1.4309   -2.1939 H   0  0  0  0  0
   -2.8221   -2.0722   -0.2961 C   0  0  0  0  0
   -3.4412   -1.6929    0.5250 H   0  0  0  0  0
   -1.9419   -2.5655    0.1286 H   0  0  0  0  0
   -3.4228   -2.8258   -0.8174 H   0  0  0  0  0
   -1.8524   -1.3890   -2.0802 H   0  0  0  0  0
   -2.0677    0.5176    0.3245 H   0  0  0  0  0
    0.1227   -0.0397   -1.7354 H   0  0  0  0  0
    1.5933   -0.0763    1.6695 C   0  0  0  0  0
    0.7754   -0.7977    1.5826 H   0  0  0  0  0
    2.4959   -0.6406    1.9269 H   0  0  0  0  0
    1.3817    0.5974    2.5056 H   0  0  0  0  0
    3.8061    0.1774    0.1706 H   0  0  0  0  0
  1  2  2  0  0  0
  2  3  1  0  0  0
  2  9  1  0  0  0
  3  4  2  0  0  0
  3 57  1  0  0  0
  4  5  1  0  0  0
  4 53  1  0  0  0
  5  6  1  0  0  0
  5  8  1  0  0  0
  5 20  1  0  0  0
  6  7  1  0  0  0
  8  9  1  0  0  0
  8 12  1  0  0  0
  8 16  1  0  0  0
  9 10  1  0  0  0
  9 11  1  0  0  0
 12 13  1  0  0  0
 12 14  1  0  0  0
 12 15  1  0  0  0
 16 17  1  0  0  0
 16 18  1  0  0  0
 16 19  1  0  0  0
 20 21  2  0  0  0
 20 52  1  0  0  0
 21 22  1  0  0  0
 21 51  1  0  0  0
 22 23  1  0  0  0
 22 46  1  0  0  0
 22 50  1  0  0  0
 23 24  1  0  0  0
 24 25  1  0  0  0
 24 33  1  0  0  0
 24 45  1  0  0  0
 25 26  1  0  0  0
 26 27  1  0  0  0
 26 39  1  0  0  0
 26 44  1  0  0  0
 27 28  1  0  0  0
 27 30  1  0  0  0
 27 38  1  0  0  0
 28 29  1  0  0  0
 30 31  1  0  0  0
 30 33  1  0  0  0
 30 37  1  0  0  0
 31 32  1  0  0  0
 33 34  1  0  0  0
 33 36  1  0  0  0
 34 35  1  0  0  0
 39 40  1  0  0  0
 39 42  1  0  0  0
 39 43  1  0  0  0
 40 41  1  0  0  0
 46 47  1  0  0  0
 46 48  1  0  0  0
 46 49  1  0  0  0
 53 54  1  0  0  0
 53 55  1  0  0  0
 53 56  1  0  0  0
M  END
> <Tumorigenic>
none

> <Score>
44.042137

> <Active/Decoy>
active

> <InChI>
InChI=1S/C19H30O8/c1-10-7-12(21)8-18(3,4)19(10,25)6-5-11(2)26-17-16(24)15(23)14(22)13(9-20)27-17/h5-7,11,13-17,20,22-25H,8-9H2,1-4H3/b6-5+/t11-,13-,14-,15+,16-,17-,19-/m1/s1

> <Matching Features>
H:14924486185440016873|HBA:149238150533300697|HBA:14924321692640012300|HBA:14924486112070016868

> <Mol. Index>
7

> <Pharmacophore Match>
Model -1

> <# Confs.>
25

> <Source Database>
Pharm-Screening-input-NANPDB_After_DataWarror.ldb

> <Pharmacophore-Fit Score>
44.04

> <formula>
C19H30O8

> <Mutagenic>
none

> <Reproductive Effective>
none

> <Irritant>
none

$$$$
casimiroedine
XX    ILIB03122402103D

 57 59  0  0  1  0              1 V2000
    4.7303    1.6211   -2.4081 O   0  0  0  0  0
    3.5065    1.5966   -2.4865 C   0  0  0  0  0
    2.7315    2.2279   -3.4464 N   0  0  0  0  0
    1.2754    2.1526   -3.5009 C   0  0  0  0  0
    0.6425    3.2801   -2.6789 C   0  0  0  0  0
   -0.8398    3.2368   -2.7065 C   0  0  0  0  0
   -1.5414    3.9119   -3.6950 N   0  0  0  0  0
   -2.8072    3.6786   -3.4303 C   0  0  0  0  0
   -2.9553    2.8904   -2.3244 N   0  0  0  0  0
   -1.7042    2.6011   -1.8539 C   0  0  0  0  0
   -1.5386    1.9893   -0.9778 H   0  0  0  0  0
   -4.2130    2.4650   -1.7508 C   0  0  2  0  0
   -4.0003    2.3078   -0.3473 O   0  0  0  0  0
   -5.1993    1.9699    0.3577 C   0  0  1  0  0
   -5.7187    0.6118   -0.1289 C   0  0  1  0  0
   -6.9366    0.2859    0.5355 O   0  0  0  0  0
   -7.5822    0.9871    0.3402 H   0  0  0  0  0
   -5.9555    0.6355   -1.6414 C   0  0  2  0  0
   -6.2466   -0.6876   -2.0955 O   0  0  0  0  0
   -5.4779   -1.2497   -1.8979 H   0  0  0  0  0
   -4.7263    1.1657   -2.3844 C   0  0  1  0  0
   -5.0743    1.3939   -3.7490 O   0  0  0  0  0
   -5.7563    2.0863   -3.7725 H   0  0  0  0  0
   -3.9427    0.3974   -2.3794 H   0  0  0  0  0
   -6.8380    1.2364   -1.8815 H   0  0  0  0  0
   -5.0018   -0.1831    0.1029 H   0  0  0  0  0
   -4.8874    1.9909    1.8446 C   0  0  0  0  0
   -4.4426    3.2758    2.2525 O   0  0  0  0  0
   -3.6008    3.4543    1.8028 H   0  0  0  0  0
   -5.7829    1.7394    2.4221 H   0  0  0  0  0
   -4.1247    1.2479    2.1075 H   0  0  0  0  0
   -5.9466    2.7520    0.1743 H   0  0  0  0  0
   -4.9215    3.2882   -1.9165 H   0  0  0  0  0
   -3.6482    4.0535   -3.9979 H   0  0  0  0  0
    0.9869    4.2511   -3.0747 H   0  0  0  0  0
    0.9907    3.2372   -1.6459 H   0  0  0  0  0
    0.9729    2.2125   -4.5439 H   0  0  0  0  0
    0.9435    1.1811   -3.1016 H   0  0  0  0  0
    3.3702    3.0737   -4.4343 C   0  0  0  0  0
    3.0828    2.7355   -5.4337 H   0  0  0  0  0
    3.0306    4.1022   -4.2815 H   0  0  0  0  0
    4.4593    3.0437   -4.3512 H   0  0  0  0  0
    2.6901    0.8622   -1.5023 C   0  0  0  0  0
    2.6924    1.1402   -0.1901 C   0  0  0  0  0
    1.8856    0.4300    0.8077 C   0  0  0  0  0
    0.9459    1.1245    1.5798 C   0  0  0  0  0
    0.1818    0.4464    2.5322 C   0  0  0  0  0
    0.3502   -0.9241    2.7164 C   0  0  0  0  0
    1.2844   -1.6209    1.9523 C   0  0  0  0  0
    2.0514   -0.9469    0.9994 C   0  0  0  0  0
    2.7749   -1.5068    0.4117 H   0  0  0  0  0
    1.4155   -2.6897    2.0972 H   0  0  0  0  0
   -0.2464   -1.4499    3.4561 H   0  0  0  0  0
   -0.5458    0.9893    3.1293 H   0  0  0  0  0
    0.8002    2.1930    1.4490 H   0  0  0  0  0
    3.3159    1.9384    0.2045 H   0  0  0  0  0
    2.0721    0.0710   -1.9160 H   0  0  0  0  0
  1  2  2  0  0  0
  2  3  1  0  0  0
  2 43  1  0  0  0
  3  4  1  0  0  0
  3 39  1  0  0  0
  4  5  1  0  0  0
  4 37  1  0  0  0
  4 38  1  0  0  0
  5  6  1  0  0  0
  5 35  1  0  0  0
  5 36  1  0  0  0
  6  7  1  0  0  0
  6 10  2  0  0  0
  7  8  2  0  0  0
  8  9  1  0  0  0
  8 34  1  0  0  0
  9 10  1  0  0  0
  9 12  1  0  0  0
 10 11  1  0  0  0
 12 13  1  0  0  0
 12 21  1  0  0  0
 12 33  1  0  0  0
 13 14  1  0  0  0
 14 15  1  0  0  0
 14 27  1  0  0  0
 14 32  1  0  0  0
 15 16  1  0  0  0
 15 18  1  0  0  0
 15 26  1  0  0  0
 16 17  1  0  0  0
 18 19  1  0  0  0
 18 21  1  0  0  0
 18 25  1  0  0  0
 19 20  1  0  0  0
 21 22  1  0  0  0
 21 24  1  0  0  0
 22 23  1  0  0  0
 27 28  1  0  0  0
 27 30  1  0  0  0
 27 31  1  0  0  0
 28 29  1  0  0  0
 39 40  1  0  0  0
 39 41  1  0  0  0
 39 42  1  0  0  0
 43 44  2  0  0  0
 43 57  1  0  0  0
 44 45  1  0  0  0
 44 56  1  0  0  0
 45 46  2  0  0  0
 45 50  1  0  0  0
 46 47  1  0  0  0
 46 55  1  0  0  0
 47 48  2  0  0  0
 47 54  1  0  0  0
 48 49  1  0  0  0
 48 53  1  0  0  0
 49 50  2  0  0  0
 49 52  1  0  0  0
 50 51  1  0  0  0
M  END
> <Tumorigenic>
none

> <Score>
43.926685

> <Active/Decoy>
active

> <InChI>
InChI=1S/C21H27N3O6/c1-23(17(26)8-7-14-5-3-2-4-6-14)10-9-15-11-24(13-22-15)21-20(29)19(28)18(27)16(12-25)30-21/h2-8,11,13,16,18-21,25,27-29H,9-10,12H2,1H3/b8-7+/t16-,18-,19+,20-,21-/m1/s1

> <Matching Features>
H:14924486185440016873|HBA:149238150533300697|HBA:14924321692640012300|HBA:14924486112070016868

> <Mol. Index>
733

> <Pharmacophore Match>
Model -1

> <# Confs.>
25

> <Source Database>
Pharm-Screening-input-NANPDB_After_DataWarror.ldb

> <Pharmacophore-Fit Score>
43.93

> <formula>
C21H27N3O6

> <Mutagenic>
none

> <Reproductive Effective>
none

> <Irritant>
none

$$$$
(1R*,2R*,3E,7R*,11R*,12S*)-2-O-acetyl-16-O-(3-hydroxy-3-methylglutaryl)-dolabella-3,8(17)-dien-2,7,9,16,18-pentol
XX    ILIB03122402103D

 82 83  0  0  1  0              1 V2000
   -2.9084    0.7196   -3.3523 O   0  0  0  0  0
   -2.9649    1.6586   -2.5573 C   0  0  0  0  0
   -1.9470    2.0613   -1.7603 O   0  0  0  0  0
   -0.7121    1.3419   -1.8481 C   0  0  0  0  0
    0.2601    1.9353   -0.8829 C   0  0  0  0  0
    0.7827    1.1774    0.0982 C   0  0  0  0  0
    1.7691    1.5996    1.1611 C   0  0  1  0  0
    0.9869    1.9365    2.3163 O   0  0  0  0  0
    1.0097    3.2312    2.7037 C   0  0  0  0  0
    1.6293    4.1386    2.1655 O   0  0  0  0  0
    0.1357    3.4091    3.9079 C   0  0  0  0  0
   -0.9051    3.2109    3.6412 H   0  0  0  0  0
    0.2171    4.4386    4.2663 H   0  0  0  0  0
    0.4649    2.7413    4.7083 H   0  0  0  0  0
    2.8400    0.5322    1.5651 C   0  0  1  0  0
    3.7542   -0.0708    0.4374 C   0  0  2  0  0
    5.1717   -0.2817    1.0775 C   0  0  2  0  0
    5.7384   -1.7075    0.9426 C   0  0  0  0  0
    4.8589   -2.6379    1.5821 O   0  0  0  0  0
    4.8766   -2.4658    2.5385 H   0  0  0  0  0
    5.8288   -2.1300   -0.5278 C   0  0  0  0  0
    4.8382   -2.1596   -0.9973 H   0  0  0  0  0
    6.4686   -1.4515   -1.1019 H   0  0  0  0  0
    6.2342   -3.1437   -0.6165 H   0  0  0  0  0
    7.1176   -1.8253    1.5994 C   0  0  0  0  0
    7.8346   -1.1334    1.1487 H   0  0  0  0  0
    7.5082   -2.8439    1.5020 H   0  0  0  0  0
    7.0663   -1.6220    2.6758 H   0  0  0  0  0
    5.0428    0.1839    2.5346 C   0  0  0  0  0
    3.8762    1.1593    2.5257 C   0  0  0  0  0
    3.4848    1.3161    3.5362 H   0  0  0  0  0
    4.2179    2.1307    2.1488 H   0  0  0  0  0
    4.8409   -0.6480    3.2173 H   0  0  0  0  0
    5.9599    0.6687    2.8847 H   0  0  0  0  0
    5.8967    0.3863    0.5962 H   0  0  0  0  0
    3.8578    0.6436   -0.9342 C   0  0  0  0  0
    4.5520    2.0251   -1.0234 C   0  0  1  0  0
    5.4768    1.9834   -2.1212 O   0  0  0  0  0
    6.1509    1.3151   -1.9088 H   0  0  0  0  0
    3.6596    3.2298   -1.2711 C   0  0  0  0  0
    2.7032    3.1903   -2.4488 C   0  0  2  0  0
    3.3390    3.8030   -3.5753 O   0  0  0  0  0
    4.1728    3.3287   -3.7393 H   0  0  0  0  0
    1.3366    3.8717   -2.2607 C   0  0  0  0  0
    0.5115    3.4280   -1.0428 C   0  0  0  0  0
    0.9621    3.8455   -0.1376 H   0  0  0  0  0
   -0.4663    3.9259   -1.1021 H   0  0  0  0  0
    1.4692    4.9611   -2.2166 H   0  0  0  0  0
    0.7466    3.7169   -3.1740 H   0  0  0  0  0
    2.5092    2.1589   -2.7504 H   0  0  0  0  0
    3.7806    4.3149   -0.4837 C   0  0  0  0  0
    3.1919    5.2105   -0.6473 H   0  0  0  0  0
    4.4842    4.3389    0.3426 H   0  0  0  0  0
    5.1572    2.2045   -0.1304 H   0  0  0  0  0
    2.8603    0.6710   -1.3750 H   0  0  0  0  0
    4.4020   -0.0461   -1.5951 H   0  0  0  0  0
    3.3342   -1.0562    0.1885 H   0  0  0  0  0
    2.1356   -0.6398    2.3167 C   0  0  0  0  0
    2.8391   -1.4113    2.6443 H   0  0  0  0  0
    1.4032   -1.1420    1.6792 H   0  0  0  0  0
    1.6173   -0.2898    3.2158 H   0  0  0  0  0
    2.3021    2.4908    0.8356 H   0  0  0  0  0
    0.4666    0.1375    0.1406 H   0  0  0  0  0
   -0.3203    1.4175   -2.8621 H   0  0  0  0  0
   -0.8935    0.2791   -1.6153 H   0  0  0  0  0
   -4.2067    2.4692   -2.3275 C   0  0  0  0  0
   -5.0488    1.8652   -1.2206 C   0  0  1  0  0
   -6.2155    2.6799   -1.0443 O   0  0  0  0  0
   -6.7916    2.5490   -1.8160 H   0  0  0  0  0
   -5.5008    0.4384   -1.4683 C   0  0  0  0  0
   -6.3597    0.3630   -2.7023 C   0  0  0  0  0
   -7.5770    0.4918   -2.6986 O   0  0  0  0  0
   -5.6371    0.1298   -3.8261 O   0  0  0  0  0
   -4.6696    0.0411   -3.6850 H   0  0  0  0  0
   -6.0878    0.0483   -0.6284 H   0  0  0  0  0
   -4.6507   -0.2414   -1.6012 H   0  0  0  0  0
   -4.2892    1.9189    0.1127 C   0  0  0  0  0
   -3.9986    2.9465    0.3562 H   0  0  0  0  0
   -3.3883    1.2972    0.0978 H   0  0  0  0  0
   -4.9265    1.5794    0.9380 H   0  0  0  0  0
   -3.8918    3.4911   -2.0856 H   0  0  0  0  0
   -4.7573    2.5256   -3.2748 H   0  0  0  0  0
  1  2  2  0  0  0
  2  3  1  0  0  0
  2 66  1  0  0  0
  3  4  1  0  0  0
  4  5  1  0  0  0
  4 64  1  0  0  0
  4 65  1  0  0  0
  5  6  2  0  0  0
  5 45  1  0  0  0
  6  7  1  0  0  0
  6 63  1  0  0  0
  7  8  1  0  0  0
  7 15  1  0  0  0
  7 62  1  0  0  0
  8  9  1  0  0  0
  9 10  2  0  0  0
  9 11  1  0  0  0
 11 12  1  0  0  0
 11 13  1  0  0  0
 11 14  1  0  0  0
 15 16  1  0  0  0
 15 30  1  0  0  0
 15 58  1  0  0  0
 16 17  1  0  0  0
 16 36  1  0  0  0
 16 57  1  0  0  0
 17 18  1  0  0  0
 17 29  1  0  0  0
 17 35  1  0  0  0
 18 19  1  0  0  0
 18 21  1  0  0  0
 18 25  1  0  0  0
 19 20  1  0  0  0
 21 22  1  0  0  0
 21 23  1  0  0  0
 21 24  1  0  0  0
 25 26  1  0  0  0
 25 27  1  0  0  0
 25 28  1  0  0  0
 29 30  1  0  0  0
 29 33  1  0  0  0
 29 34  1  0  0  0
 30 31  1  0  0  0
 30 32  1  0  0  0
 36 37  1  0  0  0
 36 55  1  0  0  0
 36 56  1  0  0  0
 37 38  1  0  0  0
 37 40  1  0  0  0
 37 54  1  0  0  0
 38 39  1  0  0  0
 40 41  1  0  0  0
 40 51  2  0  0  0
 41 42  1  0  0  0
 41 44  1  0  0  0
 41 50  1  0  0  0
 42 43  1  0  0  0
 44 45  1  0  0  0
 44 48  1  0  0  0
 44 49  1  0  0  0
 45 46  1  0  0  0
 45 47  1  0  0  0
 51 52  1  0  0  0
 51 53  1  0  0  0
 58 59  1  0  0  0
 58 60  1  0  0  0
 58 61  1  0  0  0
 66 67  1  0  0  0
 66 81  1  0  0  0
 66 82  1  0  0  0
 67 68  1  0  0  0
 67 70  1  0  0  0
 67 77  1  0  0  0
 68 69  1  0  0  0
 70 71  1  0  0  0
 70 75  1  0  0  0
 70 76  1  0  0  0
 71 72  2  0  0  0
 71 73  1  0  0  0
 73 74  1  0  0  0
 77 78  1  0  0  0
 77 79  1  0  0  0
 77 80  1  0  0  0
M  END
> <Tumorigenic>
none

> <Score>
43.847527

> <Active/Decoy>
active

> <InChI>
InChI=1S/C28H44O10/c1-16-21(30)8-7-18(15-37-25(34)14-27(5,36)13-24(32)33)11-23(38-17(2)29)28(6)10-9-19(26(3,4)35)20(28)12-22(16)31/h11,19-23,30-31,35-36H,1,7-10,12-15H2,2-6H3,(H,32,33)/b18-11-/t19-,20+,21-,22-,23-,27+,28-/m1/s1

> <Matching Features>
H:14924486185440016873|HBA:149238150533300697|HBA:14924321692640012300|HBA:14924486112070016868

> <Mol. Index>
517

> <Pharmacophore Match>
Model -1

> <# Confs.>
25

> <Source Database>
Pharm-Screening-input-NANPDB_After_DataWarror.ldb

> <Pharmacophore-Fit Score>
43.85

> <formula>
C28H44O10

> <Mutagenic>
none

> <Reproductive Effective>
none

> <Irritant>
none

$$$$
hispidulin-7-O-glucoside
XX    ILIB03122402103D

 55 58  0  0  1  0              1 V2000
    4.5087    1.6946   -2.3619 O   0  0  0  0  0
    3.5342    1.2067   -1.8067 C   0  0  0  0  0
    2.2371    1.0161   -2.4894 C   0  0  0  0  0
    2.0189    1.3711   -3.8254 C   0  0  0  0  0
    2.9959    1.9000   -4.6238 O   0  0  0  0  0
    3.8220    1.9771   -4.1185 H   0  0  0  0  0
    0.7536    1.1809   -4.4004 C   0  0  0  0  0
    0.5377    1.4868   -5.7138 O   0  0  0  0  0
    1.6653    2.0107   -6.4119 C   0  0  0  0  0
    1.9998    2.9555   -5.9696 H   0  0  0  0  0
    2.4818    1.2817   -6.4466 H   0  0  0  0  0
    1.3552    2.2143   -7.4412 H   0  0  0  0  0
   -0.2929    0.5961   -3.6804 C   0  0  0  0  0
   -1.4670    0.3932   -4.3324 O   0  0  0  0  0
   -2.6546    0.4631   -3.5471 C   0  0  2  0  0
   -2.9976   -0.8350   -3.0603 O   0  0  0  0  0
   -4.1701   -0.8252   -2.2397 C   0  0  1  0  0
   -5.3784   -0.3918   -3.0737 C   0  0  1  0  0
   -6.5187   -0.3033   -2.2249 O   0  0  0  0  0
   -7.2928   -0.1296   -2.7860 H   0  0  0  0  0
   -5.1243    0.9665   -3.7283 C   0  0  2  0  0
   -6.1421    1.2252   -4.6971 O   0  0  0  0  0
   -6.9868    1.3002   -4.2233 H   0  0  0  0  0
   -3.7748    0.9955   -4.4417 C   0  0  1  0  0
   -3.4897    2.3462   -4.8051 O   0  0  0  0  0
   -2.6185    2.3542   -5.2356 H   0  0  0  0  0
   -3.8308    0.4189   -5.3734 H   0  0  0  0  0
   -5.1871    1.7755   -2.9898 H   0  0  0  0  0
   -5.5940   -1.1391   -3.8482 H   0  0  0  0  0
   -4.3472   -2.2265   -1.6821 C   0  0  0  0  0
   -3.2212   -2.6073   -0.9055 O   0  0  0  0  0
   -2.4412   -2.5679   -1.4859 H   0  0  0  0  0
   -4.4828   -2.9538   -2.4893 H   0  0  0  0  0
   -5.2406   -2.2876   -1.0504 H   0  0  0  0  0
   -4.0082   -0.1378   -1.3986 H   0  0  0  0  0
   -2.4774    1.1486   -2.7065 H   0  0  0  0  0
   -0.0633    0.2408   -2.3376 C   0  0  0  0  0
    1.1962    0.4429   -1.7584 C   0  0  0  0  0
    1.3134    0.0773   -0.4391 O   0  0  0  0  0
    2.5321    0.2468    0.1979 C   0  0  0  0  0
    3.6129    0.7769   -0.3965 C   0  0  0  0  0
    4.5664    0.9133    0.1020 H   0  0  0  0  0
    2.5441   -0.2060    1.6040 C   0  0  0  0  0
    1.7201   -1.2650    2.0233 C   0  0  0  0  0
    1.7240   -1.7029    3.3518 C   0  0  0  0  0
    2.5567   -1.0847    4.2774 C   0  0  0  0  0
    2.5875   -1.4967    5.5795 O   0  0  0  0  0
    1.9598   -2.2274    5.6893 H   0  0  0  0  0
    3.3836   -0.0358    3.8915 C   0  0  0  0  0
    3.3750    0.3993    2.5640 C   0  0  0  0  0
    4.0365    1.2218    2.2983 H   0  0  0  0  0
    4.0375    0.4472    4.6126 H   0  0  0  0  0
    1.0760   -2.5235    3.6453 H   0  0  0  0  0
    1.0572   -1.7717    1.3264 H   0  0  0  0  0
   -0.8419   -0.2131   -1.7312 H   0  0  0  0  0
  1  2  2  0  0  0
  2  3  1  0  0  0
  2 41  1  0  0  0
  3  4  2  0  0  0
  3 38  1  0  0  0
  4  5  1  0  0  0
  4  7  1  0  0  0
  5  6  1  0  0  0
  7  8  1  0  0  0
  7 13  2  0  0  0
  8  9  1  0  0  0
  9 10  1  0  0  0
  9 11  1  0  0  0
  9 12  1  0  0  0
 13 14  1  0  0  0
 13 37  1  0  0  0
 14 15  1  0  0  0
 15 16  1  0  0  0
 15 24  1  0  0  0
 15 36  1  0  0  0
 16 17  1  0  0  0
 17 18  1  0  0  0
 17 30  1  0  0  0
 17 35  1  0  0  0
 18 19  1  0  0  0
 18 21  1  0  0  0
 18 29  1  0  0  0
 19 20  1  0  0  0
 21 22  1  0  0  0
 21 24  1  0  0  0
 21 28  1  0  0  0
 22 23  1  0  0  0
 24 25  1  0  0  0
 24 27  1  0  0  0
 25 26  1  0  0  0
 30 31  1  0  0  0
 30 33  1  0  0  0
 30 34  1  0  0  0
 31 32  1  0  0  0
 37 38  2  0  0  0
 37 55  1  0  0  0
 38 39  1  0  0  0
 39 40  1  0  0  0
 40 41  2  0  0  0
 40 43  1  0  0  0
 41 42  1  0  0  0
 43 44  2  0  0  0
 43 50  1  0  0  0
 44 45  1  0  0  0
 44 54  1  0  0  0
 45 46  2  0  0  0
 45 53  1  0  0  0
 46 47  1  0  0  0
 46 49  1  0  0  0
 47 48  1  0  0  0
 49 50  2  0  0  0
 49 52  1  0  0  0
 50 51  1  0  0  0
M  END
> <Tumorigenic>
none

> <Score>
43.810585

> <Active/Decoy>
active

> <InChI>
InChI=1S/C22H22O11/c1-30-21-14(32-22-20(29)19(28)17(26)15(8-23)33-22)7-13-16(18(21)27)11(25)6-12(31-13)9-2-4-10(24)5-3-9/h2-7,15,17,19-20,22-24,26-29H,8H2,1H3/t15-,17-,19+,20-,22-/m1/s1

> <Matching Features>
H:14924486185440016873|HBA:149238150533300697|HBA:14924321692640012300|HBA:14924486112070016868

> <Mol. Index>
1116

> <Pharmacophore Match>
Model -1

> <# Confs.>
25

> <Source Database>
Pharm-Screening-input-NANPDB_After_DataWarror.ldb

> <Pharmacophore-Fit Score>
43.81

> <formula>
C22H22O11

> <Mutagenic>
none

> <Reproductive Effective>
none

> <Irritant>
none

$$$$
ferulsinaic acid
XX    ILIB03122402103D

 59 61  0  0  1  0              1 V2000
    5.6609    1.4407   -1.5252 O   0  0  0  0  0
    4.8737    0.9603   -0.7174 C   0  0  0  0  0
    3.5030    1.1641   -0.8147 O   0  0  0  0  0
    2.6034    0.6163    0.1253 C   0  0  0  0  0
    3.0730   -0.1586    1.1806 C   0  0  0  0  0
    2.1532   -0.6778    2.0918 C   0  0  0  0  0
    0.7889   -0.4168    1.9330 C   0  0  0  0  0
    0.3271    0.3651    0.8658 C   0  0  0  0  0
    1.2452    0.8866   -0.0482 C   0  0  0  0  0
    0.9358    1.4970   -0.8906 H   0  0  0  0  0
   -1.0263    0.5470    0.8222 O   0  0  0  0  0
   -1.4835    1.7565    0.2481 C   0  0  0  0  0
   -2.7970    2.1978    0.8586 C   0  0  1  0  0
   -4.0034    1.2226    0.7391 C   0  0  1  0  0
   -5.0138    1.8316    1.7606 C   0  0  2  0  0
   -5.7825    3.0214    1.2785 C   0  0  0  0  0
   -7.1180    3.1467    1.1619 C   0  0  0  0  0
   -7.7206    4.4212    0.6319 C   0  0  0  0  0
   -6.9623    5.1637    0.3662 H   0  0  0  0  0
   -8.3763    4.8730    1.3853 H   0  0  0  0  0
   -8.3132    4.2157   -0.2652 H   0  0  0  0  0
   -8.1227    2.0945    1.5344 C   0  0  0  0  0
   -8.8593    2.5091    2.2330 H   0  0  0  0  0
   -7.6822    1.2222    2.0213 H   0  0  0  0  0
   -8.6551    1.7476    0.6427 H   0  0  0  0  0
   -5.1679    3.8727    0.9866 H   0  0  0  0  0
   -4.1244    2.2461    2.9492 C   0  0  0  0  0
   -2.7072    2.4776    2.3898 C   0  0  2  0  0
   -2.1844    3.8770    2.6956 C   0  0  0  0  0
   -1.1800    4.0171    2.2846 H   0  0  0  0  0
   -2.1297    4.0404    3.7772 H   0  0  0  0  0
   -2.8351    4.6488    2.2714 H   0  0  0  0  0
   -2.0323    1.7601    2.8729 H   0  0  0  0  0
   -4.5142    3.1150    3.4919 H   0  0  0  0  0
   -4.0854    1.4231    3.6745 H   0  0  0  0  0
   -5.7287    1.0678    2.0944 H   0  0  0  0  0
   -4.5237    1.1974   -0.7079 C   0  0  0  0  0
   -5.7163    0.2716   -0.9873 C   0  0  0  0  0
   -6.1398    0.3249   -2.4357 C   0  0  0  0  0
   -5.6172    1.0101   -3.3033 O   0  0  0  0  0
   -7.1914   -0.5019   -2.6759 O   0  0  0  0  0
   -7.4695   -0.4756   -3.6160 H   0  0  0  0  0
   -5.4518   -0.7619   -0.7359 H   0  0  0  0  0
   -6.5740    0.5628   -0.3697 H   0  0  0  0  0
   -3.6983    0.9274   -1.3799 H   0  0  0  0  0
   -4.8123    2.2217   -0.9781 H   0  0  0  0  0
   -3.6614   -0.2223    1.1575 C   0  0  0  0  0
   -4.5666   -0.8344    1.2383 H   0  0  0  0  0
   -3.0102   -0.7089    0.4237 H   0  0  0  0  0
   -3.1607   -0.2663    2.1287 H   0  0  0  0  0
   -3.0735    3.1406    0.3662 H   0  0  0  0  0
   -0.7210    2.5561    0.3551 H   0  0  0  0  0
   -1.6179    1.5866   -0.8255 H   0  0  0  0  0
    0.0855   -0.8291    2.6523 H   0  0  0  0  0
    2.4820   -1.2860    2.9308 H   0  0  0  0  0
    4.5023   -0.3972    1.2970 C   0  0  0  0  0
    5.3447    0.1304    0.4070 C   0  0  0  0  0
    6.4139   -0.0412    0.4881 H   0  0  0  0  0
    4.8684   -1.0050    2.1145 H   0  0  0  0  0
  1  2  2  0  0  0
  2  3  1  0  0  0
  2 57  1  0  0  0
  3  4  1  0  0  0
  4  5  2  0  0  0
  4  9  1  0  0  0
  5  6  1  0  0  0
  5 56  1  0  0  0
  6  7  2  0  0  0
  6 55  1  0  0  0
  7  8  1  0  0  0
  7 54  1  0  0  0
  8  9  2  0  0  0
  8 11  1  0  0  0
  9 10  1  0  0  0
 11 12  1  0  0  0
 12 13  1  0  0  0
 12 52  1  0  0  0
 12 53  1  0  0  0
 13 14  1  0  0  0
 13 28  1  0  0  0
 13 51  1  0  0  0
 14 15  1  0  0  0
 14 37  1  0  0  0
 14 47  1  0  0  0
 15 16  1  0  0  0
 15 27  1  0  0  0
 15 36  1  0  0  0
 16 17  2  0  0  0
 16 26  1  0  0  0
 17 18  1  0  0  0
 17 22  1  0  0  0
 18 19  1  0  0  0
 18 20  1  0  0  0
 18 21  1  0  0  0
 22 23  1  0  0  0
 22 24  1  0  0  0
 22 25  1  0  0  0
 27 28  1  0  0  0
 27 34  1  0  0  0
 27 35  1  0  0  0
 28 29  1  0  0  0
 28 33  1  0  0  0
 29 30  1  0  0  0
 29 31  1  0  0  0
 29 32  1  0  0  0
 37 38  1  0  0  0
 37 45  1  0  0  0
 37 46  1  0  0  0
 38 39  1  0  0  0
 38 43  1  0  0  0
 38 44  1  0  0  0
 39 40  2  0  0  0
 39 41  1  0  0  0
 41 42  1  0  0  0
 47 48  1  0  0  0
 47 49  1  0  0  0
 47 50  1  0  0  0
 56 57  2  0  0  0
 56 59  1  0  0  0
 57 58  1  0  0  0
M  END
> <Tumorigenic>
none

> <Score>
43.76374

> <Active/Decoy>
active

> <InChI>
InChI=1S/C24H30O5/c1-15(2)11-18-12-16(3)20(24(18,4)10-9-22(25)26)14-28-19-7-5-17-6-8-23(27)29-21(17)13-19/h5-8,11,13,16,18,20H,9-10,12,14H2,1-4H3,(H,25,26)/t16-,18+,20+,24+/m0/s1

> <Matching Features>
H:14924486185440016873|HBA:149238150533300697|HBA:14924321692640012300|HBA:14924486112070016868

> <Mol. Index>
956

> <Pharmacophore Match>
Model -1

> <# Confs.>
25

> <Source Database>
Pharm-Screening-input-NANPDB_After_DataWarror.ldb

> <Pharmacophore-Fit Score>
43.76

> <formula>
C24H30O5

> <Mutagenic>
none

> <Reproductive Effective>
none

> <Irritant>
none

$$$$
6-(3',4'-dimethoxybenzoyl)-jaeschkeanadiol
XX    ILIB03122402103D

 64 66  0  0  1  0              1 V2000
   -2.3106    1.1589    1.4041 O   0  0  0  0  0
   -2.3941    0.7934    0.2486 C   0  0  0  0  0
   -1.3914    0.3670   -0.5452 O   0  0  0  0  0
   -0.0793    0.3380    0.0273 C   0  0  2  0  0
    0.9501    0.5880   -1.1020 C   0  0  1  0  0
    0.7404    1.9069   -1.9244 C   0  0  2  0  0
    0.4158    2.9837   -1.0358 O   0  0  0  0  0
   -0.5033    2.8676   -0.7431 H   0  0  0  0  0
   -0.3315    1.8525   -3.0294 C   0  0  0  0  0
   -0.3819    3.1602   -3.8253 C   0  0  0  0  0
   -0.6316    4.0096   -3.1828 H   0  0  0  0  0
    0.5796    3.3677   -4.3061 H   0  0  0  0  0
   -1.1462    3.1084   -4.6087 H   0  0  0  0  0
   -0.0887    0.6850   -3.9912 C   0  0  0  0  0
   -0.1426   -0.2775   -3.4727 H   0  0  0  0  0
   -0.8450    0.6712   -4.7832 H   0  0  0  0  0
    0.8962    0.7606   -4.4661 H   0  0  0  0  0
   -1.3148    1.7046   -2.5647 H   0  0  0  0  0
    2.1380    2.1847   -2.4850 C   0  0  0  0  0
    3.0411    1.8976   -1.2979 C   0  0  2  0  0
    4.3929    1.7626   -1.7003 O   0  0  0  0  0
    4.6404    2.5758   -2.1728 H   0  0  0  0  0
    2.4587    0.6069   -0.6485 C   0  0  1  0  0
    2.6926    0.7087    0.8792 C   0  0  0  0  0
    2.3269   -0.4742    1.7227 C   0  0  0  0  0
    1.2340   -1.2479    1.6309 C   0  0  0  0  0
    0.0760   -1.0334    0.6915 C   0  0  0  0  0
   -0.8445   -1.2257    1.2600 H   0  0  0  0  0
    0.0959   -1.8129   -0.0819 H   0  0  0  0  0
    1.0853   -2.4471    2.5317 C   0  0  0  0  0
    0.9689   -3.3569    1.9330 H   0  0  0  0  0
    0.2036   -2.3359    3.1712 H   0  0  0  0  0
    1.9514   -2.5913    3.1849 H   0  0  0  0  0
    3.0698   -0.7256    2.4793 H   0  0  0  0  0
    3.7666    0.8824    1.0380 H   0  0  0  0  0
    2.1975    1.5969    1.2925 H   0  0  0  0  0
    3.1733   -0.6487   -1.2060 C   0  0  0  0  0
    4.2179   -0.6917   -0.8784 H   0  0  0  0  0
    3.1688   -0.6570   -2.3017 H   0  0  0  0  0
    2.6883   -1.5731   -0.8775 H   0  0  0  0  0
    2.9926    2.7387   -0.5953 H   0  0  0  0  0
    2.2701    3.2218   -2.8154 H   0  0  0  0  0
    2.3943    1.5325   -3.3284 H   0  0  0  0  0
    0.8306   -0.2384   -1.8166 H   0  0  0  0  0
   -0.0181    1.1404    0.7861 H   0  0  0  0  0
   -3.6708    0.7786   -0.5054 C   0  0  0  0  0
   -3.7537    0.3557   -1.8348 C   0  0  0  0  0
   -4.9965    0.3240   -2.4780 C   0  0  0  0  0
   -5.0091   -0.0721   -3.7858 O   0  0  0  0  0
   -5.2590   -1.4586   -4.0002 C   0  0  0  0  0
   -6.2546   -1.7415   -3.6410 H   0  0  0  0  0
   -4.4827   -2.0765   -3.5344 H   0  0  0  0  0
   -5.2283   -1.6396   -5.0782 H   0  0  0  0  0
   -6.1613    0.7576   -1.8280 C   0  0  0  0  0
   -7.3117    0.7497   -2.5638 O   0  0  0  0  0
   -8.4774    1.1951   -1.8774 C   0  0  0  0  0
   -8.3809    2.2422   -1.5716 H   0  0  0  0  0
   -8.6993    0.5536   -1.0171 H   0  0  0  0  0
   -9.3209    1.1266   -2.5711 H   0  0  0  0  0
   -6.0681    1.1822   -0.4988 C   0  0  0  0  0
   -4.8318    1.1907    0.1576 C   0  0  0  0  0
   -4.7996    1.5217    1.1931 H   0  0  0  0  0
   -6.9361    1.5274    0.0568 H   0  0  0  0  0
   -2.8734    0.0279   -2.3808 H   0  0  0  0  0
  1  2  2  0  0  0
  2  3  1  0  0  0
  2 46  1  0  0  0
  3  4  1  0  0  0
  4  5  1  0  0  0
  4 27  1  0  0  0
  4 45  1  0  0  0
  5  6  1  0  0  0
  5 23  1  0  0  0
  5 44  1  0  0  0
  6  7  1  0  0  0
  6  9  1  0  0  0
  6 19  1  0  0  0
  7  8  1  0  0  0
  9 10  1  0  0  0
  9 14  1  0  0  0
  9 18  1  0  0  0
 10 11  1  0  0  0
 10 12  1  0  0  0
 10 13  1  0  0  0
 14 15  1  0  0  0
 14 16  1  0  0  0
 14 17  1  0  0  0
 19 20  1  0  0  0
 19 42  1  0  0  0
 19 43  1  0  0  0
 20 21  1  0  0  0
 20 23  1  0  0  0
 20 41  1  0  0  0
 21 22  1  0  0  0
 23 24  1  0  0  0
 23 37  1  0  0  0
 24 25  1  0  0  0
 24 35  1  0  0  0
 24 36  1  0  0  0
 25 26  2  0  0  0
 25 34  1  0  0  0
 26 27  1  0  0  0
 26 30  1  0  0  0
 27 28  1  0  0  0
 27 29  1  0  0  0
 30 31  1  0  0  0
 30 32  1  0  0  0
 30 33  1  0  0  0
 37 38  1  0  0  0
 37 39  1  0  0  0
 37 40  1  0  0  0
 46 47  2  0  0  0
 46 61  1  0  0  0
 47 48  1  0  0  0
 47 64  1  0  0  0
 48 49  1  0  0  0
 48 54  2  0  0  0
 49 50  1  0  0  0
 50 51  1  0  0  0
 50 52  1  0  0  0
 50 53  1  0  0  0
 54 55  1  0  0  0
 54 60  1  0  0  0
 55 56  1  0  0  0
 56 57  1  0  0  0
 56 58  1  0  0  0
 56 59  1  0  0  0
 60 61  2  0  0  0
 60 63  1  0  0  0
 61 62  1  0  0  0
M  END
> <Tumorigenic>
none

> <Score>
43.759216

> <Active/Decoy>
active

> <InChI>
InChI=1S/C24H34O6/c1-14(2)24(27)13-20(25)23(4)10-9-15(3)11-19(21(23)24)30-22(26)16-7-8-17(28-5)18(12-16)29-6/h7-9,12,14,19-21,25,27H,10-11,13H2,1-6H3/t19-,20-,21+,23+,24+/m0/s1

> <Matching Features>
H:14924486185440016873|HBA:149238150533300697|HBA:14924321692640012300|HBA:14924486112070016868

> <Mol. Index>
906

> <Pharmacophore Match>
Model -1

> <# Confs.>
25

> <Source Database>
Pharm-Screening-input-NANPDB_After_DataWarror.ldb

> <Pharmacophore-Fit Score>
43.76

> <formula>
C24H34O6

> <Mutagenic>
none

> <Reproductive Effective>
none

> <Irritant>
none

$$$$
(1R*,2R*,3E,7R*,8S*,9R*,11R*,12S*)-16-O-(3-hydroxy-3- methylglutaryl)-8,9-epoxydolabell-3-en-2,7,16,18-tetrol
XX    ILIB03122402103D

 77 79  0  0  1  0              1 V2000
   -3.7759   -2.6179   -0.9648 O   0  0  0  0  0
   -4.1138   -1.4931   -1.2865 C   0  0  0  0  0
   -3.3096   -0.4069   -1.3684 O   0  0  0  0  0
   -1.9277   -0.5979   -1.0457 C   0  0  0  0  0
   -1.2035    0.7046   -1.1751 C   0  0  0  0  0
   -0.6584    1.0062   -2.3821 C   0  0  0  0  0
    0.0413    2.2709   -2.8268 C   0  0  2  0  0
   -0.8383    2.9898   -3.7046 O   0  0  0  0  0
   -1.3254    2.3535   -4.2527 H   0  0  0  0  0
    1.4174    2.0307   -3.5441 C   0  0  2  0  0
    2.5192    1.2837   -2.6978 C   0  0  1  0  0
    3.8071    1.5958   -3.5104 C   0  0  2  0  0
    5.1958    1.2227   -2.9595 C   0  0  0  0  0
    5.4170    1.8928   -1.7152 O   0  0  0  0  0
    5.4808    2.8477   -1.8898 H   0  0  0  0  0
    5.2909   -0.2794   -2.6713 C   0  0  0  0  0
    4.5753   -0.5849   -1.8994 H   0  0  0  0  0
    5.1071   -0.8734   -3.5726 H   0  0  0  0  0
    6.2829   -0.5390   -2.2825 H   0  0  0  0  0
    6.3083    1.6334   -3.9288 C   0  0  0  0  0
    6.1931    1.1510   -4.9036 H   0  0  0  0  0
    7.2931    1.3681   -3.5248 H   0  0  0  0  0
    6.3263    2.7190   -4.0789 H   0  0  0  0  0
    3.6361    3.0723   -3.9153 C   0  0  0  0  0
    2.1271    3.3710   -3.8554 C   0  0  0  0  0
    1.9476    4.1021   -3.0570 H   0  0  0  0  0
    1.7755    3.8264   -4.7883 H   0  0  0  0  0
    4.0263    3.2430   -4.9237 H   0  0  0  0  0
    4.1683    3.7516   -3.2412 H   0  0  0  0  0
    3.7354    1.0187   -4.4428 H   0  0  0  0  0
    2.5989    1.7474   -1.2211 C   0  0  0  0  0
    2.6686    0.5838   -0.2774 C   0  0  2  0  0
    1.4704   -0.1923   -0.2650 O   0  0  0  0  0
    1.8148    0.4151    0.9852 C   0  0  2  0  0
    0.8840    1.5178    1.4499 C   0  0  2  0  0
    1.1644    1.7809    2.8341 O   0  0  0  0  0
    0.6496    2.5637    3.0923 H   0  0  0  0  0
   -0.6127    1.1873    1.3255 C   0  0  0  0  0
   -1.2741    1.6361    0.0074 C   0  0  0  0  0
   -0.9171    2.6396   -0.2423 H   0  0  0  0  0
   -2.3468    1.7790    0.2172 H   0  0  0  0  0
   -0.7917    0.1264    1.5282 H   0  0  0  0  0
   -1.1441    1.7180    2.1279 H   0  0  0  0  0
    1.1021    2.4613    0.9453 H   0  0  0  0  0
    2.2386   -0.6111    1.9986 C   0  0  0  0  0
    1.3722   -1.0038    2.5391 H   0  0  0  0  0
    2.7471   -1.4600    1.5284 H   0  0  0  0  0
    2.9326   -0.1708    2.7225 H   0  0  0  0  0
    3.6130    0.0585   -0.3275 H   0  0  0  0  0
    1.7475    2.3621   -0.9758 H   0  0  0  0  0
    3.4503    2.4043   -1.0362 H   0  0  0  0  0
    2.3266    0.2049   -2.7356 H   0  0  0  0  0
    1.1712    1.2883   -4.8940 C   0  0  0  0  0
    0.9094    0.2397   -4.7271 H   0  0  0  0  0
    0.3645    1.7520   -5.4699 H   0  0  0  0  0
    2.0414    1.3051   -5.5563 H   0  0  0  0  0
    0.1813    2.9534   -1.9890 H   0  0  0  0  0
   -0.7540    0.2536   -3.1630 H   0  0  0  0  0
   -1.5076   -1.3596   -1.7043 H   0  0  0  0  0
   -1.8440   -0.9506   -0.0036 H   0  0  0  0  0
   -5.5382   -1.1117   -1.6175 C   0  0  0  0  0
   -5.8327   -1.2867   -3.1018 C   0  0  1  0  0
   -7.1921   -0.9121   -3.3446 O   0  0  0  0  0
   -7.2718    0.0465   -3.2062 H   0  0  0  0  0
   -4.9068   -0.4373   -3.9634 C   0  0  0  0  0
   -5.0524    1.0346   -3.6586 C   0  0  0  0  0
   -6.0657    1.5963   -3.2676 O   0  0  0  0  0
   -3.8951    1.6943   -3.9280 O   0  0  0  0  0
   -3.9741    2.6563   -3.7540 H   0  0  0  0  0
   -3.8647   -0.7299   -3.7906 H   0  0  0  0  0
   -5.1319   -0.5903   -5.0254 H   0  0  0  0  0
   -5.7145   -2.7772   -3.4488 C   0  0  0  0  0
   -6.3775   -3.3742   -2.8139 H   0  0  0  0  0
   -4.6902   -3.1409   -3.3167 H   0  0  0  0  0
   -6.0269   -2.9754   -4.4796 H   0  0  0  0  0
   -5.7031   -0.0675   -1.3261 H   0  0  0  0  0
   -6.2090   -1.7412   -1.0214 H   0  0  0  0  0
  1  2  2  0  0  0
  2  3  1  0  0  0
  2 61  1  0  0  0
  3  4  1  0  0  0
  4  5  1  0  0  0
  4 59  1  0  0  0
  4 60  1  0  0  0
  5  6  2  0  0  0
  5 39  1  0  0  0
  6  7  1  0  0  0
  6 58  1  0  0  0
  7  8  1  0  0  0
  7 10  1  0  0  0
  7 57  1  0  0  0
  8  9  1  0  0  0
 10 11  1  0  0  0
 10 25  1  0  0  0
 10 53  1  0  0  0
 11 12  1  0  0  0
 11 31  1  0  0  0
 11 52  1  0  0  0
 12 13  1  0  0  0
 12 24  1  0  0  0
 12 30  1  0  0  0
 13 14  1  0  0  0
 13 16  1  0  0  0
 13 20  1  0  0  0
 14 15  1  0  0  0
 16 17  1  0  0  0
 16 18  1  0  0  0
 16 19  1  0  0  0
 20 21  1  0  0  0
 20 22  1  0  0  0
 20 23  1  0  0  0
 24 25  1  0  0  0
 24 28  1  0  0  0
 24 29  1  0  0  0
 25 26  1  0  0  0
 25 27  1  0  0  0
 31 32  1  0  0  0
 31 50  1  0  0  0
 31 51  1  0  0  0
 32 33  1  0  0  0
 32 34  1  0  0  0
 32 49  1  0  0  0
 33 34  1  0  0  0
 34 35  1  0  0  0
 34 45  1  0  0  0
 35 36  1  0  0  0
 35 38  1  0  0  0
 35 44  1  0  0  0
 36 37  1  0  0  0
 38 39  1  0  0  0
 38 42  1  0  0  0
 38 43  1  0  0  0
 39 40  1  0  0  0
 39 41  1  0  0  0
 45 46  1  0  0  0
 45 47  1  0  0  0
 45 48  1  0  0  0
 53 54  1  0  0  0
 53 55  1  0  0  0
 53 56  1  0  0  0
 61 62  1  0  0  0
 61 76  1  0  0  0
 61 77  1  0  0  0
 62 63  1  0  0  0
 62 65  1  0  0  0
 62 72  1  0  0  0
 63 64  1  0  0  0
 65 66  1  0  0  0
 65 70  1  0  0  0
 65 71  1  0  0  0
 66 67  2  0  0  0
 66 68  1  0  0  0
 68 69  1  0  0  0
 72 73  1  0  0  0
 72 74  1  0  0  0
 72 75  1  0  0  0
M  END
> <Tumorigenic>
none

> <Score>
43.7147

> <Active/Decoy>
active

> <InChI>
InChI=1S/C26H42O9/c1-23(2,32)16-8-9-25(4)17(16)11-20-26(5,35-20)18(27)7-6-15(10-19(25)28)14-34-22(31)13-24(3,33)12-21(29)30/h10,16-20,27-28,32-33H,6-9,11-14H2,1-5H3,(H,29,30)/b15-10-/t16-,17-,18-,19+,20+,24+,25+,26-/m1/s1

> <Matching Features>
H:14924486185440016873|HBA:149238150533300697|HBA:14924321692640012300|HBA:14924486112070016868

> <Mol. Index>
521

> <Pharmacophore Match>
Model -1

> <# Confs.>
25

> <Source Database>
Pharm-Screening-input-NANPDB_After_DataWarror.ldb

> <Pharmacophore-Fit Score>
43.71

> <formula>
C26H42O9

> <Mutagenic>
none

> <Reproductive Effective>
none

> <Irritant>
none

$$$$
abyssinone V-4'-methylether
XX    ILIB03122402103D

 61 63  0  0  1  0              1 V2000
   -4.8046    1.3740   -2.8773 O   0  0  0  0  0
   -3.8999    0.5478   -2.8712 C   0  0  0  0  0
   -4.1534   -0.9034   -3.0605 C   0  0  0  0  0
   -3.0583   -1.7771   -3.0290 C   0  0  0  0  0
   -1.7589   -1.3646   -2.8785 O   0  0  0  0  0
   -1.5407   -0.0203   -3.3290 C   0  0  2  0  0
   -0.0983    0.3366   -3.0934 C   0  0  0  0  0
    0.5478    1.2439   -3.9433 C   0  0  0  0  0
    1.9046    1.5961   -3.7532 C   0  0  0  0  0
    2.5970    1.0043   -2.6834 C   0  0  0  0  0
    3.8972    1.3639   -2.4681 O   0  0  0  0  0
    4.6215    1.7525   -3.6325 C   0  0  0  0  0
    4.6919    0.9259   -4.3478 H   0  0  0  0  0
    5.6382    2.0120   -3.3203 H   0  0  0  0  0
    4.1782    2.6389   -4.0978 H   0  0  0  0  0
    1.9672    0.1092   -1.8005 C   0  0  0  0  0
    0.6228   -0.2261   -2.0298 C   0  0  0  0  0
    0.1292   -0.9319   -1.3648 H   0  0  0  0  0
    2.6848   -0.5116   -0.6348 C   0  0  0  0  0
    2.5778    0.3087    0.6149 C   0  0  0  0  0
    2.0411   -0.0556    1.7955 C   0  0  0  0  0
    1.9995    0.9162    2.9453 C   0  0  0  0  0
    2.4260    1.8890    2.6863 H   0  0  0  0  0
    2.5649    0.5214    3.7954 H   0  0  0  0  0
    0.9647    1.0810    3.2628 H   0  0  0  0  0
    1.4581   -1.4048    2.1026 C   0  0  0  0  0
    1.9322   -1.8247    2.9970 H   0  0  0  0  0
    1.5962   -2.1336    1.3013 H   0  0  0  0  0
    0.3837   -1.3167    2.2938 H   0  0  0  0  0
    2.9816    1.3166    0.5329 H   0  0  0  0  0
    3.7358   -0.6780   -0.9058 H   0  0  0  0  0
    2.2677   -1.5090   -0.4404 H   0  0  0  0  0
    2.5260    2.6199   -4.6476 C   0  0  0  0  0
    1.5707    3.1321   -5.6934 C   0  0  0  0  0
    1.3403    2.6476   -6.9216 C   0  0  0  0  0
    0.3537    3.3204   -7.8392 C   0  0  0  0  0
   -0.1000    4.2083   -7.3867 H   0  0  0  0  0
   -0.4556    2.6304   -8.0985 H   0  0  0  0  0
    0.8512    3.6377   -8.7621 H   0  0  0  0  0
    1.9941    1.4269   -7.5035 C   0  0  0  0  0
    1.2321    0.7237   -7.8561 H   0  0  0  0  0
    2.6190    0.8845   -6.7921 H   0  0  0  0  0
    2.6230    1.7070   -8.3561 H   0  0  0  0  0
    1.0104    4.0234   -5.3850 H   0  0  0  0  0
    3.4094    2.1756   -5.1293 H   0  0  0  0  0
    2.8921    3.4577   -4.0581 H   0  0  0  0  0
   -0.0101    1.7022   -4.7576 H   0  0  0  0  0
   -2.4722    0.9422   -2.6005 C   0  0  0  0  0
   -2.3158    1.9679   -2.9541 H   0  0  0  0  0
   -2.3232    0.9163   -1.5141 H   0  0  0  0  0
   -1.7326    0.0017   -4.4123 H   0  0  0  0  0
   -3.2547   -3.1568   -3.1246 C   0  0  0  0  0
   -4.5422   -3.6579   -3.2852 C   0  0  0  0  0
   -4.6999   -5.0114   -3.3860 O   0  0  0  0  0
   -5.6479   -5.2059   -3.4915 H   0  0  0  0  0
   -5.6404   -2.8022   -3.3423 C   0  0  0  0  0
   -5.4439   -1.4237   -3.2254 C   0  0  0  0  0
   -6.5283   -0.5915   -3.2637 O   0  0  0  0  0
   -7.3337   -1.1253   -3.3791 H   0  0  0  0  0
   -6.6415   -3.2055   -3.4697 H   0  0  0  0  0
   -2.4050   -3.8336   -3.0845 H   0  0  0  0  0
  1  2  2  0  0  0
  2  3  1  0  0  0
  2 48  1  0  0  0
  3  4  2  0  0  0
  3 57  1  0  0  0
  4  5  1  0  0  0
  4 52  1  0  0  0
  5  6  1  0  0  0
  6  7  1  0  0  0
  6 48  1  0  0  0
  6 51  1  0  0  0
  7  8  2  0  0  0
  7 17  1  0  0  0
  8  9  1  0  0  0
  8 47  1  0  0  0
  9 10  2  0  0  0
  9 33  1  0  0  0
 10 11  1  0  0  0
 10 16  1  0  0  0
 11 12  1  0  0  0
 12 13  1  0  0  0
 12 14  1  0  0  0
 12 15  1  0  0  0
 16 17  2  0  0  0
 16 19  1  0  0  0
 17 18  1  0  0  0
 19 20  1  0  0  0
 19 31  1  0  0  0
 19 32  1  0  0  0
 20 21  2  0  0  0
 20 30  1  0  0  0
 21 22  1  0  0  0
 21 26  1  0  0  0
 22 23  1  0  0  0
 22 24  1  0  0  0
 22 25  1  0  0  0
 26 27  1  0  0  0
 26 28  1  0  0  0
 26 29  1  0  0  0
 33 34  1  0  0  0
 33 45  1  0  0  0
 33 46  1  0  0  0
 34 35  2  0  0  0
 34 44  1  0  0  0
 35 36  1  0  0  0
 35 40  1  0  0  0
 36 37  1  0  0  0
 36 38  1  0  0  0
 36 39  1  0  0  0
 40 41  1  0  0  0
 40 42  1  0  0  0
 40 43  1  0  0  0
 48 49  1  0  0  0
 48 50  1  0  0  0
 52 53  2  0  0  0
 52 61  1  0  0  0
 53 54  1  0  0  0
 53 56  1  0  0  0
 54 55  1  0  0  0
 56 57  2  0  0  0
 56 60  1  0  0  0
 57 58  1  0  0  0
 58 59  1  0  0  0
M  END
> <Tumorigenic>
none

> <Score>
43.666664

> <Active/Decoy>
active

> <InChI>
InChI=1S/C26H30O5/c1-15(2)6-8-17-10-19(11-18(26(17)30-5)9-7-16(3)4)23-14-22(29)25-21(28)12-20(27)13-24(25)31-23/h6-7,10-13,23,27-28H,8-9,14H2,1-5H3/t23-/m0/s1

> <Matching Features>
H:14924486185440016873|HBA:149238150533300697|HBA:14924321692640012300|HBA:14924486112070016868

> <Mol. Index>
603

> <Pharmacophore Match>
Model -1

> <# Confs.>
25

> <Source Database>
Pharm-Screening-input-NANPDB_After_DataWarror.ldb

> <Pharmacophore-Fit Score>
43.67

> <formula>
C26H30O5

> <Mutagenic>
none

> <Reproductive Effective>
none

> <Irritant>
none

$$$$
arctigenin
XX    ILIB03122402103D

 51 53  0  0  1  0              1 V2000
    3.5619    1.2794   -1.9546 O   0  0  0  0  0
    2.3417    1.3177   -1.9955 C   0  0  0  0  0
    1.5830    0.5659   -2.8478 O   0  0  0  0  0
    0.2067    0.9208   -2.7040 C   0  0  0  0  0
    0.0812    1.5098   -1.3088 C   0  0  1  0  0
    1.4496    2.2086   -1.1585 C   0  0  1  0  0
    1.9611    2.2946    0.2780 C   0  0  0  0  0
    1.9950    0.9652    0.9793 C   0  0  0  0  0
    3.1381    0.1514    0.8990 C   0  0  0  0  0
    3.1784   -1.0895    1.5454 C   0  0  0  0  0
    4.2383   -1.9506    1.5309 O   0  0  0  0  0
    5.3701   -1.5112    0.7839 C   0  0  0  0  0
    5.1197   -1.3859   -0.2753 H   0  0  0  0  0
    5.7861   -0.5877    1.2021 H   0  0  0  0  0
    6.1385   -2.2867    0.8572 H   0  0  0  0  0
    2.0587   -1.5053    2.2744 C   0  0  0  0  0
    2.0487   -2.7030    2.9358 O   0  0  0  0  0
    2.9166   -3.1231    2.8145 H   0  0  0  0  0
    0.9143   -0.7153    2.3519 C   0  0  0  0  0
    0.8821    0.5171    1.7018 C   0  0  0  0  0
   -0.0152    1.1270    1.7652 H   0  0  0  0  0
    0.0482   -1.0491    2.9142 H   0  0  0  0  0
    3.9881    0.5144    0.3264 H   0  0  0  0  0
    2.9619    2.7459    0.2937 H   0  0  0  0  0
    1.3149    2.9716    0.8513 H   0  0  0  0  0
    1.4392    3.1962   -1.6368 H   0  0  0  0  0
   -1.1128    2.4337   -1.1395 C   0  0  0  0  0
   -2.4271    1.7445   -1.3889 C   0  0  0  0  0
   -3.0062    1.6985   -2.6711 C   0  0  0  0  0
   -4.2312    1.0546   -2.8847 C   0  0  0  0  0
   -4.8830    0.9882   -4.0820 O   0  0  0  0  0
   -4.2133    1.6246   -5.1741 C   0  0  0  0  0
   -4.0980    2.6992   -4.9954 H   0  0  0  0  0
   -3.2439    1.1527   -5.3716 H   0  0  0  0  0
   -4.8343    1.4984   -6.0648 H   0  0  0  0  0
   -4.8686    0.4388   -1.7986 C   0  0  0  0  0
   -6.0787   -0.1813   -1.9322 O   0  0  0  0  0
   -6.0216   -1.5648   -2.2685 C   0  0  0  0  0
   -5.5424   -1.7149   -3.2424 H   0  0  0  0  0
   -5.5141   -2.1412   -1.4874 H   0  0  0  0  0
   -7.0494   -1.9326   -2.3404 H   0  0  0  0  0
   -4.3179    0.4995   -0.5180 C   0  0  0  0  0
   -3.0985    1.1432   -0.3175 C   0  0  0  0  0
   -2.6796    1.1753    0.6850 H   0  0  0  0  0
   -4.8276    0.0401    0.3247 H   0  0  0  0  0
   -2.4796    2.1825   -3.4898 H   0  0  0  0  0
   -1.1100    2.8946   -0.1569 H   0  0  0  0  0
   -1.0277    3.2658   -1.8684 H   0  0  0  0  0
    0.0241    0.6829   -0.5939 H   0  0  0  0  0
   -0.4075    0.0226   -2.8172 H   0  0  0  0  0
   -0.0515    1.6294   -3.4984 H   0  0  0  0  0
  1  2  2  0  0  0
  2  3  1  0  0  0
  2  6  1  0  0  0
  3  4  1  0  0  0
  4  5  1  0  0  0
  4 50  1  0  0  0
  4 51  1  0  0  0
  5  6  1  0  0  0
  5 27  1  0  0  0
  5 49  1  0  0  0
  6  7  1  0  0  0
  6 26  1  0  0  0
  7  8  1  0  0  0
  7 24  1  0  0  0
  7 25  1  0  0  0
  8  9  2  0  0  0
  8 20  1  0  0  0
  9 10  1  0  0  0
  9 23  1  0  0  0
 10 11  1  0  0  0
 10 16  2  0  0  0
 11 12  1  0  0  0
 12 13  1  0  0  0
 12 14  1  0  0  0
 12 15  1  0  0  0
 16 17  1  0  0  0
 16 19  1  0  0  0
 17 18  1  0  0  0
 19 20  2  0  0  0
 19 22  1  0  0  0
 20 21  1  0  0  0
 27 28  1  0  0  0
 27 47  1  0  0  0
 27 48  1  0  0  0
 28 29  2  0  0  0
 28 43  1  0  0  0
 29 30  1  0  0  0
 29 46  1  0  0  0
 30 31  1  0  0  0
 30 36  2  0  0  0
 31 32  1  0  0  0
 32 33  1  0  0  0
 32 34  1  0  0  0
 32 35  1  0  0  0
 36 37  1  0  0  0
 36 42  1  0  0  0
 37 38  1  0  0  0
 38 39  1  0  0  0
 38 40  1  0  0  0
 38 41  1  0  0  0
 42 43  2  0  0  0
 42 45  1  0  0  0
 43 44  1  0  0  0
M  END
> <Tumorigenic>
none

> <Score>
43.659122

> <Active/Decoy>
active

> <InChI>
InChI=1S/C21H24O6/c1-24-18-7-5-13(11-20(18)26-3)8-15-12-27-21(23)16(15)9-14-4-6-17(22)19(10-14)25-2/h4-7,10-11,15-16,22H,8-9,12H2,1-3H3/t15-,16+/m0/s1

> <Matching Features>
H:14924486185440016873|HBA:149238150533300697|HBA:14924321692640012300|HBA:14924486112070016868

> <Mol. Index>
1104

> <Pharmacophore Match>
Model -1

> <# Confs.>
25

> <Source Database>
Pharm-Screening-input-NANPDB_After_DataWarror.ldb

> <Pharmacophore-Fit Score>
43.66

> <formula>
C21H24O6

> <Mutagenic>
none

> <Reproductive Effective>
none

> <Irritant>
none

$$$$
oleoside dimethyl ester
XX    ILIB03122402103D

 55 56  0  0  1  0              1 V2000
    4.9568    1.4287   -1.8067 O   0  0  0  0  0
    4.1138    0.9536   -2.5571 C   0  0  0  0  0
    4.3194    0.5035   -3.8184 O   0  0  0  0  0
    5.6662    0.6062   -4.2913 C   0  0  0  0  0
    5.9740    1.6554   -4.3319 H   0  0  0  0  0
    5.7064    0.1901   -5.3017 H   0  0  0  0  0
    6.3384    0.0306   -3.6485 H   0  0  0  0  0
    2.7032    0.8089   -2.1542 C   0  0  0  0  0
    1.8001    0.2851   -2.9979 C   0  0  0  0  0
    0.4726    0.0650   -2.7275 O   0  0  0  0  0
   -0.0240    0.6583   -1.5259 C   0  0  1  0  0
   -1.2748    0.0608   -1.1663 O   0  0  0  0  0
   -2.2754    0.2182   -2.1526 C   0  0  2  0  0
   -2.5344    1.6010   -2.3990 O   0  0  0  0  0
   -3.5217    1.8064   -3.4148 C   0  0  1  0  0
   -4.8646    1.2370   -2.9494 C   0  0  1  0  0
   -5.8128    1.3704   -4.0034 O   0  0  0  0  0
   -6.6800    1.1010   -3.6562 H   0  0  0  0  0
   -4.7249   -0.2385   -2.5740 C   0  0  2  0  0
   -5.9103   -0.6727   -1.9040 O   0  0  0  0  0
   -6.6451   -0.6165   -2.5387 H   0  0  0  0  0
   -3.5432   -0.4636   -1.6343 C   0  0  1  0  0
   -3.3158   -1.8690   -1.5295 O   0  0  0  0  0
   -2.5465   -1.9972   -0.9490 H   0  0  0  0  0
   -3.7903   -0.1036   -0.6278 H   0  0  0  0  0
   -4.6281   -0.8637   -3.4705 H   0  0  0  0  0
   -5.2393    1.8030   -2.0873 H   0  0  0  0  0
   -3.6046    3.3008   -3.6741 C   0  0  0  0  0
   -2.3529    3.8079   -4.1100 O   0  0  0  0  0
   -1.7028    3.6193   -3.4125 H   0  0  0  0  0
   -3.9067    3.8365   -2.7674 H   0  0  0  0  0
   -4.3566    3.5255   -4.4386 H   0  0  0  0  0
   -3.1867    1.3149   -4.3381 H   0  0  0  0  0
   -1.9261   -0.2719   -3.0724 H   0  0  0  0  0
    0.9835    0.5465   -0.3737 C   0  0  0  0  0
    2.3307    1.1730   -0.7293 C   0  0  2  0  0
    2.3139    2.6801   -0.5585 C   0  0  0  0  0
    1.9452    3.0479    0.8545 C   0  0  0  0  0
    2.5938    2.7019    1.8355 O   0  0  0  0  0
    0.7960    3.7774    0.8850 O   0  0  0  0  0
    0.3446    4.1489    2.1908 C   0  0  0  0  0
    0.1073    3.2557    2.7766 H   0  0  0  0  0
   -0.5632    4.7479    2.0806 H   0  0  0  0  0
    1.0981    4.7616    2.6919 H   0  0  0  0  0
    1.5869    3.1554   -1.2280 H   0  0  0  0  0
    3.2892    3.1280   -0.7855 H   0  0  0  0  0
    3.1050    0.7513   -0.0786 H   0  0  0  0  0
    0.7145   -0.0721    0.7941 C   0  0  0  0  0
    1.6134   -0.2488    1.9764 C   0  0  0  0  0
    2.5711    0.2663    1.8883 H   0  0  0  0  0
    1.8120   -1.3128    2.1309 H   0  0  0  0  0
    1.1162    0.1370    2.8723 H   0  0  0  0  0
   -0.2704   -0.5087    0.9416 H   0  0  0  0  0
   -0.2131    1.7195   -1.7078 H   0  0  0  0  0
    2.0135   -0.0631   -3.9991 H   0  0  0  0  0
  1  2  2  0  0  0
  2  3  1  0  0  0
  2  8  1  0  0  0
  3  4  1  0  0  0
  4  5  1  0  0  0
  4  6  1  0  0  0
  4  7  1  0  0  0
  8  9  2  0  0  0
  8 36  1  0  0  0
  9 10  1  0  0  0
  9 55  1  0  0  0
 10 11  1  0  0  0
 11 12  1  0  0  0
 11 35  1  0  0  0
 11 54  1  0  0  0
 12 13  1  0  0  0
 13 14  1  0  0  0
 13 22  1  0  0  0
 13 34  1  0  0  0
 14 15  1  0  0  0
 15 16  1  0  0  0
 15 28  1  0  0  0
 15 33  1  0  0  0
 16 17  1  0  0  0
 16 19  1  0  0  0
 16 27  1  0  0  0
 17 18  1  0  0  0
 19 20  1  0  0  0
 19 22  1  0  0  0
 19 26  1  0  0  0
 20 21  1  0  0  0
 22 23  1  0  0  0
 22 25  1  0  0  0
 23 24  1  0  0  0
 28 29  1  0  0  0
 28 31  1  0  0  0
 28 32  1  0  0  0
 29 30  1  0  0  0
 35 36  1  0  0  0
 35 48  2  0  0  0
 36 37  1  0  0  0
 36 47  1  0  0  0
 37 38  1  0  0  0
 37 45  1  0  0  0
 37 46  1  0  0  0
 38 39  2  0  0  0
 38 40  1  0  0  0
 40 41  1  0  0  0
 41 42  1  0  0  0
 41 43  1  0  0  0
 41 44  1  0  0  0
 48 49  1  0  0  0
 48 53  1  0  0  0
 49 50  1  0  0  0
 49 51  1  0  0  0
 49 52  1  0  0  0
M  END
> <Tumorigenic>
none

> <Score>
43.64541

> <Active/Decoy>
active

> <InChI>
InChI=1S/C18H26O11/c1-4-8-9(5-12(20)25-2)10(16(24)26-3)7-27-17(8)29-18-15(23)14(22)13(21)11(6-19)28-18/h4,7,9,11,13-15,17-19,21-23H,5-6H2,1-3H3/b8-4-/t9-,11+,13+,14-,15+,17-,18-/m0/s1

> <Matching Features>
H:14924486185440016873|HBA:149238150533300697|HBA:14924321692640012300|HBA:14924486112070016868

> <Mol. Index>
636

> <Pharmacophore Match>
Model -1

> <# Confs.>
25

> <Source Database>
Pharm-Screening-input-NANPDB_After_DataWarror.ldb

> <Pharmacophore-Fit Score>
43.65

> <formula>
C18H26O11

> <Mutagenic>
none

> <Reproductive Effective>
none

> <Irritant>
none

$$$$
(-)-shikimic acid-O-gallate
XX    ILIB03122402103D

 40 41  0  0  1  0              1 V2000
   -0.7697    3.4810    1.1697 O   0  0  0  0  0
   -0.7008    2.3852    0.6509 C   0  0  0  0  0
   -1.6959    1.7093    0.0421 O   0  0  0  0  0
   -2.9888    2.3256    0.0300 C   0  0  2  0  0
   -3.7750    1.9129    1.2941 C   0  0  2  0  0
   -2.9631    2.0771    2.4538 O   0  0  0  0  0
   -2.6864    3.0087    2.4866 H   0  0  0  0  0
   -4.2398    0.4579    1.2068 C   0  0  1  0  0
   -4.9917    0.1200    2.3715 O   0  0  0  0  0
   -5.7422    0.7358    2.4333 H   0  0  0  0  0
   -5.1151    0.2293   -0.0333 C   0  0  0  0  0
   -4.6360    0.9496   -1.2652 C   0  0  0  0  0
   -3.6701    1.8832   -1.2304 C   0  0  0  0  0
   -3.3283    2.3686   -2.1406 H   0  0  0  0  0
   -5.2147    0.6315   -2.5817 C   0  0  0  0  0
   -4.8895    1.1447   -3.6408 O   0  0  0  0  0
   -6.1703   -0.3193   -2.4581 O   0  0  0  0  0
   -6.5731   -0.5513   -3.3213 H   0  0  0  0  0
   -5.1634   -0.8514   -0.2167 H   0  0  0  0  0
   -6.1458    0.5443    0.1779 H   0  0  0  0  0
   -3.3731   -0.2135    1.1897 H   0  0  0  0  0
   -4.6495    2.5634    1.4213 H   0  0  0  0  0
   -2.8805    3.4151    0.0293 H   0  0  0  0  0
    0.5563    1.6025    0.5742 C   0  0  0  0  0
    1.4153    1.7772   -0.5288 C   0  0  0  0  0
    1.0834    2.6631   -1.5180 O   0  0  0  0  0
    1.7831    2.6419   -2.1933 H   0  0  0  0  0
    2.5877    1.0311   -0.6181 C   0  0  0  0  0
    3.4100    1.2129   -1.6955 O   0  0  0  0  0
    4.1711    0.6136   -1.5994 H   0  0  0  0  0
    2.9024    0.1105    0.3766 C   0  0  0  0  0
    4.0544   -0.6169    0.2668 O   0  0  0  0  0
    4.1185   -1.2161    1.0302 H   0  0  0  0  0
    2.0483   -0.0719    1.4660 C   0  0  0  0  0
    0.8663    0.6776    1.5787 C   0  0  0  0  0
   -0.0368    0.4435    2.7563 C   0  0  0  0  0
   -0.9256   -0.1135    2.4439 H   0  0  0  0  0
   -0.3410    1.3930    3.2084 H   0  0  0  0  0
    0.4673   -0.1343    3.5379 H   0  0  0  0  0
    2.3027   -0.8011    2.2318 H   0  0  0  0  0
  1  2  2  0  0  0
  2  3  1  0  0  0
  2 24  1  0  0  0
  3  4  1  0  0  0
  4  5  1  0  0  0
  4 13  1  0  0  0
  4 23  1  0  0  0
  5  6  1  0  0  0
  5  8  1  0  0  0
  5 22  1  0  0  0
  6  7  1  0  0  0
  8  9  1  0  0  0
  8 11  1  0  0  0
  8 21  1  0  0  0
  9 10  1  0  0  0
 11 12  1  0  0  0
 11 19  1  0  0  0
 11 20  1  0  0  0
 12 13  2  0  0  0
 12 15  1  0  0  0
 13 14  1  0  0  0
 15 16  2  0  0  0
 15 17  1  0  0  0
 17 18  1  0  0  0
 24 25  2  0  0  0
 24 35  1  0  0  0
 25 26  1  0  0  0
 25 28  1  0  0  0
 26 27  1  0  0  0
 28 29  1  0  0  0
 28 31  2  0  0  0
 29 30  1  0  0  0
 31 32  1  0  0  0
 31 34  1  0  0  0
 32 33  1  0  0  0
 34 35  2  0  0  0
 34 40  1  0  0  0
 35 36  1  0  0  0
 36 37  1  0  0  0
 36 38  1  0  0  0
 36 39  1  0  0  0
M  END
> <Tumorigenic>
none

> <Score>
43.64172

> <Active/Decoy>
active

> <InChI>
InChI=1S/C15H16O9/c1-5-2-7(16)12(19)13(20)10(5)15(23)24-9-4-6(14(21)22)3-8(17)11(9)18/h2,4,8-9,11,16-20H,3H2,1H3,(H,21,22)/t8-,9-,11+/m0/s1

> <Matching Features>
H:14924486185440016873|HBA:149238150533300697|HBA:14924321692640012300|HBA:14924486112070016868

> <Mol. Index>
509

> <Pharmacophore Match>
Model -1

> <# Confs.>
25

> <Source Database>
Pharm-Screening-input-NANPDB_After_DataWarror.ldb

> <Pharmacophore-Fit Score>
43.64

> <formula>
C15H16O9

> <Mutagenic>
none

> <Reproductive Effective>
none

> <Irritant>
none

$$$$
apigenin-7-O-rhamnoside
XX    ILIB03122402103D

 50 53  0  0  1  0              1 V2000
   -6.3421   -0.7463   -2.7904 O   0  0  0  0  0
   -5.3008   -1.3836   -2.7110 C   0  0  0  0  0
   -3.9676   -0.7568   -2.7932 C   0  0  0  0  0
   -2.8465   -1.5808   -2.6945 C   0  0  0  0  0
   -2.9274   -2.9418   -2.5379 O   0  0  0  0  0
   -4.1769   -3.5359   -2.4675 C   0  0  0  0  0
   -5.3295   -2.8515   -2.5430 C   0  0  0  0  0
   -6.3087   -3.3168   -2.4934 H   0  0  0  0  0
   -4.1357   -5.0032   -2.3105 C   0  0  0  0  0
   -3.0690   -5.7521   -2.8380 C   0  0  0  0  0
   -3.0192   -7.1416   -2.6951 C   0  0  0  0  0
   -4.0400   -7.7991   -2.0172 C   0  0  0  0  0
   -4.0199   -9.1563   -1.8613 O   0  0  0  0  0
   -3.2219   -9.5056   -2.2931 H   0  0  0  0  0
   -5.1064   -7.0872   -1.4821 C   0  0  0  0  0
   -5.1518   -5.6978   -1.6279 C   0  0  0  0  0
   -5.9999   -5.1709   -1.1929 H   0  0  0  0  0
   -5.9025   -7.5980   -0.9505 H   0  0  0  0  0
   -2.1839   -7.6926   -3.1149 H   0  0  0  0  0
   -2.2564   -5.2687   -3.3749 H   0  0  0  0  0
   -1.5561   -1.0431   -2.7678 C   0  0  0  0  0
   -1.3689    0.3321   -2.9127 C   0  0  0  0  0
   -0.1833    0.9864   -3.0108 O   0  0  0  0  0
    0.9084    0.3783   -2.2883 C   0  0  2  0  0
    0.6218    0.3012   -0.8873 O   0  0  0  0  0
    1.6875   -0.2791   -0.1258 C   0  0  1  0  0
    2.9377    0.6011   -0.2247 C   0  0  2  0  0
    2.6555    1.8753    0.3552 O   0  0  0  0  0
    3.4884    2.3748    0.3811 H   0  0  0  0  0
    3.3268    0.7738   -1.6930 C   0  0  2  0  0
    4.4175    1.6828   -1.8095 O   0  0  0  0  0
    4.0958    2.5723   -1.5852 H   0  0  0  0  0
    2.1422    1.2579   -2.5299 C   0  0  1  0  0
    2.4863    1.1866   -3.9132 O   0  0  0  0  0
    3.2802    1.7335   -4.0438 H   0  0  0  0  0
    1.9122    2.3075   -2.3108 H   0  0  0  0  0
    3.6823   -0.1844   -2.0907 H   0  0  0  0  0
    3.7668    0.1634    0.3425 H   0  0  0  0  0
    1.1928   -0.4266    1.3069 C   0  0  0  0  0
    0.8715    0.5334    1.7239 H   0  0  0  0  0
    0.3172   -1.0843    1.3375 H   0  0  0  0  0
    1.9679   -0.8507    1.9532 H   0  0  0  0  0
    1.8985   -1.2792   -0.5239 H   0  0  0  0  0
    1.0906   -0.6303   -2.6880 H   0  0  0  0  0
   -2.5022    1.1638   -3.0046 C   0  0  0  0  0
   -3.7896    0.6226   -2.9355 C   0  0  0  0  0
   -4.8695    1.4556   -3.0338 O   0  0  0  0  0
   -4.5541    2.3688   -3.1461 H   0  0  0  0  0
   -2.3686    2.2353   -3.1357 H   0  0  0  0  0
   -0.7090   -1.7163   -2.6653 H   0  0  0  0  0
  1  2  2  0  0  0
  2  3  1  0  0  0
  2  7  1  0  0  0
  3  4  2  0  0  0
  3 46  1  0  0  0
  4  5  1  0  0  0
  4 21  1  0  0  0
  5  6  1  0  0  0
  6  7  2  0  0  0
  6  9  1  0  0  0
  7  8  1  0  0  0
  9 10  2  0  0  0
  9 16  1  0  0  0
 10 11  1  0  0  0
 10 20  1  0  0  0
 11 12  2  0  0  0
 11 19  1  0  0  0
 12 13  1  0  0  0
 12 15  1  0  0  0
 13 14  1  0  0  0
 15 16  2  0  0  0
 15 18  1  0  0  0
 16 17  1  0  0  0
 21 22  2  0  0  0
 21 50  1  0  0  0
 22 23  1  0  0  0
 22 45  1  0  0  0
 23 24  1  0  0  0
 24 25  1  0  0  0
 24 33  1  0  0  0
 24 44  1  0  0  0
 25 26  1  0  0  0
 26 27  1  0  0  0
 26 39  1  0  0  0
 26 43  1  0  0  0
 27 28  1  0  0  0
 27 30  1  0  0  0
 27 38  1  0  0  0
 28 29  1  0  0  0
 30 31  1  0  0  0
 30 33  1  0  0  0
 30 37  1  0  0  0
 31 32  1  0  0  0
 33 34  1  0  0  0
 33 36  1  0  0  0
 34 35  1  0  0  0
 39 40  1  0  0  0
 39 41  1  0  0  0
 39 42  1  0  0  0
 45 46  2  0  0  0
 45 49  1  0  0  0
 46 47  1  0  0  0
 47 48  1  0  0  0
M  END
> <Tumorigenic>
none

> <Score>
43.616867

> <Active/Decoy>
active

> <InChI>
InChI=1S/C21H20O9/c1-9-18(25)19(26)20(27)21(28-9)29-12-6-13(23)17-14(24)8-15(30-16(17)7-12)10-2-4-11(22)5-3-10/h2-9,18-23,25-27H,1H3/t9-,18+,19+,20-,21+/m1/s1

> <Matching Features>
H:14924486185440016873|HBA:149238150533300697|HBA:14924321692640012300|HBA:14924486112070016868

> <Mol. Index>
131

> <Pharmacophore Match>
Model -1

> <# Confs.>
25

> <Source Database>
Pharm-Screening-input-NANPDB_After_DataWarror.ldb

> <Pharmacophore-Fit Score>
43.62

> <formula>
C21H20O9

> <Mutagenic>
none

> <Reproductive Effective>
none

> <Irritant>
none

$$$$
galbanic acid
XX    ILIB03122402103D

 59 61  0  0  1  0              1 V2000
    4.6557    1.8127   -1.8971 O   0  0  0  0  0
    4.1946    1.1938   -0.9470 C   0  0  0  0  0
    2.8248    1.0439   -0.7635 O   0  0  0  0  0
    2.2967    0.3225    0.3298 C   0  0  0  0  0
    3.1468   -0.2517    1.2696 C   0  0  0  0  0
    2.5873   -0.9161    2.3606 C   0  0  0  0  0
    1.1982   -1.0331    2.4701 C   0  0  0  0  0
    0.3509   -0.4287    1.5304 C   0  0  0  0  0
    0.9075    0.2339    0.4349 C   0  0  0  0  0
    0.2940    0.7039   -0.3268 H   0  0  0  0  0
   -0.9847   -0.6196    1.7459 O   0  0  0  0  0
   -1.8660   -0.0190    0.8051 C   0  0  0  0  0
   -3.3132   -0.2898    1.1592 C   0  0  2  0  0
   -4.2260    0.3846    0.0559 C   0  0  2  0  0
   -4.1182    1.9221    0.1495 C   0  0  0  0  0
   -3.7148    2.7079   -0.8803 C   0  0  0  0  0
   -3.4368    2.1858   -2.2683 C   0  0  0  0  0
   -4.0325    1.3061   -2.5229 H   0  0  0  0  0
   -3.6942    2.9427   -3.0194 H   0  0  0  0  0
   -2.3754    1.9437   -2.3812 H   0  0  0  0  0
   -3.4923    4.1967   -0.7755 C   0  0  0  0  0
   -2.5989    4.4832   -1.3418 H   0  0  0  0  0
   -4.3485    4.7349   -1.1923 H   0  0  0  0  0
   -3.3181    4.5459    0.2435 H   0  0  0  0  0
   -4.5009    2.4504    1.5172 C   0  0  0  0  0
   -3.6416    1.8284    2.6199 C   0  0  0  0  0
   -3.6841    0.2922    2.5886 C   0  0  2  0  0
   -2.8549   -0.2401    3.7644 C   0  0  0  0  0
   -3.2830    0.1082    4.7115 H   0  0  0  0  0
   -2.8491   -1.3319    3.8019 H   0  0  0  0  0
   -1.8220    0.1180    3.7338 H   0  0  0  0  0
   -4.7203   -0.0028    2.8036 H   0  0  0  0  0
   -2.6109    2.1898    2.5251 H   0  0  0  0  0
   -4.0083    2.1899    3.5854 H   0  0  0  0  0
   -4.4377    3.5380    1.5946 H   0  0  0  0  0
   -5.5561    2.2167    1.7055 H   0  0  0  0  0
   -5.7049   -0.0045    0.0569 C   0  0  0  0  0
   -6.5790    0.6455   -1.0084 C   0  0  0  0  0
   -6.0982    0.3208   -2.4018 C   0  0  0  0  0
   -5.5215   -0.7052   -2.7334 O   0  0  0  0  0
   -6.3924    1.3212   -3.2729 O   0  0  0  0  0
   -6.0865    1.1159   -4.1822 H   0  0  0  0  0
   -7.6137    0.2974   -0.9034 H   0  0  0  0  0
   -6.5726    1.7354   -0.8890 H   0  0  0  0  0
   -6.1329    0.2039    1.0463 H   0  0  0  0  0
   -5.7570   -1.0941   -0.0723 H   0  0  0  0  0
   -3.8193    0.0513   -0.8992 H   0  0  0  0  0
   -3.5322   -1.8209    1.1754 C   0  0  0  0  0
   -2.8154   -2.3401    1.8191 H   0  0  0  0  0
   -4.5298   -2.0872    1.5389 H   0  0  0  0  0
   -3.4091   -2.2356    0.1693 H   0  0  0  0  0
   -1.6783    1.0503    0.6978 H   0  0  0  0  0
   -1.6430   -0.4930   -0.1711 H   0  0  0  0  0
    0.7781   -1.5515    3.3294 H   0  0  0  0  0
    3.2188   -1.3771    3.1155 H   0  0  0  0  0
    4.5826   -0.0928    1.1096 C   0  0  0  0  0
    5.0732    0.5715    0.0605 C   0  0  0  0  0
    6.1417    0.6790   -0.0741 H   0  0  0  0  0
    5.2470   -0.5596    1.8292 H   0  0  0  0  0
  1  2  2  0  0  0
  2  3  1  0  0  0
  2 57  1  0  0  0
  3  4  1  0  0  0
  4  5  2  0  0  0
  4  9  1  0  0  0
  5  6  1  0  0  0
  5 56  1  0  0  0
  6  7  2  0  0  0
  6 55  1  0  0  0
  7  8  1  0  0  0
  7 54  1  0  0  0
  8  9  2  0  0  0
  8 11  1  0  0  0
  9 10  1  0  0  0
 11 12  1  0  0  0
 12 13  1  0  0  0
 12 52  1  0  0  0
 12 53  1  0  0  0
 13 14  1  0  0  0
 13 27  1  0  0  0
 13 48  1  0  0  0
 14 15  1  0  0  0
 14 37  1  0  0  0
 14 47  1  0  0  0
 15 16  2  0  0  0
 15 25  1  0  0  0
 16 17  1  0  0  0
 16 21  1  0  0  0
 17 18  1  0  0  0
 17 19  1  0  0  0
 17 20  1  0  0  0
 21 22  1  0  0  0
 21 23  1  0  0  0
 21 24  1  0  0  0
 25 26  1  0  0  0
 25 35  1  0  0  0
 25 36  1  0  0  0
 26 27  1  0  0  0
 26 33  1  0  0  0
 26 34  1  0  0  0
 27 28  1  0  0  0
 27 32  1  0  0  0
 28 29  1  0  0  0
 28 30  1  0  0  0
 28 31  1  0  0  0
 37 38  1  0  0  0
 37 45  1  0  0  0
 37 46  1  0  0  0
 38 39  1  0  0  0
 38 43  1  0  0  0
 38 44  1  0  0  0
 39 40  2  0  0  0
 39 41  1  0  0  0
 41 42  1  0  0  0
 48 49  1  0  0  0
 48 50  1  0  0  0
 48 51  1  0  0  0
 56 57  2  0  0  0
 56 59  1  0  0  0
 57 58  1  0  0  0
M  END
> <Tumorigenic>
none

> <Score>
43.611885

> <Active/Decoy>
active

> <InChI>
InChI=1S/C24H30O5/c1-15(2)19-9-5-16(3)24(4,20(19)10-11-22(25)26)14-28-18-8-6-17-7-12-23(27)29-21(17)13-18/h6-8,12-13,16,20H,5,9-11,14H2,1-4H3,(H,25,26)/t16-,20-,24-/m0/s1

> <Matching Features>
H:14924486185440016873|HBA:149238150533300697|HBA:14924321692640012300|HBA:14924486112070016868

> <Mol. Index>
883

> <Pharmacophore Match>
Model -1

> <# Confs.>
25

> <Source Database>
Pharm-Screening-input-NANPDB_After_DataWarror.ldb

> <Pharmacophore-Fit Score>
43.61

> <formula>
C24H30O5

> <Mutagenic>
none

> <Reproductive Effective>
none

> <Irritant>
none

$$$$
pinobanksin 3-(E)-caffeate
XX    ILIB03122402103D

 50 53  0  0  1  0              1 V2000
    4.2724    1.6280   -2.6270 O   0  0  0  0  0
    4.5132    1.2457   -1.4886 C   0  0  0  0  0
    5.8373    1.4763   -0.8590 C   0  0  0  0  0
    5.9989    1.1186    0.4862 C   0  0  0  0  0
    5.0008    0.5963    1.2673 O   0  0  0  0  0
    3.6784    0.9035    0.8068 C   0  0  1  0  0
    3.5091    0.4834   -0.6597 C   0  0  1  0  0
    2.2085    0.8536   -1.1303 O   0  0  0  0  0
    1.4289   -0.1362   -1.6113 C   0  0  0  0  0
    1.7144   -1.3173   -1.6886 O   0  0  0  0  0
    0.1165    0.3816   -2.0669 C   0  0  0  0  0
   -0.8450   -0.3940   -2.5898 C   0  0  0  0  0
   -2.1508    0.0972   -3.0423 C   0  0  0  0  0
   -3.3132   -0.4131   -2.4221 C   0  0  0  0  0
   -4.5808    0.0280   -2.8142 C   0  0  0  0  0
   -5.6492   -0.5100   -2.1551 O   0  0  0  0  0
   -6.4538   -0.0144   -2.3748 H   0  0  0  0  0
   -4.7081    0.9762   -3.8254 C   0  0  0  0  0
   -5.9119    1.4325   -4.2756 O   0  0  0  0  0
   -6.6269    0.8841   -3.9159 H   0  0  0  0  0
   -3.5673    1.4961   -4.4332 C   0  0  0  0  0
   -2.2998    1.0597   -4.0396 C   0  0  0  0  0
   -1.4324    1.4879   -4.5384 H   0  0  0  0  0
   -3.6539    2.2397   -5.2207 H   0  0  0  0  0
   -3.2345   -1.1554   -1.6299 H   0  0  0  0  0
   -0.6994   -1.4678   -2.6805 H   0  0  0  0  0
   -0.0175    1.4530   -1.9488 H   0  0  0  0  0
    3.7048   -0.5880   -0.8029 H   0  0  0  0  0
    2.7220    0.1930    1.7250 C   0  0  0  0  0
    1.4451    0.7150    1.9794 C   0  0  0  0  0
    0.5616    0.0469    2.8298 C   0  0  0  0  0
    0.9444   -1.1478    3.4345 C   0  0  0  0  0
    2.2104   -1.6763    3.1885 C   0  0  0  0  0
    3.0945   -1.0107    2.3390 C   0  0  0  0  0
    4.0771   -1.4394    2.1590 H   0  0  0  0  0
    2.5093   -2.6090    3.6590 H   0  0  0  0  0
    0.2569   -1.6680    4.0947 H   0  0  0  0  0
   -0.4248    0.4595    3.0174 H   0  0  0  0  0
    1.1300    1.6462    1.5159 H   0  0  0  0  0
    3.5179    1.9872    0.9123 H   0  0  0  0  0
    7.2426    1.2562    1.1088 C   0  0  0  0  0
    8.3145    1.7829    0.3960 C   0  0  0  0  0
    9.5145    1.9159    1.0361 O   0  0  0  0  0
   10.1593    2.2918    0.4116 H   0  0  0  0  0
    8.1663    2.1654   -0.9340 C   0  0  0  0  0
    6.9281    2.0073   -1.5618 C   0  0  0  0  0
    6.8726    2.3884   -2.8750 O   0  0  0  0  0
    5.9796    2.2236   -3.2188 H   0  0  0  0  0
    9.0080    2.5742   -1.4855 H   0  0  0  0  0
    7.3679    0.9619    2.1467 H   0  0  0  0  0
  1  2  2  0  0  0
  2  3  1  0  0  0
  2  7  1  0  0  0
  3  4  2  0  0  0
  3 46  1  0  0  0
  4  5  1  0  0  0
  4 41  1  0  0  0
  5  6  1  0  0  0
  6  7  1  0  0  0
  6 29  1  0  0  0
  6 40  1  0  0  0
  7  8  1  0  0  0
  7 28  1  0  0  0
  8  9  1  0  0  0
  9 10  2  0  0  0
  9 11  1  0  0  0
 11 12  2  0  0  0
 11 27  1  0  0  0
 12 13  1  0  0  0
 12 26  1  0  0  0
 13 14  2  0  0  0
 13 22  1  0  0  0
 14 15  1  0  0  0
 14 25  1  0  0  0
 15 16  1  0  0  0
 15 18  2  0  0  0
 16 17  1  0  0  0
 18 19  1  0  0  0
 18 21  1  0  0  0
 19 20  1  0  0  0
 21 22  2  0  0  0
 21 24  1  0  0  0
 22 23  1  0  0  0
 29 30  2  0  0  0
 29 34  1  0  0  0
 30 31  1  0  0  0
 30 39  1  0  0  0
 31 32  2  0  0  0
 31 38  1  0  0  0
 32 33  1  0  0  0
 32 37  1  0  0  0
 33 34  2  0  0  0
 33 36  1  0  0  0
 34 35  1  0  0  0
 41 42  2  0  0  0
 41 50  1  0  0  0
 42 43  1  0  0  0
 42 45  1  0  0  0
 43 44  1  0  0  0
 45 46  2  0  0  0
 45 49  1  0  0  0
 46 47  1  0  0  0
 47 48  1  0  0  0
M  END
> <Tumorigenic>
none

> <Score>
43.599056

> <Active/Decoy>
active

> <InChI>
InChI=1S/C24H18O8/c25-15-11-18(28)21-19(12-15)31-23(14-4-2-1-3-5-14)24(22(21)30)32-20(29)9-7-13-6-8-16(26)17(27)10-13/h1-12,23-28H/b9-7+/t23-,24+/m1/s1

> <Matching Features>
H:14924486185440016873|HBA:149238150533300697|HBA:14924321692640012300|HBA:14924486112070016868

> <Mol. Index>
700

> <Pharmacophore Match>
Model -1

> <# Confs.>
25

> <Source Database>
Pharm-Screening-input-NANPDB_After_DataWarror.ldb

> <Pharmacophore-Fit Score>
43.6

> <formula>
C24H18O8

> <Mutagenic>
none

> <Reproductive Effective>
none

> <Irritant>
none

$$$$
loganin
XX    ILIB03122402103D

 53 55  0  0  1  0              1 V2000
    4.9002    1.9249   -2.0666 O   0  0  0  0  0
    3.8505    2.1933   -2.6362 C   0  0  0  0  0
    3.6936    3.0455   -3.6788 O   0  0  0  0  0
    4.8928    3.6783   -4.1364 C   0  0  0  0  0
    5.3147    4.3041   -3.3441 H   0  0  0  0  0
    4.6385    4.3135   -4.9883 H   0  0  0  0  0
    5.6168    2.9262   -4.4624 H   0  0  0  0  0
    2.5667    1.5880   -2.2337 C   0  0  0  0  0
    1.6467    1.4216   -3.1939 C   0  0  0  0  0
    0.4006    0.8772   -3.0273 O   0  0  0  0  0
   -0.0487    0.8439   -1.6688 C   0  0  1  0  0
   -1.2018   -0.0057   -1.5461 O   0  0  0  0  0
   -2.2929    0.3806   -2.3863 C   0  0  2  0  0
   -2.7435    1.7103   -2.0656 O   0  0  0  0  0
   -3.8320    2.1389   -2.8917 C   0  0  1  0  0
   -5.0508    1.2512   -2.6325 C   0  0  1  0  0
   -6.1044    1.6253   -3.5138 O   0  0  0  0  0
   -6.8546    1.0296   -3.3395 H   0  0  0  0  0
   -4.7043   -0.2204   -2.8616 C   0  0  2  0  0
   -5.7866   -1.0359   -2.4095 O   0  0  0  0  0
   -5.9079   -0.8727   -1.4588 H   0  0  0  0  0
   -3.4307   -0.6103   -2.1152 C   0  0  1  0  0
   -3.0275   -1.9071   -2.5793 O   0  0  0  0  0
   -2.1866   -2.1225   -2.1407 H   0  0  0  0  0
   -3.6276   -0.7060   -1.0470 H   0  0  0  0  0
   -4.6023   -0.4245   -3.9338 H   0  0  0  0  0
   -5.4110    1.3910   -1.6053 H   0  0  0  0  0
   -4.1141    3.5919   -2.5535 C   0  0  0  0  0
   -4.4621    3.7068   -1.1777 O   0  0  0  0  0
   -3.7236    3.3427   -0.6610 H   0  0  0  0  0
   -3.2411    4.2280   -2.7329 H   0  0  0  0  0
   -4.9554    3.9748   -3.1402 H   0  0  0  0  0
   -3.5209    2.0827   -3.9436 H   0  0  0  0  0
   -1.9832    0.3315   -3.4314 H   0  0  0  0  0
    1.0129    0.3088   -0.7018 C   0  0  2  0  0
    0.6368    0.4489    0.7753 C   0  0  2  0  0
    0.9943    1.9117    1.0703 C   0  0  1  0  0
    1.2472    2.1670    2.4395 O   0  0  0  0  0
    0.4442    1.9287    2.9333 H   0  0  0  0  0
    2.2293    2.2204    0.2203 C   0  0  0  0  0
    2.3275    1.1028   -0.8343 C   0  0  2  0  0
    3.1508    0.4334   -0.5514 H   0  0  0  0  0
    2.1298    3.2137   -0.2325 H   0  0  0  0  0
    3.1385    2.2461    0.8318 H   0  0  0  0  0
    0.1733    2.5683    0.7583 H   0  0  0  0  0
    1.3890   -0.5489    1.6617 C   0  0  0  0  0
    2.4730   -0.4060    1.6193 H   0  0  0  0  0
    1.1709   -1.5764    1.3523 H   0  0  0  0  0
    1.0784   -0.4488    2.7059 H   0  0  0  0  0
   -0.4345    0.2846    0.9381 H   0  0  0  0  0
    1.2053   -0.7446   -0.9631 H   0  0  0  0  0
   -0.3533    1.8690   -1.3868 H   0  0  0  0  0
    1.7920    1.6712   -4.2361 H   0  0  0  0  0
  1  2  2  0  0  0
  2  3  1  0  0  0
  2  8  1  0  0  0
  3  4  1  0  0  0
  4  5  1  0  0  0
  4  6  1  0  0  0
  4  7  1  0  0  0
  8  9  2  0  0  0
  8 41  1  0  0  0
  9 10  1  0  0  0
  9 53  1  0  0  0
 10 11  1  0  0  0
 11 12  1  0  0  0
 11 35  1  0  0  0
 11 52  1  0  0  0
 12 13  1  0  0  0
 13 14  1  0  0  0
 13 22  1  0  0  0
 13 34  1  0  0  0
 14 15  1  0  0  0
 15 16  1  0  0  0
 15 28  1  0  0  0
 15 33  1  0  0  0
 16 17  1  0  0  0
 16 19  1  0  0  0
 16 27  1  0  0  0
 17 18  1  0  0  0
 19 20  1  0  0  0
 19 22  1  0  0  0
 19 26  1  0  0  0
 20 21  1  0  0  0
 22 23  1  0  0  0
 22 25  1  0  0  0
 23 24  1  0  0  0
 28 29  1  0  0  0
 28 31  1  0  0  0
 28 32  1  0  0  0
 29 30  1  0  0  0
 35 36  1  0  0  0
 35 41  1  0  0  0
 35 51  1  0  0  0
 36 37  1  0  0  0
 36 46  1  0  0  0
 36 50  1  0  0  0
 37 38  1  0  0  0
 37 40  1  0  0  0
 37 45  1  0  0  0
 38 39  1  0  0  0
 40 41  1  0  0  0
 40 43  1  0  0  0
 40 44  1  0  0  0
 41 42  1  0  0  0
 46 47  1  0  0  0
 46 48  1  0  0  0
 46 49  1  0  0  0
M  END
> <Tumorigenic>
none

> <Score>
43.592102

> <Active/Decoy>
active

> <InChI>
InChI=1S/C17H26O10/c1-6-9(19)3-7-8(15(23)24-2)5-25-16(11(6)7)27-17-14(22)13(21)12(20)10(4-18)26-17/h5-7,9-14,16-22H,3-4H2,1-2H3/t6-,7+,9-,10+,11+,12+,13-,14+,16-,17-/m0/s1

> <Matching Features>
H:14924486185440016873|HBA:149238150533300697|HBA:14924321692640012300|HBA:14924486112070016868

> <Mol. Index>
464

> <Pharmacophore Match>
Model -1

> <# Confs.>
25

> <Source Database>
Pharm-Screening-input-NANPDB_After_DataWarror.ldb

> <Pharmacophore-Fit Score>
43.59

> <formula>
C17H26O10

> <Mutagenic>
none

> <Reproductive Effective>
none

> <Irritant>
none

$$$$
sipholenol K
XX    ILIB03122402103D

 85 88  0  0  1  0              1 V2000
    4.5671    1.8801   -1.8939 O   0  0  0  0  0
    3.5518    1.2063   -1.7115 C   0  0  0  0  0
    2.4894    1.1494   -2.7635 C   0  0  0  0  0
    1.5317    0.1857   -2.6874 C   0  0  0  0  0
    1.5087   -0.8604   -1.5867 C   0  0  1  0  0
    2.1631   -2.2506   -1.9513 C   0  0  0  0  0
    2.1222   -3.1834   -0.7130 C   0  0  0  0  0
    2.6775   -2.5543    0.5636 C   0  0  0  0  0
    1.9658   -1.2411    0.9153 C   0  0  2  0  0
    0.5900   -1.5622    1.1736 O   0  0  0  0  0
    0.1300   -0.7398    1.4140 H   0  0  0  0  0
    2.0170   -0.2308   -0.2599 C   0  0  1  0  0
    3.3750    0.4534   -0.4151 C   0  0  0  0  0
    3.4910    1.1915    0.3889 H   0  0  0  0  0
    4.2046   -0.2516   -0.3213 H   0  0  0  0  0
    1.2981    0.5702   -0.0214 H   0  0  0  0  0
    2.5341   -0.6707    2.2215 C   0  0  0  0  0
    3.6122   -0.4993    2.1638 H   0  0  0  0  0
    2.0439    0.2750    2.4780 H   0  0  0  0  0
    2.3430   -1.3536    3.0569 H   0  0  0  0  0
    3.7568   -2.3984    0.4646 H   0  0  0  0  0
    2.5377   -3.2774    1.3763 H   0  0  0  0  0
    2.6754   -4.1088   -0.9187 H   0  0  0  0  0
    1.0854   -3.4931   -0.5260 H   0  0  0  0  0
    3.6107   -2.1517   -2.4732 C   0  0  0  0  0
    3.9822   -3.1410   -2.7703 H   0  0  0  0  0
    3.6804   -1.5117   -3.3584 H   0  0  0  0  0
    4.3112   -1.7779   -1.7278 H   0  0  0  0  0
    1.3563   -2.9619   -3.0653 C   0  0  0  0  0
    1.7168   -3.9855   -3.2206 H   0  0  0  0  0
    0.2940   -3.0282   -2.8077 H   0  0  0  0  0
    1.4487   -2.4447   -4.0259 H   0  0  0  0  0
    0.4446   -1.0707   -1.3959 H   0  0  0  0  0
    0.3851    0.1551   -3.6737 C   0  0  0  0  0
   -0.8355    0.9345   -3.2103 C   0  0  0  0  0
   -2.0470    0.9359   -4.1476 C   0  0  2  0  0
   -1.7086    1.5368   -5.5598 C   0  0  1  0  0
   -0.7686    0.6695   -6.2212 O   0  0  0  0  0
   -1.1616   -0.2185   -6.2759 H   0  0  0  0  0
   -2.9528    1.5581   -6.4536 C   0  0  0  0  0
   -4.0976    2.3165   -5.8166 C   0  0  0  0  0
   -4.5247    1.7060   -4.4840 C   0  0  1  0  0
   -5.1459    0.4458   -4.7531 O   0  0  0  0  0
   -6.3571    0.1708   -4.0260 C   0  0  0  0  0
   -6.4844   -1.3605   -3.9922 C   0  0  0  0  0
   -7.4340   -1.6865   -3.5584 H   0  0  0  0  0
   -5.6716   -1.8138   -3.4153 H   0  0  0  0  0
   -6.4094   -1.7789   -5.0017 H   0  0  0  0  0
   -7.5233    0.7225   -4.8623 C   0  0  0  0  0
   -8.4959    0.4680   -4.4284 H   0  0  0  0  0
   -7.4882    0.3288   -5.8847 H   0  0  0  0  0
   -7.4629    1.8127   -4.9516 H   0  0  0  0  0
   -6.3947    0.7766   -2.5970 C   0  0  1  0  0
   -7.5572    0.3104   -1.9034 O   0  0  0  0  0
   -7.5654    0.7312   -1.0265 H   0  0  0  0  0
   -5.1666    0.5288   -1.7149 C   0  0  0  0  0
   -3.7992    0.4143   -2.3914 C   0  0  0  0  0
   -3.3744    1.4933   -3.4528 C   0  0  1  0  0
   -3.1412    2.8256   -2.7096 C   0  0  0  0  0
   -4.0620    3.1729   -2.2299 H   0  0  0  0  0
   -2.8178    3.6233   -3.3785 H   0  0  0  0  0
   -2.3953    2.7267   -1.9148 H   0  0  0  0  0
   -3.0607    0.3863   -1.5815 H   0  0  0  0  0
   -3.7475   -0.5795   -2.8534 H   0  0  0  0  0
   -5.1249    1.3255   -0.9609 H   0  0  0  0  0
   -5.3252   -0.3881   -1.1296 H   0  0  0  0  0
   -6.5329    1.8614   -2.6661 H   0  0  0  0  0
   -5.2622    2.4155   -4.0952 H   0  0  0  0  0
   -4.9472    2.2991   -6.5097 H   0  0  0  0  0
   -3.8275    3.3683   -5.6783 H   0  0  0  0  0
   -3.2676    0.5310   -6.6791 H   0  0  0  0  0
   -2.7112    1.9994   -7.4292 H   0  0  0  0  0
   -1.0248    2.9091   -5.5435 C   0  0  0  0  0
   -1.6318    3.6906   -5.0883 H   0  0  0  0  0
   -0.7921    3.2296   -6.5665 H   0  0  0  0  0
   -0.0603    2.8727   -5.0272 H   0  0  0  0  0
   -2.2401   -0.1237   -4.3476 H   0  0  0  0  0
   -0.5359    1.9860   -3.0135 H   0  0  0  0  0
   -1.1549    0.5403   -2.2360 H   0  0  0  0  0
    0.0768   -0.8897   -3.8123 H   0  0  0  0  0
    0.7263    0.5108   -4.6396 H   0  0  0  0  0
    2.6029    2.2111   -3.8219 C   0  0  0  0  0
    3.5143    2.0585   -4.4112 H   0  0  0  0  0
    1.7632    2.2283   -4.5193 H   0  0  0  0  0
    2.6529    3.2028   -3.3600 H   0  0  0  0  0
  1  2  2  0  0  0
  2  3  1  0  0  0
  2 13  1  0  0  0
  3  4  2  0  0  0
  3 82  1  0  0  0
  4  5  1  0  0  0
  4 34  1  0  0  0
  5  6  1  0  0  0
  5 12  1  0  0  0
  5 33  1  0  0  0
  6  7  1  0  0  0
  6 25  1  0  0  0
  6 29  1  0  0  0
  7  8  1  0  0  0
  7 23  1  0  0  0
  7 24  1  0  0  0
  8  9  1  0  0  0
  8 21  1  0  0  0
  8 22  1  0  0  0
  9 10  1  0  0  0
  9 12  1  0  0  0
  9 17  1  0  0  0
 10 11  1  0  0  0
 12 13  1  0  0  0
 12 16  1  0  0  0
 13 14  1  0  0  0
 13 15  1  0  0  0
 17 18  1  0  0  0
 17 19  1  0  0  0
 17 20  1  0  0  0
 25 26  1  0  0  0
 25 27  1  0  0  0
 25 28  1  0  0  0
 29 30  1  0  0  0
 29 31  1  0  0  0
 29 32  1  0  0  0
 34 35  1  0  0  0
 34 80  1  0  0  0
 34 81  1  0  0  0
 35 36  1  0  0  0
 35 78  1  0  0  0
 35 79  1  0  0  0
 36 37  1  0  0  0
 36 58  1  0  0  0
 36 77  1  0  0  0
 37 38  1  0  0  0
 37 40  1  0  0  0
 37 73  1  0  0  0
 38 39  1  0  0  0
 40 41  1  0  0  0
 40 71  1  0  0  0
 40 72  1  0  0  0
 41 42  1  0  0  0
 41 69  1  0  0  0
 41 70  1  0  0  0
 42 43  1  0  0  0
 42 58  1  0  0  0
 42 68  1  0  0  0
 43 44  1  0  0  0
 44 45  1  0  0  0
 44 49  1  0  0  0
 44 53  1  0  0  0
 45 46  1  0  0  0
 45 47  1  0  0  0
 45 48  1  0  0  0
 49 50  1  0  0  0
 49 51  1  0  0  0
 49 52  1  0  0  0
 53 54  1  0  0  0
 53 56  1  0  0  0
 53 67  1  0  0  0
 54 55  1  0  0  0
 56 57  1  0  0  0
 56 65  1  0  0  0
 56 66  1  0  0  0
 57 58  1  0  0  0
 57 63  1  0  0  0
 57 64  1  0  0  0
 58 59  1  0  0  0
 59 60  1  0  0  0
 59 61  1  0  0  0
 59 62  1  0  0  0
 73 74  1  0  0  0
 73 75  1  0  0  0
 73 76  1  0  0  0
 82 83  1  0  0  0
 82 84  1  0  0  0
 82 85  1  0  0  0
M  END
> <Tumorigenic>
none

> <Score>
43.57855

> <Active/Decoy>
active

> <InChI>
InChI=1S/C30H50O5/c1-18-19(25-20(17-21(18)31)29(7,33)16-15-26(25,2)3)9-10-22-28(6)13-11-23(32)27(4,5)35-24(28)12-14-30(22,8)34/h20,22-25,32-34H,9-17H2,1-8H3/t20-,22-,23-,24+,25+,28-,29-,30-/m0/s1

> <Matching Features>
H:14924486185440016873|HBA:149238150533300697|HBA:14924321692640012300|HBA:14924486112070016868

> <Mol. Index>
156

> <Pharmacophore Match>
Model -1

> <# Confs.>
15

> <Source Database>
Pharm-Screening-input-NANPDB_After_DataWarror.ldb

> <Pharmacophore-Fit Score>
43.58

> <formula>
C30H50O5

> <Mutagenic>
none

> <Reproductive Effective>
none

> <Irritant>
none

$$$$
2beta-hydroxy-6-p-benzoyloxybenzoyllancerodiol
XX    ILIB03122402103D

 56 58  0  0  1  0              1 V2000
    1.1043   -2.1286   -4.0829 O   0  0  0  0  0
    1.7163   -2.1581   -3.0176 C   0  0  0  0  0
    1.6173   -3.3361   -2.1266 C   0  0  0  0  0
    1.1787   -3.1666   -0.8721 C   0  0  0  0  0
    0.6854   -1.9042   -0.2125 C   0  0  2  0  0
   -0.5724   -1.5746   -0.8025 O   0  0  0  0  0
   -1.5285   -1.1251    0.0287 C   0  0  0  0  0
   -1.4296   -0.9577    1.2335 O   0  0  0  0  0
   -2.7639   -0.8444   -0.7280 C   0  0  0  0  0
   -3.8868   -0.3650   -0.0422 C   0  0  0  0  0
   -5.0689   -0.0978   -0.7332 C   0  0  0  0  0
   -5.1200   -0.2956   -2.1105 C   0  0  0  0  0
   -6.2585   -0.0263   -2.8181 O   0  0  0  0  0
   -6.9332    0.3050   -2.2018 H   0  0  0  0  0
   -4.0115   -0.7733   -2.8024 C   0  0  0  0  0
   -2.8296   -1.0495   -2.1110 C   0  0  0  0  0
   -1.9790   -1.4194   -2.6753 H   0  0  0  0  0
   -4.0557   -0.9278   -3.8770 H   0  0  0  0  0
   -5.9355    0.2728   -0.1912 H   0  0  0  0  0
   -3.8714   -0.2229    1.0356 H   0  0  0  0  0
    1.6128   -0.6497   -0.2133 C   0  0  1  0  0
    2.9637   -0.7634    0.5765 C   0  0  2  0  0
    3.5340   -2.0635    0.4079 O   0  0  0  0  0
    4.3932   -2.0767    0.8635 H   0  0  0  0  0
    2.8495   -0.4976    2.0892 C   0  0  0  0  0
    2.2493    0.8730    2.4166 C   0  0  0  0  0
    1.2278    0.9685    2.0353 H   0  0  0  0  0
    2.2135    1.0252    3.5006 H   0  0  0  0  0
    2.8508    1.6826    1.9922 H   0  0  0  0  0
    2.0390   -1.5959    2.7818 C   0  0  0  0  0
    2.4686   -2.5824    2.5805 H   0  0  0  0  0
    0.9963   -1.6021    2.4468 H   0  0  0  0  0
    2.0382   -1.4476    3.8666 H   0  0  0  0  0
    3.8633   -0.5235    2.5118 H   0  0  0  0  0
    3.9156    0.2525   -0.1012 C   0  0  0  0  0
    3.0700    0.9897   -1.1352 C   0  0  1  0  0
    3.8662    1.4890   -2.1941 O   0  0  0  0  0
    4.5327    2.0797   -1.8053 H   0  0  0  0  0
    2.0188   -0.0468   -1.6027 C   0  0  1  0  0
    2.6473   -1.0494   -2.5897 C   0  0  0  0  0
    2.9696   -0.5368   -3.5057 H   0  0  0  0  0
    3.5566   -1.5121   -2.1891 H   0  0  0  0  0
    0.8629    0.6972   -2.2966 C   0  0  0  0  0
    0.0772    0.0188   -2.6388 H   0  0  0  0  0
    0.3967    1.4262   -1.6246 H   0  0  0  0  0
    1.2231    1.2464   -3.1737 H   0  0  0  0  0
    2.5753    1.8459   -0.6575 H   0  0  0  0  0
    4.3475    0.9731    0.6028 H   0  0  0  0  0
    4.7682   -0.2452   -0.5791 H   0  0  0  0  0
    1.0251    0.1393    0.2657 H   0  0  0  0  0
    0.5079   -2.1667    0.8298 H   0  0  0  0  0
    1.1052   -4.0530   -0.2433 H   0  0  0  0  0
    1.9984   -4.6560   -2.7146 C   0  0  0  0  0
    1.9212   -5.4666   -1.9830 H   0  0  0  0  0
    3.0323   -4.6273   -3.0723 H   0  0  0  0  0
    1.3466   -4.9039   -3.5584 H   0  0  0  0  0
  1  2  2  0  0  0
  2  3  1  0  0  0
  2 40  1  0  0  0
  3  4  2  0  0  0
  3 53  1  0  0  0
  4  5  1  0  0  0
  4 52  1  0  0  0
  5  6  1  0  0  0
  5 21  1  0  0  0
  5 51  1  0  0  0
  6  7  1  0  0  0
  7  8  2  0  0  0
  7  9  1  0  0  0
  9 10  2  0  0  0
  9 16  1  0  0  0
 10 11  1  0  0  0
 10 20  1  0  0  0
 11 12  2  0  0  0
 11 19  1  0  0  0
 12 13  1  0  0  0
 12 15  1  0  0  0
 13 14  1  0  0  0
 15 16  2  0  0  0
 15 18  1  0  0  0
 16 17  1  0  0  0
 21 22  1  0  0  0
 21 39  1  0  0  0
 21 50  1  0  0  0
 22 23  1  0  0  0
 22 25  1  0  0  0
 22 35  1  0  0  0
 23 24  1  0  0  0
 25 26  1  0  0  0
 25 30  1  0  0  0
 25 34  1  0  0  0
 26 27  1  0  0  0
 26 28  1  0  0  0
 26 29  1  0  0  0
 30 31  1  0  0  0
 30 32  1  0  0  0
 30 33  1  0  0  0
 35 36  1  0  0  0
 35 48  1  0  0  0
 35 49  1  0  0  0
 36 37  1  0  0  0
 36 39  1  0  0  0
 36 47  1  0  0  0
 37 38  1  0  0  0
 39 40  1  0  0  0
 39 43  1  0  0  0
 40 41  1  0  0  0
 40 42  1  0  0  0
 43 44  1  0  0  0
 43 45  1  0  0  0
 43 46  1  0  0  0
 53 54  1  0  0  0
 53 55  1  0  0  0
 53 56  1  0  0  0
M  END
> <Tumorigenic>
none

> <Score>
43.56412

> <Active/Decoy>
active

> <InChI>
InChI=1S/C22H28O6/c1-12(2)22(27)11-18(25)21(4)10-16(24)13(3)9-17(19(21)22)28-20(26)14-5-7-15(23)8-6-14/h5-9,12,17-19,23,25,27H,10-11H2,1-4H3/t17-,18+,19+,21+,22+/m0/s1

> <Matching Features>
H:14924486185440016873|HBA:149238150533300697|HBA:14924321692640012300|HBA:14924486112070016868

> <Mol. Index>
901

> <Pharmacophore Match>
Model -1

> <# Confs.>
25

> <Source Database>
Pharm-Screening-input-NANPDB_After_DataWarror.ldb

> <Pharmacophore-Fit Score>
43.56

> <formula>
C22H28O6

> <Mutagenic>
none

> <Reproductive Effective>
none

> <Irritant>
none

$$$$
khayanone
XX    ILIB03122402103D

 70 74  0  0  1  0              1 V2000
   -0.7247   -1.1822   -5.0020 O   0  0  0  0  0
   -1.3155   -0.1080   -4.9153 C   0  0  0  0  0
   -2.5109    0.1411   -3.9991 C   0  0  1  0  0
   -2.2034    1.4427   -3.1288 C   0  0  2  0  0
   -0.8114    2.1078   -3.3950 C   0  0  1  0  0
   -0.8921    3.4556   -2.8992 O   0  0  0  0  0
   -0.0878    3.9299   -3.1668 H   0  0  0  0  0
    0.3268    1.3529   -2.6208 C   0  0  2  0  0
    0.0945    1.2322   -1.0781 C   0  0  2  0  0
    1.1877    0.2300   -0.5917 C   0  0  1  0  0
    2.5231    0.7010   -0.9018 O   0  0  0  0  0
    2.8452    1.2885   -2.0724 C   0  0  0  0  0
    1.7344    1.8959   -2.8912 C   0  0  0  0  0
    1.7789    2.9781   -2.7314 H   0  0  0  0  0
    1.9981    1.6973   -3.9351 H   0  0  0  0  0
    4.0186    1.4100   -2.4181 O   0  0  0  0  0
    1.1172   -0.1434    0.8451 C   0  0  0  0  0
    0.3130   -1.1116    1.4131 C   0  0  0  0  0
    0.5044   -1.1809    2.7541 O   0  0  0  0  0
    1.4407   -0.2476    3.0632 C   0  0  0  0  0
    1.8479    0.4167    1.9291 C   0  0  0  0  0
    2.5835    1.2077    1.8882 H   0  0  0  0  0
    1.7046   -0.1765    4.1081 H   0  0  0  0  0
   -0.4153   -1.8013    1.0126 H   0  0  0  0  0
    1.0815   -0.7102   -1.1527 H   0  0  0  0  0
   -1.3160    0.6594   -0.8107 C   0  0  0  0  0
   -2.4344    1.3327   -1.6009 C   0  0  0  0  0
   -2.5643    2.3476   -1.2025 H   0  0  0  0  0
   -3.3849    0.8359   -1.3835 H   0  0  0  0  0
   -1.5595    0.7461    0.2576 H   0  0  0  0  0
   -1.3178   -0.4130   -1.0124 H   0  0  0  0  0
    0.2395    2.5778   -0.3219 C   0  0  0  0  0
    1.2242    3.0343   -0.4578 H   0  0  0  0  0
    0.0973    2.4425    0.7554 H   0  0  0  0  0
   -0.5096    3.3146   -0.6191 H   0  0  0  0  0
    0.3348    0.3254   -3.0077 H   0  0  0  0  0
   -0.5693    2.2642   -4.9152 C   0  0  0  0  0
   -0.9334    1.0574   -5.7704 C   0  0  2  0  0
   -2.0577    1.4102   -6.7201 C   0  0  0  0  0
   -1.7843    1.8380   -7.8456 O   0  0  0  0  0
   -3.5152    1.3430   -6.2129 C   0  0  0  0  0
   -3.7273    0.2916   -5.0194 C   0  0  2  0  0
   -5.1102    0.4279   -4.4114 C   0  0  2  0  0
   -5.1597    1.5558   -3.5629 O   0  0  0  0  0
   -5.0208    2.3395   -4.1217 H   0  0  0  0  0
   -5.4354   -0.8015   -3.5563 C   0  0  0  0  0
   -5.6846   -0.7359   -2.3580 O   0  0  0  0  0
   -5.3790   -1.9438   -4.2960 O   0  0  0  0  0
   -5.6388   -3.1519   -3.5739 C   0  0  0  0  0
   -4.8797   -3.2992   -2.7998 H   0  0  0  0  0
   -5.5896   -3.9864   -4.2778 H   0  0  0  0  0
   -6.6399   -3.1228   -3.1334 H   0  0  0  0  0
   -5.8929    0.5254   -5.1630 H   0  0  0  0  0
   -3.7320   -0.6696   -5.5580 H   0  0  0  0  0
   -3.9624    2.7815   -5.8955 C   0  0  0  0  0
   -3.8302    3.4307   -6.7708 H   0  0  0  0  0
   -5.0196    2.8371   -5.6204 H   0  0  0  0  0
   -3.3818    3.2427   -5.0970 H   0  0  0  0  0
   -4.3584    0.8670   -7.4307 C   0  0  0  0  0
   -4.0234   -0.1170   -7.7788 H   0  0  0  0  0
   -4.2643    1.5535   -8.2803 H   0  0  0  0  0
   -5.4247    0.7977   -7.1983 H   0  0  0  0  0
   -0.0701    0.7596   -6.3792 H   0  0  0  0  0
    0.4721    2.5415   -5.1129 H   0  0  0  0  0
   -1.1117    3.1517   -5.2706 H   0  0  0  0  0
   -2.9439    2.1890   -3.4243 H   0  0  0  0  0
   -2.7091   -1.1425   -3.1736 C   0  0  0  0  0
   -3.0051   -1.9802   -3.8171 H   0  0  0  0  0
   -1.7794   -1.4662   -2.6975 H   0  0  0  0  0
   -3.4764   -1.0449   -2.4029 H   0  0  0  0  0
  1  2  2  0  0  0
  2  3  1  0  0  0
  2 38  1  0  0  0
  3  4  1  0  0  0
  3 42  1  0  0  0
  3 67  1  0  0  0
  4  5  1  0  0  0
  4 27  1  0  0  0
  4 66  1  0  0  0
  5  6  1  0  0  0
  5  8  1  0  0  0
  5 37  1  0  0  0
  6  7  1  0  0  0
  8  9  1  0  0  0
  8 13  1  0  0  0
  8 36  1  0  0  0
  9 10  1  0  0  0
  9 26  1  0  0  0
  9 32  1  0  0  0
 10 11  1  0  0  0
 10 17  1  0  0  0
 10 25  1  0  0  0
 11 12  1  0  0  0
 12 13  1  0  0  0
 12 16  2  0  0  0
 13 14  1  0  0  0
 13 15  1  0  0  0
 17 18  2  0  0  0
 17 21  1  0  0  0
 18 19  1  0  0  0
 18 24  1  0  0  0
 19 20  1  0  0  0
 20 21  2  0  0  0
 20 23  1  0  0  0
 21 22  1  0  0  0
 26 27  1  0  0  0
 26 30  1  0  0  0
 26 31  1  0  0  0
 27 28  1  0  0  0
 27 29  1  0  0  0
 32 33  1  0  0  0
 32 34  1  0  0  0
 32 35  1  0  0  0
 37 38  1  0  0  0
 37 64  1  0  0  0
 37 65  1  0  0  0
 38 39  1  0  0  0
 38 63  1  0  0  0
 39 40  2  0  0  0
 39 41  1  0  0  0
 41 42  1  0  0  0
 41 55  1  0  0  0
 41 59  1  0  0  0
 42 43  1  0  0  0
 42 54  1  0  0  0
 43 44  1  0  0  0
 43 46  1  0  0  0
 43 53  1  0  0  0
 44 45  1  0  0  0
 46 47  2  0  0  0
 46 48  1  0  0  0
 48 49  1  0  0  0
 49 50  1  0  0  0
 49 51  1  0  0  0
 49 52  1  0  0  0
 55 56  1  0  0  0
 55 57  1  0  0  0
 55 58  1  0  0  0
 59 60  1  0  0  0
 59 61  1  0  0  0
 59 62  1  0  0  0
 67 68  1  0  0  0
 67 69  1  0  0  0
 67 70  1  0  0  0
M  END
> <Tumorigenic>
none

> <Score>
43.55709

> <Active/Decoy>
active

> <InChI>
InChI=1S/C27H34O9/c1-24(2)19(18(29)23(32)34-5)26(4)15-6-8-25(3)16(27(15,33)11-14(20(24)30)21(26)31)10-17(28)36-22(25)13-7-9-35-12-13/h7,9,12,14-16,18-19,22,29,33H,6,8,10-11H2,1-5H3/t14-,15-,16+,18+,19+,22+,25-,26+,27-/m1/s1

> <Matching Features>
H:14924486185440016873|HBA:149238150533300697|HBA:14924321692640012300|HBA:14924486112070016868

> <Mol. Index>
623

> <Pharmacophore Match>
Model -1

> <# Confs.>
6

> <Source Database>
Pharm-Screening-input-NANPDB_After_DataWarror.ldb

> <Pharmacophore-Fit Score>
43.56

> <formula>
C27H34O9

> <Mutagenic>
none

> <Reproductive Effective>
none

> <Irritant>
none

$$$$
sylvestroside
XX    ILIB03122402103D

 62 64  0  0  1  0              1 V2000
    0.1688   -1.6670   -2.7510 O   0  0  0  0  0
   -0.4990   -0.7237   -2.3680 C   0  0  0  0  0
   -1.6574   -0.2635   -2.9226 O   0  0  0  0  0
   -2.1214   -0.9523   -4.0804 C   0  0  1  0  0
   -3.0647   -2.0913   -3.6761 C   0  0  1  0  0
   -4.4773   -1.4869   -3.7877 C   0  0  1  0  0
   -4.9388   -0.6892   -2.5501 C   0  0  1  0  0
   -6.1932   -0.0254   -2.7890 O   0  0  0  0  0
   -6.2744    0.6431   -3.9829 C   0  0  0  0  0
   -5.4522    0.4860   -5.0303 C   0  0  0  0  0
   -4.3657   -0.5518   -5.0041 C   0  0  1  0  0
   -2.9528    0.0399   -4.9121 C   0  0  0  0  0
   -2.9512    1.0401   -4.4624 H   0  0  0  0  0
   -2.5316    0.1400   -5.9196 H   0  0  0  0  0
   -4.4377   -1.1622   -5.9141 H   0  0  0  0  0
   -5.6298    1.2592   -6.2736 C   0  0  0  0  0
   -4.8842    1.1213   -7.2338 O   0  0  0  0  0
   -6.6928    2.0983   -6.1896 O   0  0  0  0  0
   -6.9403    2.8884   -7.3568 C   0  0  0  0  0
   -6.0925    3.5530   -7.5495 H   0  0  0  0  0
   -7.8285    3.4973   -7.1736 H   0  0  0  0  0
   -7.1288    2.2421   -8.2197 H   0  0  0  0  0
   -7.1282    1.3051   -3.9582 H   0  0  0  0  0
   -5.1540   -1.5837   -1.3319 C   0  0  0  0  0
   -4.2214   -2.0312   -0.9790 H   0  0  0  0  0
   -5.8651   -2.3862   -1.5567 H   0  0  0  0  0
   -5.5854   -1.0064   -0.5071 H   0  0  0  0  0
   -4.2092    0.0830   -2.2797 H   0  0  0  0  0
   -5.2271   -2.2624   -3.9961 H   0  0  0  0  0
   -2.9000   -3.2929   -4.6118 C   0  0  0  0  0
   -3.0574   -3.0273   -5.6617 H   0  0  0  0  0
   -3.6113   -4.0833   -4.3515 H   0  0  0  0  0
   -1.8910   -3.7082   -4.5215 H   0  0  0  0  0
   -2.8589   -2.4366   -2.6588 H   0  0  0  0  0
   -1.2562   -1.3003   -4.6674 H   0  0  0  0  0
   -0.1282    0.0580   -1.1638 C   0  0  0  0  0
   -0.8821    1.0926   -0.7640 C   0  0  0  0  0
   -0.6712    1.8791    0.3333 O   0  0  0  0  0
    0.5654    1.6853    1.0391 C   0  0  2  0  0
    1.0024    0.2009    1.0660 C   0  0  1  0  0
    1.0804   -0.3909   -0.3733 C   0  0  2  0  0
    2.3776   -0.1282   -1.1397 C   0  0  0  0  0
    2.6191    1.3462   -1.4742 C   0  0  0  0  0
    3.8465    1.4823   -2.1847 O   0  0  0  0  0
    3.7847    0.9265   -2.9804 H   0  0  0  0  0
    1.8215    1.7563   -2.1026 H   0  0  0  0  0
    2.6961    1.9492   -0.5640 H   0  0  0  0  0
    2.3646   -0.7065   -2.0725 H   0  0  0  0  0
    3.2254   -0.5014   -0.5523 H   0  0  0  0  0
    1.0124   -1.4823   -0.2532 H   0  0  0  0  0
    2.2605   -0.0150    1.8501 C   0  0  0  0  0
    2.4087   -0.7882    2.9313 C   0  0  0  0  0
    3.3788   -0.8684    3.4141 H   0  0  0  0  0
    1.5904   -1.3529    3.3598 H   0  0  0  0  0
    3.1402    0.5102    1.4857 H   0  0  0  0  0
    0.1905   -0.3491    1.5693 H   0  0  0  0  0
    0.3360    2.2534    2.4414 C   0  0  0  0  0
    1.2506    2.2574    3.0392 H   0  0  0  0  0
   -0.4320    1.6802    2.9729 H   0  0  0  0  0
   -0.0334    3.2837    2.3781 H   0  0  0  0  0
    1.3248    2.3076    0.5519 H   0  0  0  0  0
   -1.7748    1.4357   -1.2702 H   0  0  0  0  0
  1  2  2  0  0  0
  2  3  1  0  0  0
  2 36  1  0  0  0
  3  4  1  0  0  0
  4  5  1  0  0  0
  4 12  1  0  0  0
  4 35  1  0  0  0
  5  6  1  0  0  0
  5 30  1  0  0  0
  5 34  1  0  0  0
  6  7  1  0  0  0
  6 11  1  0  0  0
  6 29  1  0  0  0
  7  8  1  0  0  0
  7 24  1  0  0  0
  7 28  1  0  0  0
  8  9  1  0  0  0
  9 10  2  0  0  0
  9 23  1  0  0  0
 10 11  1  0  0  0
 10 16  1  0  0  0
 11 12  1  0  0  0
 11 15  1  0  0  0
 12 13  1  0  0  0
 12 14  1  0  0  0
 16 17  2  0  0  0
 16 18  1  0  0  0
 18 19  1  0  0  0
 19 20  1  0  0  0
 19 21  1  0  0  0
 19 22  1  0  0  0
 24 25  1  0  0  0
 24 26  1  0  0  0
 24 27  1  0  0  0
 30 31  1  0  0  0
 30 32  1  0  0  0
 30 33  1  0  0  0
 36 37  2  0  0  0
 36 41  1  0  0  0
 37 38  1  0  0  0
 37 62  1  0  0  0
 38 39  1  0  0  0
 39 40  1  0  0  0
 39 57  1  0  0  0
 39 61  1  0  0  0
 40 41  1  0  0  0
 40 51  1  0  0  0
 40 56  1  0  0  0
 41 42  1  0  0  0
 41 50  1  0  0  0
 42 43  1  0  0  0
 42 48  1  0  0  0
 42 49  1  0  0  0
 43 44  1  0  0  0
 43 46  1  0  0  0
 43 47  1  0  0  0
 44 45  1  0  0  0
 51 52  2  0  0  0
 51 55  1  0  0  0
 52 53  1  0  0  0
 52 54  1  0  0  0
 57 58  1  0  0  0
 57 59  1  0  0  0
 57 60  1  0  0  0
M  END
> <Tumorigenic>
none

> <Score>
43.563164

> <Active/Decoy>
active

> <InChI>
InChI=1S/C23H32O7/c1-6-15-13(3)28-10-18(16(15)7-8-24)23(26)30-20-9-17-19(22(25)27-5)11-29-14(4)21(17)12(20)2/h6,10-17,20-21,24H,1,7-9H2,2-5H3/t12-,13-,14-,15-,16-,17+,20+,21-/m0/s1

> <Matching Features>
H:14924486185440016873|HBA:149238150533300697|HBA:14924321692640012300|HBA:14924486112070016868

> <Mol. Index>
461

> <Pharmacophore Match>
Model -1

> <# Confs.>
25

> <Source Database>
Pharm-Screening-input-NANPDB_After_DataWarror.ldb

> <Pharmacophore-Fit Score>
43.56

> <formula>
C23H32O7

> <Mutagenic>
none

> <Reproductive Effective>
none

> <Irritant>
none

$$$$
1-O-caffeoyl-beta-D-glucopyranoside
XX    ILIB03122402103D

 42 43  0  0  1  0              1 V2000
   -3.1130    0.6244    2.0651 O   0  0  0  0  0
   -2.3106    0.4895    1.1593 C   0  0  0  0  0
   -2.5894    0.3472   -0.1525 O   0  0  0  0  0
   -3.9714    0.3541   -0.5288 C   0  0  2  0  0
   -4.5124   -0.9758   -0.5036 O   0  0  0  0  0
   -5.9025   -1.0106   -0.8392 C   0  0  1  0  0
   -6.0963   -0.5386   -2.2830 C   0  0  1  0  0
   -7.4900   -0.4962   -2.5737 O   0  0  0  0  0
   -7.5888   -0.2961   -3.5202 H   0  0  0  0  0
   -5.4918    0.8518   -2.4830 C   0  0  2  0  0
   -5.4502    1.1559   -3.8792 O   0  0  0  0  0
   -6.3674    1.2049   -4.1956 H   0  0  0  0  0
   -4.0649    0.9203   -1.9428 C   0  0  1  0  0
   -3.6580    2.2883   -1.9267 O   0  0  0  0  0
   -2.7665    2.3212   -1.5565 H   0  0  0  0  0
   -3.3821    0.3914   -2.6183 H   0  0  0  0  0
   -6.1168    1.6220   -2.0151 H   0  0  0  0  0
   -5.6295   -1.2465   -2.9800 H   0  0  0  0  0
   -6.3829   -2.4389   -0.6464 C   0  0  0  0  0
   -6.2012   -2.8548    0.6979 O   0  0  0  0  0
   -5.2534   -2.7844    0.9002 H   0  0  0  0  0
   -5.8380   -3.1238   -1.3053 H   0  0  0  0  0
   -7.4428   -2.5338   -0.9008 H   0  0  0  0  0
   -6.4526   -0.3658   -0.1402 H   0  0  0  0  0
   -4.5098    0.9895    0.1862 H   0  0  0  0  0
   -0.8490    0.4688    1.4071 C   0  0  0  0  0
    0.0776    0.3236    0.4469 C   0  0  0  0  0
    1.5234    0.2778    0.6913 C   0  0  0  0  0
    2.4236    0.7448   -0.2841 C   0  0  0  0  0
    3.8013    0.7108   -0.0546 C   0  0  0  0  0
    4.6296    1.1750   -1.0386 O   0  0  0  0  0
    5.5468    1.0829   -0.7285 H   0  0  0  0  0
    4.3054    0.2168    1.1423 C   0  0  0  0  0
    5.6556    0.1961    1.3415 O   0  0  0  0  0
    5.8334   -0.1821    2.2193 H   0  0  0  0  0
    3.4339   -0.2499    2.1211 C   0  0  0  0  0
    2.0550   -0.2171    1.8955 C   0  0  0  0  0
    1.4050   -0.5947    2.6820 H   0  0  0  0  0
    3.8113   -0.6429    3.0604 H   0  0  0  0  0
    2.0669    1.1415   -1.2215 H   0  0  0  0  0
   -0.2173    0.2103   -0.5928 H   0  0  0  0  0
   -0.5711    0.5597    2.4536 H   0  0  0  0  0
  1  2  2  0  0  0
  2  3  1  0  0  0
  2 26  1  0  0  0
  3  4  1  0  0  0
  4  5  1  0  0  0
  4 13  1  0  0  0
  4 25  1  0  0  0
  5  6  1  0  0  0
  6  7  1  0  0  0
  6 19  1  0  0  0
  6 24  1  0  0  0
  7  8  1  0  0  0
  7 10  1  0  0  0
  7 18  1  0  0  0
  8  9  1  0  0  0
 10 11  1  0  0  0
 10 13  1  0  0  0
 10 17  1  0  0  0
 11 12  1  0  0  0
 13 14  1  0  0  0
 13 16  1  0  0  0
 14 15  1  0  0  0
 19 20  1  0  0  0
 19 22  1  0  0  0
 19 23  1  0  0  0
 20 21  1  0  0  0
 26 27  2  0  0  0
 26 42  1  0  0  0
 27 28  1  0  0  0
 27 41  1  0  0  0
 28 29  2  0  0  0
 28 37  1  0  0  0
 29 30  1  0  0  0
 29 40  1  0  0  0
 30 31  1  0  0  0
 30 33  2  0  0  0
 31 32  1  0  0  0
 33 34  1  0  0  0
 33 36  1  0  0  0
 34 35  1  0  0  0
 36 37  2  0  0  0
 36 39  1  0  0  0
 37 38  1  0  0  0
M  END
> <Tumorigenic>
none

> <Score>
43.56418

> <Active/Decoy>
active

> <InChI>
InChI=1S/C15H18O9/c16-6-10-12(20)13(21)14(22)15(23-10)24-11(19)4-2-7-1-3-8(17)9(18)5-7/h1-5,10,12-18,20-22H,6H2/b4-2+/t10-,12-,13+,14-,15+/m1/s1

> <Matching Features>
H:14924486185440016873|HBA:149238150533300697|HBA:14924321692640012300|HBA:14924486112070016868

> <Mol. Index>
240

> <Pharmacophore Match>
Model -1

> <# Confs.>
25

> <Source Database>
Pharm-Screening-input-NANPDB_After_DataWarror.ldb

> <Pharmacophore-Fit Score>
43.56

> <formula>
C15H18O9

> <Mutagenic>
none

> <Reproductive Effective>
none

> <Irritant>
none

$$$$
3-O-acetyl-12beta-hydroxycleocarpanol
XX    ILIB03122402103D

 90 95  0  0  1  0              1 V2000
    4.4792    1.5380   -1.9221 O   0  0  0  0  0
    4.5078    1.3634   -0.7116 C   0  0  0  0  0
    3.4965    0.8844    0.0627 O   0  0  0  0  0
    2.2847    0.5517   -0.6149 C   0  0  1  0  0
    1.5547   -0.6056    0.1215 C   0  0  0  0  0
    0.1653   -0.8592   -0.5763 C   0  0  2  0  0
   -0.7573    0.3892   -0.7780 C   0  0  2  0  0
   -1.8851   -0.0428   -1.8123 C   0  0  1  0  0
   -2.6324   -1.4174   -1.5375 C   0  0  2  0  0
   -4.2392   -1.2689   -1.4898 C   0  0  2  0  0
   -4.8663   -0.3865   -2.6534 C   0  0  1  0  0
   -6.1653    0.2124   -2.0235 C   0  0  2  0  0
   -7.1598   -0.8633   -2.0171 O   0  0  0  0  0
   -8.3931   -0.2423   -2.4126 C   0  0  1  0  0
   -8.2748    1.1283   -2.0216 O   0  0  0  0  0
   -6.9880    1.3545   -2.6726 C   0  0  2  0  0
   -7.3789    1.0246   -4.1245 C   0  0  0  0  0
   -8.3558   -0.1369   -3.9386 C   0  0  0  0  0
   -9.3258    0.1310   -4.3684 H   0  0  0  0  0
   -7.9932   -1.0524   -4.4174 H   0  0  0  0  0
   -6.5393    0.7512   -4.7675 H   0  0  0  0  0
   -7.9030    1.8641   -4.5951 H   0  0  0  0  0
   -6.6048    2.7992   -2.4048 C   0  0  0  0  0
   -7.2595    3.4798   -2.9591 H   0  0  0  0  0
   -5.5746    3.0410   -2.6663 H   0  0  0  0  0
   -6.7522    3.0549   -1.3490 H   0  0  0  0  0
   -9.6158   -0.9559   -1.8016 C   0  0  0  0  0
  -10.8161   -0.3021   -2.2228 O   0  0  0  0  0
  -10.8354    0.5847   -1.8254 H   0  0  0  0  0
   -9.7102   -2.4054   -2.2873 C   0  0  0  0  0
   -9.8540   -2.4543   -3.3725 H   0  0  0  0  0
   -8.8113   -2.9760   -2.0263 H   0  0  0  0  0
  -10.5790   -2.9070   -1.8452 H   0  0  0  0  0
   -9.5652   -0.9252   -0.2692 C   0  0  0  0  0
   -8.6652   -1.4122    0.1134 H   0  0  0  0  0
  -10.4417   -1.4295    0.1551 H   0  0  0  0  0
   -9.5952    0.1025    0.1111 H   0  0  0  0  0
   -5.7963    0.4685   -0.5622 C   0  0  0  0  0
   -4.7190   -0.5495   -0.1948 C   0  0  0  0  0
   -3.9147   -0.0093    0.3074 H   0  0  0  0  0
   -5.1079   -1.2623    0.5421 H   0  0  0  0  0
   -6.6551    0.3660    0.1104 H   0  0  0  0  0
   -5.3834    1.4710   -0.4225 H   0  0  0  0  0
   -3.8222    0.5551   -3.2794 C   0  0  1  0  0
   -4.3967    1.6124   -4.0221 O   0  0  0  0  0
   -3.6758    2.1165   -4.4355 H   0  0  0  0  0
   -2.8227    1.0922   -2.2648 C   0  0  0  0  0
   -3.3429    1.5725   -1.4344 H   0  0  0  0  0
   -2.2408    1.8926   -2.7355 H   0  0  0  0  0
   -3.2647   -0.0214   -4.0263 H   0  0  0  0  0
   -5.1836   -1.0528   -3.4667 H   0  0  0  0  0
   -4.9083   -2.6799   -1.5015 C   0  0  0  0  0
   -5.9644   -2.6522   -1.2272 H   0  0  0  0  0
   -4.4472   -3.3578   -0.7795 H   0  0  0  0  0
   -4.8465   -3.1457   -2.4905 H   0  0  0  0  0
   -2.1048   -2.0892   -0.2376 C   0  0  0  0  0
   -0.5888   -2.0908   -0.0406 C   0  0  0  0  0
   -0.1802   -2.9836   -0.5326 H   0  0  0  0  0
   -0.4049   -2.2436    1.0265 H   0  0  0  0  0
   -2.5524   -1.6281    0.6452 H   0  0  0  0  0
   -2.4326   -3.1343   -0.1834 H   0  0  0  0  0
   -2.2482   -2.3928   -2.7005 C   0  0  0  0  0
   -2.6973   -2.0954   -3.6523 H   0  0  0  0  0
   -2.5683   -3.4201   -2.4960 H   0  0  0  0  0
   -1.1635   -2.4369   -2.8492 H   0  0  0  0  0
   -1.3041   -0.2307   -2.7302 H   0  0  0  0  0
    0.0883    1.5321   -1.4234 C   0  0  0  0  0
    1.4221    1.8085   -0.7366 C   0  0  0  0  0
    1.2756    2.2621    0.2490 H   0  0  0  0  0
    1.9641    2.5704   -1.3114 H   0  0  0  0  0
   -0.4868    2.4662   -1.4420 H   0  0  0  0  0
    0.3038    1.2838   -2.4709 H   0  0  0  0  0
   -1.3518    0.9376    0.5367 C   0  0  0  0  0
   -2.2077    1.5925    0.3550 H   0  0  0  0  0
   -1.6714    0.1559    1.2266 H   0  0  0  0  0
   -0.6427    1.5589    1.0869 H   0  0  0  0  0
    0.4453   -1.1487   -1.6036 H   0  0  0  0  0
    2.4349   -1.8852   -0.0283 C   0  0  0  0  0
    2.0168   -2.7285    0.5304 H   0  0  0  0  0
    2.5222   -2.1881   -1.0776 H   0  0  0  0  0
    3.4499   -1.7215    0.3509 H   0  0  0  0  0
    1.4748   -0.3215    1.6334 C   0  0  0  0  0
    2.4726   -0.3220    2.0882 H   0  0  0  0  0
    1.0421    0.6524    1.8583 H   0  0  0  0  0
    0.8943   -1.0753    2.1706 H   0  0  0  0  0
    2.5263    0.2102   -1.6462 H   0  0  0  0  0
    5.6917    1.6711    0.1538 C   0  0  0  0  0
    5.4448    2.4852    0.8398 H   0  0  0  0  0
    6.5306    1.9826   -0.4747 H   0  0  0  0  0
    5.9917    0.7774    0.7063 H   0  0  0  0  0
  1  2  2  0  0  0
  2  3  1  0  0  0
  2 87  1  0  0  0
  3  4  1  0  0  0
  4  5  1  0  0  0
  4 68  1  0  0  0
  4 86  1  0  0  0
  5  6  1  0  0  0
  5 78  1  0  0  0
  5 82  1  0  0  0
  6  7  1  0  0  0
  6 57  1  0  0  0
  6 77  1  0  0  0
  7  8  1  0  0  0
  7 67  1  0  0  0
  7 73  1  0  0  0
  8  9  1  0  0  0
  8 47  1  0  0  0
  8 66  1  0  0  0
  9 10  1  0  0  0
  9 56  1  0  0  0
  9 62  1  0  0  0
 10 11  1  0  0  0
 10 39  1  0  0  0
 10 52  1  0  0  0
 11 12  1  0  0  0
 11 44  1  0  0  0
 11 51  1  0  0  0
 12 13  1  0  0  0
 12 16  1  0  0  0
 12 38  1  0  0  0
 13 14  1  0  0  0
 14 15  1  0  0  0
 14 18  1  0  0  0
 14 27  1  0  0  0
 15 16  1  0  0  0
 16 17  1  0  0  0
 16 23  1  0  0  0
 17 18  1  0  0  0
 17 21  1  0  0  0
 17 22  1  0  0  0
 18 19  1  0  0  0
 18 20  1  0  0  0
 23 24  1  0  0  0
 23 25  1  0  0  0
 23 26  1  0  0  0
 27 28  1  0  0  0
 27 30  1  0  0  0
 27 34  1  0  0  0
 28 29  1  0  0  0
 30 31  1  0  0  0
 30 32  1  0  0  0
 30 33  1  0  0  0
 34 35  1  0  0  0
 34 36  1  0  0  0
 34 37  1  0  0  0
 38 39  1  0  0  0
 38 42  1  0  0  0
 38 43  1  0  0  0
 39 40  1  0  0  0
 39 41  1  0  0  0
 44 45  1  0  0  0
 44 47  1  0  0  0
 44 50  1  0  0  0
 45 46  1  0  0  0
 47 48  1  0  0  0
 47 49  1  0  0  0
 52 53  1  0  0  0
 52 54  1  0  0  0
 52 55  1  0  0  0
 56 57  1  0  0  0
 56 60  1  0  0  0
 56 61  1  0  0  0
 57 58  1  0  0  0
 57 59  1  0  0  0
 62 63  1  0  0  0
 62 64  1  0  0  0
 62 65  1  0  0  0
 67 68  1  0  0  0
 67 71  1  0  0  0
 67 72  1  0  0  0
 68 69  1  0  0  0
 68 70  1  0  0  0
 73 74  1  0  0  0
 73 75  1  0  0  0
 73 76  1  0  0  0
 78 79  1  0  0  0
 78 80  1  0  0  0
 78 81  1  0  0  0
 82 83  1  0  0  0
 82 84  1  0  0  0
 82 85  1  0  0  0
 87 88  1  0  0  0
 87 89  1  0  0  0
 87 90  1  0  0  0
M  END
> <Tumorigenic>
none

> <Score>
43.48828

> <Active/Decoy>
active

> <InChI>
InChI=1S/C32H52O6/c1-19(33)36-23-11-12-27(6)21(25(23,2)3)10-13-28(7)22(27)18-20(34)24-29(28,8)14-16-31(24)30(9)15-17-32(37-30,38-31)26(4,5)35/h20-24,34-35H,10-18H2,1-9H3/t20-,21-,22+,23-,24+,27-,28-,29-,30?,31+,32-/m1/s1

> <Matching Features>
H:14924486185440016873|HBA:149238150533300697|HBA:14924321692640012300|HBA:14924486112070016868

> <Mol. Index>
178

> <Pharmacophore Match>
Model -1

> <# Confs.>
10

> <Source Database>
Pharm-Screening-input-NANPDB_After_DataWarror.ldb

> <Pharmacophore-Fit Score>
43.49

> <formula>
C32H52O6

> <Mutagenic>
none

> <Reproductive Effective>
none

> <Irritant>
none

$$$$
28-hydroxysipholenol A
XX    ILIB03122402103D

 87 90  0  0  1  0              1 V2000
   -6.6038   -0.0380   -1.6563 O   0  0  0  0  0
   -7.3816    0.7974   -2.5253 C   0  0  0  0  0
   -6.4974    1.5728   -3.5355 C   0  0  2  0  0
   -6.0946    0.6983   -4.5960 O   0  0  0  0  0
   -5.6108    1.2317   -5.2492 H   0  0  0  0  0
   -5.2362    2.2325   -2.9549 C   0  0  0  0  0
   -4.1703    1.2271   -2.4936 C   0  0  0  0  0
   -4.3245    0.6627   -1.0420 C   0  0  1  0  0
   -5.8265    0.5991   -0.6385 C   0  0  2  0  0
   -6.0715   -0.1811    0.6559 C   0  0  0  0  0
   -5.5015   -1.5920    0.5958 C   0  0  0  0  0
   -3.9915   -1.5992    0.3090 C   0  0  2  0  0
   -3.3530   -1.0219    1.4477 O   0  0  0  0  0
   -2.4302   -1.3226    1.4757 H   0  0  0  0  0
   -3.6803   -0.7995   -0.9937 C   0  0  2  0  0
   -2.2108   -0.8285   -1.4095 C   0  0  0  0  0
   -1.2022   -0.2789   -0.4095 C   0  0  0  0  0
    0.2793   -0.3265   -0.8358 C   0  0  2  0  0
    0.8111   -1.7464   -1.1160 C   0  0  0  0  0
    1.8862   -1.9265   -1.9051 C   0  0  0  0  0
    2.6620   -0.8374   -2.5687 C   0  0  0  0  0
    3.4141    0.0671   -1.5771 C   0  0  1  0  0
    4.3599    1.0698   -2.2955 C   0  0  2  0  0
    5.2797    1.6011   -1.3290 O   0  0  0  0  0
    5.8314    0.8653   -1.0111 H   0  0  0  0  0
    3.4364    2.2137   -2.7320 C   0  0  0  0  0
    2.2378    2.1784   -1.7743 C   0  0  0  0  0
    2.5219    1.0463   -0.7649 C   0  0  1  0  0
    1.2799    0.5218    0.0489 C   0  0  0  0  0
    1.8178   -0.2949    1.2538 C   0  0  0  0  0
    2.4317   -1.1448    0.9411 H   0  0  0  0  0
    2.4476    0.3294    1.8995 H   0  0  0  0  0
    1.0057   -0.6803    1.8772 H   0  0  0  0  0
    0.5750    1.7692    0.6469 C   0  0  0  0  0
    0.0687    2.3574   -0.1236 H   0  0  0  0  0
    1.2980    2.4298    1.1429 H   0  0  0  0  0
   -0.1661    1.5002    1.4054 H   0  0  0  0  0
    3.1835    1.4979   -0.0087 H   0  0  0  0  0
    1.3201    2.0027   -2.3450 H   0  0  0  0  0
    2.1247    3.1425   -1.2695 H   0  0  0  0  0
    3.9363    3.1865   -2.6837 H   0  0  0  0  0
    3.0735    2.0717   -3.7559 H   0  0  0  0  0
    5.1970    0.5278   -3.4487 C   0  0  0  0  0
    5.9102    1.2830   -3.7950 H   0  0  0  0  0
    5.7882   -0.3348   -3.1248 H   0  0  0  0  0
    4.5850    0.2298   -4.3052 H   0  0  0  0  0
    3.9899   -0.5549   -0.8805 H   0  0  0  0  0
    3.3860   -1.3423   -3.2193 H   0  0  0  0  0
    2.0136   -0.2652   -3.2413 H   0  0  0  0  0
    2.2570   -2.9353   -2.0749 H   0  0  0  0  0
    0.2070   -2.9490   -0.4666 C   0  0  0  0  0
    0.3146   -2.8540    0.9477 O   0  0  0  0  0
   -0.1733   -2.0608    1.2284 H   0  0  0  0  0
    0.7308   -3.8550   -0.7877 H   0  0  0  0  0
   -0.8514   -3.0686   -0.7217 H   0  0  0  0  0
    0.2390    0.1592   -1.8126 H   0  0  0  0  0
   -1.3122   -0.8184    0.5430 H   0  0  0  0  0
   -1.4625    0.7588   -0.2103 H   0  0  0  0  0
   -2.0918   -0.3092   -2.3704 H   0  0  0  0  0
   -1.9555   -1.8892   -1.6204 H   0  0  0  0  0
   -4.2015   -1.3497   -1.7930 H   0  0  0  0  0
   -3.5314   -3.0631    0.2094 C   0  0  0  0  0
   -3.8234   -3.6213    1.1070 H   0  0  0  0  0
   -3.9651   -3.5637   -0.6620 H   0  0  0  0  0
   -2.4408   -3.1434    0.1536 H   0  0  0  0  0
   -6.0347   -2.1706   -0.1687 H   0  0  0  0  0
   -5.7016   -2.0762    1.5602 H   0  0  0  0  0
   -5.6487    0.3573    1.5109 H   0  0  0  0  0
   -7.1510   -0.2570    0.8350 H   0  0  0  0  0
   -6.1889    1.6113   -0.4477 H   0  0  0  0  0
   -3.6216    1.6604   -0.0889 C   0  0  0  0  0
   -3.6275    1.3308    0.9512 H   0  0  0  0  0
   -2.5821    1.8404   -0.3752 H   0  0  0  0  0
   -4.1200    2.6372   -0.1124 H   0  0  0  0  0
   -3.1933    1.7212   -2.5801 H   0  0  0  0  0
   -4.1314    0.4015   -3.2138 H   0  0  0  0  0
   -5.4846    2.9487   -2.1655 H   0  0  0  0  0
   -4.7806    2.8206   -3.7644 H   0  0  0  0  0
   -7.1106    2.3502   -4.0077 H   0  0  0  0  0
   -8.3077   -0.1897   -3.2647 C   0  0  0  0  0
   -7.7377   -0.9987   -3.7370 H   0  0  0  0  0
   -8.9067    0.3123   -4.0311 H   0  0  0  0  0
   -8.9909   -0.6790   -2.5595 H   0  0  0  0  0
   -8.2982    1.7634   -1.7451 C   0  0  0  0  0
   -9.0750    2.1807   -2.3957 H   0  0  0  0  0
   -8.7846    1.2512   -0.9089 H   0  0  0  0  0
   -7.7517    2.6154   -1.3294 H   0  0  0  0  0
  1  2  1  0  0  0
  1  9  1  0  0  0
  2  3  1  0  0  0
  2 80  1  0  0  0
  2 84  1  0  0  0
  3  4  1  0  0  0
  3  6  1  0  0  0
  3 79  1  0  0  0
  4  5  1  0  0  0
  6  7  1  0  0  0
  6 77  1  0  0  0
  6 78  1  0  0  0
  7  8  1  0  0  0
  7 75  1  0  0  0
  7 76  1  0  0  0
  8  9  1  0  0  0
  8 15  1  0  0  0
  8 71  1  0  0  0
  9 10  1  0  0  0
  9 70  1  0  0  0
 10 11  1  0  0  0
 10 68  1  0  0  0
 10 69  1  0  0  0
 11 12  1  0  0  0
 11 66  1  0  0  0
 11 67  1  0  0  0
 12 13  1  0  0  0
 12 15  1  0  0  0
 12 62  1  0  0  0
 13 14  1  0  0  0
 15 16  1  0  0  0
 15 61  1  0  0  0
 16 17  1  0  0  0
 16 59  1  0  0  0
 16 60  1  0  0  0
 17 18  1  0  0  0
 17 57  1  0  0  0
 17 58  1  0  0  0
 18 19  1  0  0  0
 18 29  1  0  0  0
 18 56  1  0  0  0
 19 20  2  0  0  0
 19 51  1  0  0  0
 20 21  1  0  0  0
 20 50  1  0  0  0
 21 22  1  0  0  0
 21 48  1  0  0  0
 21 49  1  0  0  0
 22 23  1  0  0  0
 22 28  1  0  0  0
 22 47  1  0  0  0
 23 24  1  0  0  0
 23 26  1  0  0  0
 23 43  1  0  0  0
 24 25  1  0  0  0
 26 27  1  0  0  0
 26 41  1  0  0  0
 26 42  1  0  0  0
 27 28  1  0  0  0
 27 39  1  0  0  0
 27 40  1  0  0  0
 28 29  1  0  0  0
 28 38  1  0  0  0
 29 30  1  0  0  0
 29 34  1  0  0  0
 30 31  1  0  0  0
 30 32  1  0  0  0
 30 33  1  0  0  0
 34 35  1  0  0  0
 34 36  1  0  0  0
 34 37  1  0  0  0
 43 44  1  0  0  0
 43 45  1  0  0  0
 43 46  1  0  0  0
 51 52  1  0  0  0
 51 54  1  0  0  0
 51 55  1  0  0  0
 52 53  1  0  0  0
 62 63  1  0  0  0
 62 64  1  0  0  0
 62 65  1  0  0  0
 71 72  1  0  0  0
 71 73  1  0  0  0
 71 74  1  0  0  0
 80 81  1  0  0  0
 80 82  1  0  0  0
 80 83  1  0  0  0
 84 85  1  0  0  0
 84 86  1  0  0  0
 84 87  1  0  0  0
M  END
> <Tumorigenic>
none

> <Score>
43.491463

> <Active/Decoy>
active

> <InChI>
InChI=1S/C30H52O5/c1-26(2)20(19(18-31)8-9-22-21(26)12-16-29(22,6)33)10-11-23-28(5)15-13-24(32)27(3,4)35-25(28)14-17-30(23,7)34/h8,20-25,31-34H,9-18H2,1-7H3/t20-,21-,22-,23-,24-,25+,28-,29-,30+/m1/s1

> <Matching Features>
H:14924486185440016873|HBA:149238150533300697|HBA:14924321692640012300|HBA:14924486112070016868

> <Mol. Index>
166

> <Pharmacophore Match>
Model -1

> <# Confs.>
4

> <Source Database>
Pharm-Screening-input-NANPDB_After_DataWarror.ldb

> <Pharmacophore-Fit Score>
43.49

> <formula>
C30H52O5

> <Mutagenic>
none

> <Reproductive Effective>
none

> <Irritant>
none

$$$$
cystodione F
XX    ILIB03122402103D

 74 75  0  0  1  0              1 V2000
   -5.8519   -0.3596   -1.6086 O   0  0  0  0  0
   -4.9099    0.3649   -1.3179 C   0  0  0  0  0
   -4.0253    1.0672   -2.3186 C   0  0  2  0  0
   -3.2414    1.9173   -1.4537 O   0  0  0  0  0
   -3.1380    1.3063   -0.1532 C   0  0  1  0  0
   -4.5077    0.6745    0.0870 C   0  0  0  0  0
   -4.4659   -0.2206    0.7094 H   0  0  0  0  0
   -5.2310    1.3884    0.4893 H   0  0  0  0  0
   -2.0202    0.2603   -0.1473 C   0  0  0  0  0
   -1.7866   -0.4797    1.1721 C   0  0  0  0  0
   -0.6661   -1.5288    1.1782 C   0  0  0  0  0
    0.6934   -0.9782    0.8555 C   0  0  0  0  0
    1.4647   -1.3474   -0.1690 C   0  0  0  0  0
    1.1029   -2.3241   -1.2420 C   0  0  0  0  0
   -0.0714   -2.4954   -1.5735 O   0  0  0  0  0
    2.2560   -3.0784   -1.8661 C   0  0  0  0  0
    2.2987   -2.8227   -3.3383 C   0  0  0  0  0
    2.9765   -1.8167   -3.9236 C   0  0  0  0  0
    3.7664   -0.7384   -3.2562 C   0  0  0  0  0
    2.9402    0.4763   -2.9412 C   0  0  0  0  0
    3.4828    1.6125   -2.3112 C   0  0  0  0  0
    4.7966    1.6061   -1.9365 O   0  0  0  0  0
    5.6559    0.8062   -2.7436 C   0  0  0  0  0
    5.3651   -0.2490   -2.7047 H   0  0  0  0  0
    6.6692    0.8902   -2.3373 H   0  0  0  0  0
    5.6807    1.1697   -3.7769 H   0  0  0  0  0
    2.6840    2.7285   -1.9957 C   0  0  0  0  0
    1.3358    2.7200   -2.3723 C   0  0  0  0  0
    0.7988    1.6106   -3.0216 C   0  0  0  0  0
    1.5856    0.4973   -3.3061 C   0  0  0  0  0
    1.1436   -0.3597   -3.8092 H   0  0  0  0  0
   -0.5167    1.5831   -3.3916 O   0  0  0  0  0
   -0.9341    2.4166   -3.1129 H   0  0  0  0  0
    0.7048    3.5778   -2.1547 H   0  0  0  0  0
    3.2524    3.9259   -1.2906 C   0  0  0  0  0
    3.8137    3.6188   -0.4022 H   0  0  0  0  0
    2.4601    4.6039   -0.9542 H   0  0  0  0  0
    3.9133    4.4823   -1.9616 H   0  0  0  0  0
    4.2308   -1.1076   -2.3319 H   0  0  0  0  0
    4.5985   -0.4524   -3.9112 H   0  0  0  0  0
    2.9430   -1.7397   -5.0094 H   0  0  0  0  0
    1.5251   -3.8056   -4.1788 C   0  0  0  0  0
    1.9237   -4.8166   -4.0422 H   0  0  0  0  0
    1.5755   -3.5705   -5.2464 H   0  0  0  0  0
    0.4687   -3.8063   -3.8924 H   0  0  0  0  0
    2.1376   -4.1469   -1.6555 H   0  0  0  0  0
    3.1916   -2.7288   -1.4172 H   0  0  0  0  0
    2.4607   -0.9185   -0.2912 H   0  0  0  0  0
    1.1891    0.0690    1.8205 C   0  0  0  0  0
    0.5174    0.9333    1.8295 H   0  0  0  0  0
    2.1906    0.4316    1.5657 H   0  0  0  0  0
    1.2369   -0.3456    2.8330 H   0  0  0  0  0
   -0.6417   -1.9920    2.1735 H   0  0  0  0  0
   -0.9047   -2.3376    0.4765 H   0  0  0  0  0
   -2.7244   -0.9578    1.4857 H   0  0  0  0  0
   -1.5584    0.2720    1.9396 H   0  0  0  0  0
   -1.0823    0.7371   -0.4599 H   0  0  0  0  0
   -2.2556   -0.4821   -0.9220 H   0  0  0  0  0
   -2.8616    2.4116    0.8670 C   0  0  0  0  0
   -1.9222    2.9303    0.6490 H   0  0  0  0  0
   -2.8119    2.0120    1.8841 H   0  0  0  0  0
   -3.6439    3.1788    0.8333 H   0  0  0  0  0
   -4.7670    1.9235   -3.3668 C   0  0  0  0  0
   -5.5380    1.0693   -4.2181 O   0  0  0  0  0
   -6.2447    0.6667   -3.6858 H   0  0  0  0  0
   -5.7206    2.9385   -2.7241 C   0  0  0  0  0
   -6.2711    3.4904   -3.4931 H   0  0  0  0  0
   -5.1867    3.6613   -2.0989 H   0  0  0  0  0
   -6.4776    2.4385   -2.1099 H   0  0  0  0  0
   -3.7825    2.6704   -4.2764 C   0  0  0  0  0
   -3.1430    3.3538   -3.7100 H   0  0  0  0  0
   -4.3201    3.2522   -5.0325 H   0  0  0  0  0
   -3.1458    1.9733   -4.8296 H   0  0  0  0  0
   -3.3442    0.3457   -2.7841 H   0  0  0  0  0
  1  2  2  0  0  0
  2  3  1  0  0  0
  2  6  1  0  0  0
  3  4  1  0  0  0
  3 63  1  0  0  0
  3 74  1  0  0  0
  4  5  1  0  0  0
  5  6  1  0  0  0
  5  9  1  0  0  0
  5 59  1  0  0  0
  6  7  1  0  0  0
  6  8  1  0  0  0
  9 10  1  0  0  0
  9 57  1  0  0  0
  9 58  1  0  0  0
 10 11  1  0  0  0
 10 55  1  0  0  0
 10 56  1  0  0  0
 11 12  1  0  0  0
 11 53  1  0  0  0
 11 54  1  0  0  0
 12 13  2  0  0  0
 12 49  1  0  0  0
 13 14  1  0  0  0
 13 48  1  0  0  0
 14 15  2  0  0  0
 14 16  1  0  0  0
 16 17  1  0  0  0
 16 46  1  0  0  0
 16 47  1  0  0  0
 17 18  2  0  0  0
 17 42  1  0  0  0
 18 19  1  0  0  0
 18 41  1  0  0  0
 19 20  1  0  0  0
 19 39  1  0  0  0
 19 40  1  0  0  0
 20 21  2  0  0  0
 20 30  1  0  0  0
 21 22  1  0  0  0
 21 27  1  0  0  0
 22 23  1  0  0  0
 23 24  1  0  0  0
 23 25  1  0  0  0
 23 26  1  0  0  0
 27 28  2  0  0  0
 27 35  1  0  0  0
 28 29  1  0  0  0
 28 34  1  0  0  0
 29 30  2  0  0  0
 29 32  1  0  0  0
 30 31  1  0  0  0
 32 33  1  0  0  0
 35 36  1  0  0  0
 35 37  1  0  0  0
 35 38  1  0  0  0
 42 43  1  0  0  0
 42 44  1  0  0  0
 42 45  1  0  0  0
 49 50  1  0  0  0
 49 51  1  0  0  0
 49 52  1  0  0  0
 59 60  1  0  0  0
 59 61  1  0  0  0
 59 62  1  0  0  0
 63 64  1  0  0  0
 63 66  1  0  0  0
 63 70  1  0  0  0
 64 65  1  0  0  0
 66 67  1  0  0  0
 66 68  1  0  0  0
 66 69  1  0  0  0
 70 71  1  0  0  0
 70 72  1  0  0  0
 70 73  1  0  0  0
M  END
> <Tumorigenic>
none

> <Score>
43.466614

> <Active/Decoy>
active

> <InChI>
InChI=1S/C28H40O6/c1-18(9-8-12-28(6)17-24(31)26(34-28)27(4,5)32)13-22(29)14-19(2)10-11-21-16-23(30)15-20(3)25(21)33-7/h10,13,15-16,26,30,32H,8-9,11-12,14,17H2,1-7H3/b18-13+,19-10+/t26-,28+/m0/s1

> <Matching Features>
H:14924486185440016873|HBA:149238150533300697|HBA:14924321692640012300|HBA:14924486112070016868

> <Mol. Index>
756

> <Pharmacophore Match>
Model -1

> <# Confs.>
25

> <Source Database>
Pharm-Screening-input-NANPDB_After_DataWarror.ldb

> <Pharmacophore-Fit Score>
43.47

> <formula>
C28H40O6

> <Mutagenic>
none

> <Reproductive Effective>
none

> <Irritant>
none

$$$$
(1R*,2R*,3E,7R*,IlR*,12S*)-2-O-acetyl-16-O-(3-hydroxy-3-methylglutaryl)-dolabella-3,8(17)-dien-2,7,16,18-tetrol
XX    ILIB03122402103D

 81 82  0  0  1  0              1 V2000
   -3.0172    1.1428   -1.5650 O   0  0  0  0  0
   -3.0338    0.1964   -0.7989 C   0  0  0  0  0
   -1.9583   -0.3766   -0.2088 O   0  0  0  0  0
   -0.6669    0.1733   -0.5048 C   0  0  0  0  0
    0.3820   -0.6028    0.2269 C   0  0  0  0  0
    1.2244   -0.0622    1.1389 C   0  0  0  0  0
    1.3832    1.3740    1.5628 C   0  0  1  0  0
    0.9539    1.3861    2.9350 O   0  0  0  0  0
   -0.1871    2.0696    3.2224 C   0  0  0  0  0
   -0.8886    2.6801    2.4269 O   0  0  0  0  0
   -0.4924    1.9480    4.6847 C   0  0  0  0  0
   -1.2261    2.7094    4.9665 H   0  0  0  0  0
   -0.9024    0.9584    4.8946 H   0  0  0  0  0
    0.4126    2.1221    5.2726 H   0  0  0  0  0
    2.8200    2.0249    1.4897 C   0  0  2  0  0
    3.4130    2.3211    0.0581 C   0  0  1  0  0
    4.9204    2.5461    0.3591 C   0  0  2  0  0
    5.9386    2.7266   -0.7881 C   0  0  0  0  0
    5.9307    1.5587   -1.6161 O   0  0  0  0  0
    5.0681    1.5041   -2.0599 H   0  0  0  0  0
    5.6140    3.9372   -1.6738 C   0  0  0  0  0
    6.3198    4.0036   -2.5081 H   0  0  0  0  0
    5.6545    4.8753   -1.1123 H   0  0  0  0  0
    4.6210    3.8447   -2.1250 H   0  0  0  0  0
    7.3677    2.8709   -0.2499 C   0  0  0  0  0
    7.4691    3.7422    0.4023 H   0  0  0  0  0
    8.0831    2.9692   -1.0729 H   0  0  0  0  0
    7.6730    1.9799    0.3092 H   0  0  0  0  0
    5.2479    1.4704    1.3976 C   0  0  0  0  0
    3.9477    1.2126    2.1816 C   0  0  0  0  0
    3.7550    0.1376    2.1880 H   0  0  0  0  0
    4.0706    1.5042    3.2309 H   0  0  0  0  0
    5.5824    0.5391    0.9279 H   0  0  0  0  0
    6.0504    1.7944    2.0690 H   0  0  0  0  0
    4.9913    3.4979    0.9032 H   0  0  0  0  0
    3.0788    1.3521   -1.0961 C   0  0  0  0  0
    3.5392   -0.1135   -1.0144 C   0  0  0  0  0
    2.8746   -1.0374   -2.0222 C   0  0  0  0  0
    2.4505   -2.4315   -1.5880 C   0  0  1  0  0
    3.1999   -2.8974   -0.4686 O   0  0  0  0  0
    4.1421   -2.8374   -0.6981 H   0  0  0  0  0
    0.9431   -2.6073   -1.3215 C   0  0  0  0  0
    0.3929   -2.0995    0.0196 C   0  0  0  0  0
    0.9375   -2.5995    0.8316 H   0  0  0  0  0
   -0.6397   -2.4585    0.1212 H   0  0  0  0  0
    0.7482   -3.6891   -1.3287 H   0  0  0  0  0
    0.3600   -2.2014   -2.1557 H   0  0  0  0  0
    2.7021   -3.1205   -2.4063 H   0  0  0  0  0
    2.7158   -0.6833   -3.3092 C   0  0  0  0  0
    3.0393    0.2808   -3.6864 H   0  0  0  0  0
    2.2633   -1.3604   -4.0271 H   0  0  0  0  0
    3.3835   -0.4966   -0.0093 H   0  0  0  0  0
    4.6156   -0.1973   -1.1710 H   0  0  0  0  0
    3.4853    1.7853   -2.0167 H   0  0  0  0  0
    1.9931    1.3835   -1.2378 H   0  0  0  0  0
    3.0028    3.2865   -0.2736 H   0  0  0  0  0
    2.6950    3.3936    2.2511 C   0  0  0  0  0
    2.3987    3.2518    3.2964 H   0  0  0  0  0
    3.6278    3.9589    2.2897 H   0  0  0  0  0
    1.9428    4.0315    1.7721 H   0  0  0  0  0
    0.7222    2.0254    0.9800 H   0  0  0  0  0
    1.8674   -0.7585    1.6749 H   0  0  0  0  0
   -0.6543    1.2281   -0.2266 H   0  0  0  0  0
   -0.4789    0.0943   -1.5891 H   0  0  0  0  0
   -4.2953   -0.5366   -0.4046 C   0  0  0  0  0
   -4.6026   -1.6947   -1.3455 C   0  0  1  0  0
   -5.8157   -2.3006   -0.8656 O   0  0  0  0  0
   -6.5175   -1.6275   -0.8958 H   0  0  0  0  0
   -4.8773   -1.2500   -2.7769 C   0  0  0  0  0
   -6.0100   -0.2542   -2.8468 C   0  0  0  0  0
   -7.1575   -0.4592   -2.4781 O   0  0  0  0  0
   -5.5995    0.9291   -3.3735 O   0  0  0  0  0
   -6.3288    1.5816   -3.4184 H   0  0  0  0  0
   -3.9779   -0.7887   -3.2019 H   0  0  0  0  0
   -5.1435   -2.1141   -3.3973 H   0  0  0  0  0
   -3.5346   -2.7901   -1.2775 C   0  0  0  0  0
   -3.8279   -3.6543   -1.8857 H   0  0  0  0  0
   -2.5555   -2.4456   -1.6224 H   0  0  0  0  0
   -3.4258   -3.1617   -0.2524 H   0  0  0  0  0
   -5.1273    0.1778   -0.4084 H   0  0  0  0  0
   -4.1677   -0.9055    0.6202 H   0  0  0  0  0
  1  2  2  0  0  0
  2  3  1  0  0  0
  2 65  1  0  0  0
  3  4  1  0  0  0
  4  5  1  0  0  0
  4 63  1  0  0  0
  4 64  1  0  0  0
  5  6  2  0  0  0
  5 43  1  0  0  0
  6  7  1  0  0  0
  6 62  1  0  0  0
  7  8  1  0  0  0
  7 15  1  0  0  0
  7 61  1  0  0  0
  8  9  1  0  0  0
  9 10  2  0  0  0
  9 11  1  0  0  0
 11 12  1  0  0  0
 11 13  1  0  0  0
 11 14  1  0  0  0
 15 16  1  0  0  0
 15 30  1  0  0  0
 15 57  1  0  0  0
 16 17  1  0  0  0
 16 36  1  0  0  0
 16 56  1  0  0  0
 17 18  1  0  0  0
 17 29  1  0  0  0
 17 35  1  0  0  0
 18 19  1  0  0  0
 18 21  1  0  0  0
 18 25  1  0  0  0
 19 20  1  0  0  0
 21 22  1  0  0  0
 21 23  1  0  0  0
 21 24  1  0  0  0
 25 26  1  0  0  0
 25 27  1  0  0  0
 25 28  1  0  0  0
 29 30  1  0  0  0
 29 33  1  0  0  0
 29 34  1  0  0  0
 30 31  1  0  0  0
 30 32  1  0  0  0
 36 37  1  0  0  0
 36 54  1  0  0  0
 36 55  1  0  0  0
 37 38  1  0  0  0
 37 52  1  0  0  0
 37 53  1  0  0  0
 38 39  1  0  0  0
 38 49  2  0  0  0
 39 40  1  0  0  0
 39 42  1  0  0  0
 39 48  1  0  0  0
 40 41  1  0  0  0
 42 43  1  0  0  0
 42 46  1  0  0  0
 42 47  1  0  0  0
 43 44  1  0  0  0
 43 45  1  0  0  0
 49 50  1  0  0  0
 49 51  1  0  0  0
 57 58  1  0  0  0
 57 59  1  0  0  0
 57 60  1  0  0  0
 65 66  1  0  0  0
 65 80  1  0  0  0
 65 81  1  0  0  0
 66 67  1  0  0  0
 66 69  1  0  0  0
 66 76  1  0  0  0
 67 68  1  0  0  0
 69 70  1  0  0  0
 69 74  1  0  0  0
 69 75  1  0  0  0
 70 71  2  0  0  0
 70 72  1  0  0  0
 72 73  1  0  0  0
 76 77  1  0  0  0
 76 78  1  0  0  0
 76 79  1  0  0  0
M  END
> <Tumorigenic>
none

> <Score>
43.419006

> <Active/Decoy>
active

> <InChI>
InChI=1S/C28H44O9/c1-17-7-9-21-20(26(3,4)34)11-12-28(21,6)23(37-18(2)29)13-19(8-10-22(17)30)16-36-25(33)15-27(5,35)14-24(31)32/h13,20-23,30,34-35H,1,7-12,14-16H2,2-6H3,(H,31,32)/b19-13-/t20-,21-,22+,23-,27+,28+/m1/s1

> <Matching Features>
H:14924486185440016873|HBA:149238150533300697|HBA:14924321692640012300|HBA:14924486112070016868

> <Mol. Index>
515

> <Pharmacophore Match>
Model -1

> <# Confs.>
25

> <Source Database>
Pharm-Screening-input-NANPDB_After_DataWarror.ldb

> <Pharmacophore-Fit Score>
43.42

> <formula>
C28H44O9

> <Mutagenic>
none

> <Reproductive Effective>
none

> <Irritant>
none

$$$$
rutamontine
XX    ILIB03122402103D

 38 41  0  0  1  0              1 V2000
   -1.2839    2.1222    1.8350 O   0  0  0  0  0
   -1.9122    1.4358    1.0359 C   0  0  0  0  0
   -2.8820    2.0005    0.2117 O   0  0  0  0  0
   -3.6855    1.2139   -0.6530 C   0  0  0  0  0
   -3.5126   -0.1543   -0.7076 C   0  0  0  0  0
   -4.3260   -0.8952   -1.5636 C   0  0  0  0  0
   -5.2897   -0.2415   -2.3387 C   0  0  0  0  0
   -6.0920   -0.9672   -3.1823 O   0  0  0  0  0
   -5.8476   -1.9063   -3.1125 H   0  0  0  0  0
   -5.4582    1.1486   -2.2771 C   0  0  0  0  0
   -4.6408    1.8871   -1.4176 C   0  0  0  0  0
   -4.7263    2.9651   -1.3257 H   0  0  0  0  0
   -6.4302    1.6753   -3.0808 O   0  0  0  0  0
   -6.5850    3.0898   -3.0028 C   0  0  0  0  0
   -5.6775    3.6059   -3.3333 H   0  0  0  0  0
   -6.8689    3.4009   -1.9920 H   0  0  0  0  0
   -7.3955    3.3733   -3.6794 H   0  0  0  0  0
   -4.2133   -1.9740   -1.6322 H   0  0  0  0  0
   -2.4904   -0.7708    0.1193 C   0  0  0  0  0
   -1.7036   -0.0438    0.9172 C   0  0  0  0  0
   -0.7747   -0.6497    1.7230 O   0  0  0  0  0
    0.5466   -0.2651    1.6012 C   0  0  0  0  0
    1.2318   -0.0450    0.4045 C   0  0  0  0  0
    2.5698    0.3516    0.4526 C   0  0  0  0  0
    3.2301    0.5677   -0.7754 O   0  0  0  0  0
    4.5618    0.9654   -0.8284 C   0  0  0  0  0
    5.1401    1.1602   -1.8926 O   0  0  0  0  0
    5.2531    1.1432    0.4617 C   0  0  0  0  0
    4.6350    0.9443    1.6270 C   0  0  0  0  0
    3.2427    0.5333    1.6567 C   0  0  0  0  0
    2.5552    0.3127    2.8489 C   0  0  0  0  0
    1.2153   -0.0850    2.8194 C   0  0  0  0  0
    0.6939   -0.2539    3.7588 H   0  0  0  0  0
    3.0474    0.4444    3.8099 H   0  0  0  0  0
    5.1635    1.0821    2.5646 H   0  0  0  0  0
    6.2943    1.4476    0.4309 H   0  0  0  0  0
    0.7576   -0.1729   -0.5636 H   0  0  0  0  0
   -2.3628   -1.8469    0.0600 H   0  0  0  0  0
  1  2  2  0  0  0
  2  3  1  0  0  0
  2 20  1  0  0  0
  3  4  1  0  0  0
  4  5  2  0  0  0
  4 11  1  0  0  0
  5  6  1  0  0  0
  5 19  1  0  0  0
  6  7  2  0  0  0
  6 18  1  0  0  0
  7  8  1  0  0  0
  7 10  1  0  0  0
  8  9  1  0  0  0
 10 11  2  0  0  0
 10 13  1  0  0  0
 11 12  1  0  0  0
 13 14  1  0  0  0
 14 15  1  0  0  0
 14 16  1  0  0  0
 14 17  1  0  0  0
 19 20  2  0  0  0
 19 38  1  0  0  0
 20 21  1  0  0  0
 21 22  1  0  0  0
 22 23  2  0  0  0
 22 32  1  0  0  0
 23 24  1  0  0  0
 23 37  1  0  0  0
 24 25  1  0  0  0
 24 30  2  0  0  0
 25 26  1  0  0  0
 26 27  2  0  0  0
 26 28  1  0  0  0
 28 29  2  0  0  0
 28 36  1  0  0  0
 29 30  1  0  0  0
 29 35  1  0  0  0
 30 31  1  0  0  0
 31 32  2  0  0  0
 31 34  1  0  0  0
 32 33  1  0  0  0
M  END
> <Tumorigenic>
none

> <Score>
43.411446

> <Active/Decoy>
active

> <InChI>
InChI=1S/C19H12O7/c1-23-16-9-15-11(6-13(16)20)7-17(19(22)26-15)24-12-4-2-10-3-5-18(21)25-14(10)8-12/h2-9,20H,1H3

> <Matching Features>
H:14924486185440016873|HBA:149238150533300697|HBA:14924321692640012300|HBA:14924486112070016868

> <Mol. Index>
739

> <Pharmacophore Match>
Model -1

> <# Confs.>
25

> <Source Database>
Pharm-Screening-input-NANPDB_After_DataWarror.ldb

> <Pharmacophore-Fit Score>
43.41

> <formula>
C19H12O7

> <Mutagenic>
none

> <Reproductive Effective>
none

> <Irritant>
none

$$$$
(1R*,2R*,3E,7E,11R*,12S*)-16-O-(3-hydroxy-3-methylglutaryl)-dolabella-3,7-dien-2,16,18-triol
XX    ILIB03122402103D

 75 76  0  0  1  0              1 V2000
   -2.1239    2.7301   -4.6863 O   0  0  0  0  0
   -2.7647    2.6656   -3.6529 C   0  0  0  0  0
   -2.2757    2.7942   -2.3968 O   0  0  0  0  0
   -0.8681    3.0297   -2.2531 C   0  0  0  0  0
   -0.5272    3.1250   -0.7996 C   0  0  0  0  0
   -0.1773    2.0905   -0.0203 C   0  0  0  0  0
    0.0683    0.6644   -0.4447 C   0  0  2  0  0
   -0.9271   -0.1617    0.1653 O   0  0  0  0  0
   -1.7977    0.1643   -0.1218 H   0  0  0  0  0
    1.4884    0.1049   -0.0938 C   0  0  2  0  0
    2.6592    0.9475   -0.7086 C   0  0  2  0  0
    3.8439   -0.0641   -0.7851 C   0  0  2  0  0
    4.8954    0.2345   -1.8777 C   0  0  0  0  0
    5.4708    1.5229   -1.6410 O   0  0  0  0  0
    5.9806    1.4837   -0.8154 H   0  0  0  0  0
    6.0306   -0.7967   -1.8919 C   0  0  0  0  0
    6.7879   -0.5278   -2.6396 H   0  0  0  0  0
    5.6676   -1.8036   -2.1212 H   0  0  0  0  0
    6.5536   -0.8265   -0.9303 H   0  0  0  0  0
    4.2540    0.2905   -3.2697 C   0  0  0  0  0
    3.7815   -0.6596   -3.5387 H   0  0  0  0  0
    5.0053    0.5291   -4.0327 H   0  0  0  0  0
    3.5009    1.0832   -3.3282 H   0  0  0  0  0
    3.1958   -1.4537   -0.9232 C   0  0  0  0  0
    1.6892   -1.2425   -0.8278 C   0  0  0  0  0
    1.1949   -2.0822   -0.3294 H   0  0  0  0  0
    1.2840   -1.1898   -1.8471 H   0  0  0  0  0
    3.5375   -2.0989   -0.1058 H   0  0  0  0  0
    3.4481   -1.9637   -1.8577 H   0  0  0  0  0
    4.3678   -0.0430    0.1815 H   0  0  0  0  0
    3.0235    2.2301    0.0741 C   0  0  0  0  0
    2.9808    3.5070   -0.7853 C   0  0  0  0  0
    2.8402    4.7413    0.0799 C   0  0  0  0  0
    1.7559    5.5416    0.1042 C   0  0  0  0  0
    0.5198    5.4645   -0.7510 C   0  0  0  0  0
   -0.5765    4.5342   -0.2068 C   0  0  0  0  0
   -0.5304    4.5006    0.8893 H   0  0  0  0  0
   -1.5566    4.9702   -0.4384 H   0  0  0  0  0
    0.1069    6.4819   -0.7881 H   0  0  0  0  0
    0.7882    5.2378   -1.7870 H   0  0  0  0  0
    1.7602    6.3836    0.7954 H   0  0  0  0  0
    4.0199    5.0472    0.9684 C   0  0  0  0  0
    4.9347    5.1169    0.3693 H   0  0  0  0  0
    3.9038    5.9976    1.5015 H   0  0  0  0  0
    4.1522    4.2632    1.7193 H   0  0  0  0  0
    2.1661    3.4478   -1.5096 H   0  0  0  0  0
    3.8971    3.5880   -1.3820 H   0  0  0  0  0
    2.3527    2.3656    0.9256 H   0  0  0  0  0
    4.0246    2.1388    0.5128 H   0  0  0  0  0
    2.3641    1.2161   -1.7318 H   0  0  0  0  0
    1.6391   -0.1432    1.4267 C   0  0  0  0  0
    0.9467   -0.9203    1.7695 H   0  0  0  0  0
    1.4288    0.7515    2.0191 H   0  0  0  0  0
    2.6461   -0.4773    1.6942 H   0  0  0  0  0
   -0.0678    0.5557   -1.5228 H   0  0  0  0  0
   -0.0010    2.2902    1.0349 H   0  0  0  0  0
   -0.6005    3.9408   -2.7903 H   0  0  0  0  0
   -0.3121    2.1856   -2.6955 H   0  0  0  0  0
   -4.2487    2.3831   -3.6068 C   0  0  0  0  0
   -4.5450    0.8914   -3.5155 C   0  0  2  0  0
   -5.9770    0.7599   -3.4815 O   0  0  0  0  0
   -6.3012    1.2307   -2.6944 H   0  0  0  0  0
   -4.0208    0.2508   -2.2373 C   0  0  0  0  0
   -4.5684    0.9287   -1.0044 C   0  0  0  0  0
   -5.6575    1.4794   -0.9224 O   0  0  0  0  0
   -3.6951    0.8517    0.0333 O   0  0  0  0  0
   -4.0461    1.2871    0.8385 H   0  0  0  0  0
   -4.3017   -0.8089   -2.2094 H   0  0  0  0  0
   -2.9260    0.3131   -2.2042 H   0  0  0  0  0
   -4.0879    0.1366   -4.7678 C   0  0  0  0  0
   -4.5571    0.5550   -5.6649 H   0  0  0  0  0
   -3.0026    0.1660   -4.9039 H   0  0  0  0  0
   -4.3988   -0.9144   -4.7213 H   0  0  0  0  0
   -4.7096    2.8002   -4.5101 H   0  0  0  0  0
   -4.6673    2.9056   -2.7383 H   0  0  0  0  0
  1  2  2  0  0  0
  2  3  1  0  0  0
  2 59  1  0  0  0
  3  4  1  0  0  0
  4  5  1  0  0  0
  4 57  1  0  0  0
  4 58  1  0  0  0
  5  6  2  0  0  0
  5 36  1  0  0  0
  6  7  1  0  0  0
  6 56  1  0  0  0
  7  8  1  0  0  0
  7 10  1  0  0  0
  7 55  1  0  0  0
  8  9  1  0  0  0
 10 11  1  0  0  0
 10 25  1  0  0  0
 10 51  1  0  0  0
 11 12  1  0  0  0
 11 31  1  0  0  0
 11 50  1  0  0  0
 12 13  1  0  0  0
 12 24  1  0  0  0
 12 30  1  0  0  0
 13 14  1  0  0  0
 13 16  1  0  0  0
 13 20  1  0  0  0
 14 15  1  0  0  0
 16 17  1  0  0  0
 16 18  1  0  0  0
 16 19  1  0  0  0
 20 21  1  0  0  0
 20 22  1  0  0  0
 20 23  1  0  0  0
 24 25  1  0  0  0
 24 28  1  0  0  0
 24 29  1  0  0  0
 25 26  1  0  0  0
 25 27  1  0  0  0
 31 32  1  0  0  0
 31 48  1  0  0  0
 31 49  1  0  0  0
 32 33  1  0  0  0
 32 46  1  0  0  0
 32 47  1  0  0  0
 33 34  2  0  0  0
 33 42  1  0  0  0
 34 35  1  0  0  0
 34 41  1  0  0  0
 35 36  1  0  0  0
 35 39  1  0  0  0
 35 40  1  0  0  0
 36 37  1  0  0  0
 36 38  1  0  0  0
 42 43  1  0  0  0
 42 44  1  0  0  0
 42 45  1  0  0  0
 51 52  1  0  0  0
 51 53  1  0  0  0
 51 54  1  0  0  0
 59 60  1  0  0  0
 59 74  1  0  0  0
 59 75  1  0  0  0
 60 61  1  0  0  0
 60 63  1  0  0  0
 60 70  1  0  0  0
 61 62  1  0  0  0
 63 64  1  0  0  0
 63 68  1  0  0  0
 63 69  1  0  0  0
 64 65  2  0  0  0
 64 66  1  0  0  0
 66 67  1  0  0  0
 70 71  1  0  0  0
 70 72  1  0  0  0
 70 73  1  0  0  0
M  END
> <Tumorigenic>
none

> <Score>
43.407967

> <Active/Decoy>
active

> <InChI>
InChI=1S/C26H42O7/c1-17-7-6-8-18(16-33-23(30)15-25(4,32)14-22(28)29)13-21(27)26(5)12-11-19(24(2,3)31)20(26)10-9-17/h7,13,19-21,27,31-32H,6,8-12,14-16H2,1-5H3,(H,28,29)/b17-7+,18-13-/t19-,20+,21+,25-,26+/m1/s1

> <Matching Features>
H:14924486185440016873|HBA:149238150533300697|HBA:14924321692640012300|HBA:14924486112070016868

> <Mol. Index>
520

> <Pharmacophore Match>
Model -1

> <# Confs.>
25

> <Source Database>
Pharm-Screening-input-NANPDB_After_DataWarror.ldb

> <Pharmacophore-Fit Score>
43.41

> <formula>
C26H42O7

> <Mutagenic>
none

> <Reproductive Effective>
none

> <Irritant>
none

$$$$
byzantionoside B 6'-O-sulfate
XX    ILIB03122402103D

 62 63  0  0  1  0              1 V2000
   -4.5264    0.6805   -3.4560 S   0  0  0  0  0
   -3.7032    1.6682   -4.1276 O   0  0  0  0  0
   -5.9740    0.7688   -3.5035 O   0  0  0  0  0
   -4.0817   -0.8011   -3.9843 O   0  0  0  0  0
   -4.7410   -1.9546   -3.4756 C   0  0  0  0  0
   -3.7471   -2.8771   -2.7849 C   0  0  1  0  0
   -3.1536   -2.1326   -1.7075 O   0  0  0  0  0
   -2.1277   -2.8477   -0.9811 C   0  0  2  0  0
   -1.0028   -3.1487   -1.7947 O   0  0  0  0  0
   -0.3808   -2.0215   -2.3992 C   0  0  1  0  0
    0.0953   -1.0152   -1.3555 C   0  0  0  0  0
    0.7706    0.2568   -1.8868 C   0  0  0  0  0
    1.2518    1.2654   -0.8349 C   0  0  1  0  0
    2.2800    0.6254    0.0935 C   0  0  0  0  0
    3.6016    0.7284   -0.1173 C   0  0  0  0  0
    4.1376    1.4935   -1.2661 C   0  0  0  0  0
    5.3446    1.4556   -1.5074 O   0  0  0  0  0
    3.1886    2.2862   -2.1394 C   0  0  0  0  0
    1.8345    2.5803   -1.4629 C   0  0  0  0  0
    2.0203    3.6566   -0.3616 C   0  0  0  0  0
    1.0617    3.8949    0.1134 H   0  0  0  0  0
    2.7079    3.3431    0.4290 H   0  0  0  0  0
    2.4208    4.5864   -0.7829 H   0  0  0  0  0
    0.8829    3.1916   -2.5128 C   0  0  0  0  0
    1.2367    4.1772   -2.8375 H   0  0  0  0  0
    0.8114    2.5736   -3.4137 H   0  0  0  0  0
   -0.1250    3.3195   -2.1041 H   0  0  0  0  0
    3.0473    1.7116   -3.0622 H   0  0  0  0  0
    3.6845    3.2257   -2.4088 H   0  0  0  0  0
    4.3267    0.2734    0.5506 H   0  0  0  0  0
    1.7632   -0.0836    1.3167 C   0  0  0  0  0
    2.5728   -0.3679    1.9977 H   0  0  0  0  0
    1.0860    0.5699    1.8757 H   0  0  0  0  0
    1.2270   -0.9969    1.0515 H   0  0  0  0  0
    0.3789    1.5552   -0.2326 H   0  0  0  0  0
    0.0853    0.7621   -2.5789 H   0  0  0  0  0
    1.6360   -0.0523   -2.4888 H   0  0  0  0  0
    0.7813   -1.5203   -0.6624 H   0  0  0  0  0
   -0.7759   -0.7181   -0.7560 H   0  0  0  0  0
    0.8048   -2.5460   -3.2047 C   0  0  0  0  0
    1.5153   -3.0679   -2.5546 H   0  0  0  0  0
    0.4709   -3.2712   -3.9538 H   0  0  0  0  0
    1.3340   -1.7329   -3.7112 H   0  0  0  0  0
   -1.0908   -1.5517   -3.1028 H   0  0  0  0  0
   -2.6855   -4.1322   -0.3773 C   0  0  1  0  0
   -3.5981   -3.8018    0.6649 O   0  0  0  0  0
   -4.2905   -3.2284    0.2952 H   0  0  0  0  0
   -3.3986   -4.9708   -1.4580 C   0  0  1  0  0
   -4.0133   -6.1144   -0.8774 O   0  0  0  0  0
   -4.5830   -5.8081   -0.1512 H   0  0  0  0  0
   -4.4174   -4.1496   -2.2510 C   0  0  1  0  0
   -5.5197   -3.7867   -1.4200 O   0  0  0  0  0
   -5.9711   -4.6074   -1.1603 H   0  0  0  0  0
   -4.8245   -4.7440   -3.0757 H   0  0  0  0  0
   -2.6432   -5.3446   -2.1600 H   0  0  0  0  0
   -1.8921   -4.7292    0.0644 H   0  0  0  0  0
   -1.8144   -2.1843   -0.1699 H   0  0  0  0  0
   -2.9525   -3.1379   -3.4949 H   0  0  0  0  0
   -5.5481   -1.6678   -2.7919 H   0  0  0  0  0
   -5.1909   -2.4649   -4.3332 H   0  0  0  0  0
   -4.0824    0.6524   -1.8878 O   0  0  0  0  0
   -3.1731    0.3126   -1.7144 H   0  0  0  0  0
  1  2  2  0  0  0
  1  3  2  0  0  0
  1  4  1  0  0  0
  1 61  1  0  0  0
  4  5  1  0  0  0
  5  6  1  0  0  0
  5 59  1  0  0  0
  5 60  1  0  0  0
  6  7  1  0  0  0
  6 51  1  0  0  0
  6 58  1  0  0  0
  7  8  1  0  0  0
  8  9  1  0  0  0
  8 45  1  0  0  0
  8 57  1  0  0  0
  9 10  1  0  0  0
 10 11  1  0  0  0
 10 40  1  0  0  0
 10 44  1  0  0  0
 11 12  1  0  0  0
 11 38  1  0  0  0
 11 39  1  0  0  0
 12 13  1  0  0  0
 12 36  1  0  0  0
 12 37  1  0  0  0
 13 14  1  0  0  0
 13 19  1  0  0  0
 13 35  1  0  0  0
 14 15  2  0  0  0
 14 31  1  0  0  0
 15 16  1  0  0  0
 15 30  1  0  0  0
 16 17  2  0  0  0
 16 18  1  0  0  0
 18 19  1  0  0  0
 18 28  1  0  0  0
 18 29  1  0  0  0
 19 20  1  0  0  0
 19 24  1  0  0  0
 20 21  1  0  0  0
 20 22  1  0  0  0
 20 23  1  0  0  0
 24 25  1  0  0  0
 24 26  1  0  0  0
 24 27  1  0  0  0
 31 32  1  0  0  0
 31 33  1  0  0  0
 31 34  1  0  0  0
 40 41  1  0  0  0
 40 42  1  0  0  0
 40 43  1  0  0  0
 45 46  1  0  0  0
 45 48  1  0  0  0
 45 56  1  0  0  0
 46 47  1  0  0  0
 48 49  1  0  0  0
 48 51  1  0  0  0
 48 55  1  0  0  0
 49 50  1  0  0  0
 51 52  1  0  0  0
 51 54  1  0  0  0
 52 53  1  0  0  0
 61 62  1  0  0  0
M  END
> <Tumorigenic>
none

> <Score>
43.373474

> <Active/Decoy>
active

> <InChI>
InChI=1S/C19H32O10S/c1-10-7-12(20)8-19(3,4)13(10)6-5-11(2)28-18-17(23)16(22)15(21)14(29-18)9-27-30(24,25)26/h7,11,13-18,21-23H,5-6,8-9H2,1-4H3,(H,24,25,26)/t11-,13+,14-,15+,16+,17+,18+/m1/s1

> <Matching Features>
H:14924486185440016873|HBA:149238150533300697|HBA:14924321692640012300|HBA:14924486112070016868

> <Mol. Index>
8

> <Pharmacophore Match>
Model -1

> <# Confs.>
25

> <Source Database>
Pharm-Screening-input-NANPDB_After_DataWarror.ldb

> <Pharmacophore-Fit Score>
43.37

> <formula>
C19H32O10S

> <Mutagenic>
none

> <Reproductive Effective>
none

> <Irritant>
none

$$$$
neochlorogenic acid
XX    ILIB03122402103D

 43 44  0  0  1  0              1 V2000
   -3.4588    1.1155    1.8767 O   0  0  0  0  0
   -2.6549    0.9523    0.9769 C   0  0  0  0  0
   -2.9204    0.9018   -0.3444 O   0  0  0  0  0
   -4.2905    1.0397   -0.7388 C   0  0  1  0  0
   -4.8208    2.4086   -0.2685 C   0  0  1  0  0
   -3.9810    3.4430   -0.7820 O   0  0  0  0  0
   -4.3331    4.2903   -0.4621 H   0  0  0  0  0
   -6.2556    2.6380   -0.7453 C   0  0  2  0  0
   -7.1190    1.7215   -0.0840 O   0  0  0  0  0
   -8.0222    1.8848   -0.4037 H   0  0  0  0  0
   -6.3816    2.5020   -2.2670 C   0  0  0  0  0
   -5.7343    1.2412   -2.8632 C   0  0  2  0  0
   -5.5380    1.5164   -4.2618 O   0  0  0  0  0
   -5.0443    0.7727   -4.6475 H   0  0  0  0  0
   -6.6914    0.0840   -2.8808 C   0  0  0  0  0
   -6.7331   -0.7841   -2.0199 O   0  0  0  0  0
   -7.5083    0.1023   -3.9634 O   0  0  0  0  0
   -7.3642    0.8528   -4.5792 H   0  0  0  0  0
   -4.3604    0.9127   -2.2634 C   0  0  0  0  0
   -4.0524   -0.1025   -2.5496 H   0  0  0  0  0
   -3.5961    1.5584   -2.7187 H   0  0  0  0  0
   -5.9215    3.3855   -2.7312 H   0  0  0  0  0
   -7.4419    2.5365   -2.5507 H   0  0  0  0  0
   -6.5771    3.6481   -0.4627 H   0  0  0  0  0
   -4.7669    2.4573    0.8250 H   0  0  0  0  0
   -4.8740    0.2420   -0.2778 H   0  0  0  0  0
   -1.2064    0.7843    1.2445 C   0  0  0  0  0
   -0.2788    0.6020    0.2917 C   0  0  0  0  0
    1.1519    0.4106    0.5543 C   0  0  0  0  0
    2.1096    0.8403   -0.3826 C   0  0  0  0  0
    3.4737    0.6678   -0.1352 C   0  0  0  0  0
    4.3598    1.1017   -1.0819 O   0  0  0  0  0
    5.2586    0.9100   -0.7637 H   0  0  0  0  0
    3.9074    0.0704    1.0420 C   0  0  0  0  0
    5.2460   -0.0850    1.2595 O   0  0  0  0  0
    5.3715   -0.5212    2.1191 H   0  0  0  0  0
    2.9782   -0.3619    1.9828 C   0  0  0  0  0
    1.6127   -0.1906    1.7392 C   0  0  0  0  0
    0.9159   -0.5451    2.4958 H   0  0  0  0  0
    3.2999   -0.8344    2.9061 H   0  0  0  0  0
    1.8088    1.3145   -1.3035 H   0  0  0  0  0
   -0.5628    0.5683   -0.7566 H   0  0  0  0  0
   -0.9414    0.7969    2.2982 H   0  0  0  0  0
  1  2  2  0  0  0
  2  3  1  0  0  0
  2 27  1  0  0  0
  3  4  1  0  0  0
  4  5  1  0  0  0
  4 19  1  0  0  0
  4 26  1  0  0  0
  5  6  1  0  0  0
  5  8  1  0  0  0
  5 25  1  0  0  0
  6  7  1  0  0  0
  8  9  1  0  0  0
  8 11  1  0  0  0
  8 24  1  0  0  0
  9 10  1  0  0  0
 11 12  1  0  0  0
 11 22  1  0  0  0
 11 23  1  0  0  0
 12 13  1  0  0  0
 12 15  1  0  0  0
 12 19  1  0  0  0
 13 14  1  0  0  0
 15 16  2  0  0  0
 15 17  1  0  0  0
 17 18  1  0  0  0
 19 20  1  0  0  0
 19 21  1  0  0  0
 27 28  2  0  0  0
 27 43  1  0  0  0
 28 29  1  0  0  0
 28 42  1  0  0  0
 29 30  2  0  0  0
 29 38  1  0  0  0
 30 31  1  0  0  0
 30 41  1  0  0  0
 31 32  1  0  0  0
 31 34  2  0  0  0
 32 33  1  0  0  0
 34 35  1  0  0  0
 34 37  1  0  0  0
 35 36  1  0  0  0
 37 38  2  0  0  0
 37 40  1  0  0  0
 38 39  1  0  0  0
M  END
> <Tumorigenic>
none

> <Score>
43.342636

> <Active/Decoy>
active

> <InChI>
InChI=1S/C16H18O9/c17-9-3-1-8(5-10(9)18)2-4-13(20)25-12-7-16(24,15(22)23)6-11(19)14(12)21/h1-5,11-12,14,17-19,21,24H,6-7H2,(H,22,23)/b4-2+/t11-,12-,14+,16-/m1/s1

> <Matching Features>
H:14924486185440016873|HBA:149238150533300697|HBA:14924321692640012300|HBA:14924486112070016868

> <Mol. Index>
1087

> <Pharmacophore Match>
Model -1

> <# Confs.>
25

> <Source Database>
Pharm-Screening-input-NANPDB_After_DataWarror.ldb

> <Pharmacophore-Fit Score>
43.34

> <formula>
C16H18O9

> <Mutagenic>
none

> <Reproductive Effective>
none

> <Irritant>
none

$$$$
mussaenosidic acid
XX    ILIB03122402103D

 50 52  0  0  1  0              1 V2000
    2.4958    3.5887   -1.3760 O   0  0  0  0  0
    2.6770    2.3886   -1.5123 C   0  0  0  0  0
    3.7110    1.8480   -2.1981 O   0  0  0  0  0
    4.3021    2.5346   -2.5747 H   0  0  0  0  0
    1.8150    1.3268   -0.9639 C   0  0  0  0  0
    0.7462    1.7216   -0.2587 C   0  0  0  0  0
   -0.1964    0.8976    0.2971 O   0  0  0  0  0
   -0.2551   -0.4099   -0.2925 C   0  0  1  0  0
   -0.9030   -0.3931   -1.5531 O   0  0  0  0  0
   -2.2086    0.1973   -1.5237 C   0  0  2  0  0
   -3.0740   -0.5302   -0.6357 O   0  0  0  0  0
   -4.3878    0.0334   -0.5629 C   0  0  1  0  0
   -5.0694   -0.0737   -1.9303 C   0  0  1  0  0
   -6.3432    0.5607   -1.8634 O   0  0  0  0  0
   -6.7994    0.3946   -2.7073 H   0  0  0  0  0
   -4.2205    0.5995   -3.0088 C   0  0  2  0  0
   -4.7385    0.2668   -4.2997 O   0  0  0  0  0
   -5.6302    0.6484   -4.3656 H   0  0  0  0  0
   -2.7749    0.1135   -2.9446 C   0  0  1  0  0
   -1.9717    0.9463   -3.8031 O   0  0  0  0  0
   -2.0067    1.8570   -3.4644 H   0  0  0  0  0
   -2.6917   -0.8941   -3.3390 H   0  0  0  0  0
   -4.2766    1.6921   -2.9236 H   0  0  0  0  0
   -5.2326   -1.1267   -2.1932 H   0  0  0  0  0
   -5.1511   -0.7288    0.5039 C   0  0  0  0  0
   -4.4924   -0.6013    1.7537 O   0  0  0  0  0
   -5.0147   -1.1028    2.4038 H   0  0  0  0  0
   -5.2316   -1.7915    0.2473 H   0  0  0  0  0
   -6.1691   -0.3369    0.5969 H   0  0  0  0  0
   -4.3067    1.0818   -0.2475 H   0  0  0  0  0
   -2.1150    1.2302   -1.1902 H   0  0  0  0  0
    1.1177   -1.0597   -0.4767 C   0  0  2  0  0
    1.8248   -1.5947    0.7887 C   0  0  1  0  0
    1.3056   -2.8754    1.1389 O   0  0  0  0  0
    0.3746   -2.7603    1.3933 H   0  0  0  0  0
    3.2553   -1.7667    0.2779 C   0  0  0  0  0
    3.5046   -0.5244   -0.5677 C   0  0  0  0  0
    2.1360   -0.1294   -1.1644 C   0  0  2  0  0
    2.1257   -0.3418   -2.2413 H   0  0  0  0  0
    3.9197    0.2721    0.0613 H   0  0  0  0  0
    4.2385   -0.7289   -1.3539 H   0  0  0  0  0
    3.9881   -1.8722    1.0847 H   0  0  0  0  0
    3.3374   -2.6686   -0.3424 H   0  0  0  0  0
    1.7687   -0.7096    2.0323 C   0  0  0  0  0
    2.1968    0.2829    1.8705 H   0  0  0  0  0
    0.7398   -0.5941    2.3891 H   0  0  0  0  0
    2.3195   -1.1798    2.8563 H   0  0  0  0  0
    0.9646   -1.9300   -1.1428 H   0  0  0  0  0
   -0.8581   -1.0397    0.3934 H   0  0  0  0  0
    0.5093    2.7503   -0.0211 H   0  0  0  0  0
  1  2  2  0  0  0
  2  3  1  0  0  0
  2  5  1  0  0  0
  3  4  1  0  0  0
  5  6  2  0  0  0
  5 38  1  0  0  0
  6  7  1  0  0  0
  6 50  1  0  0  0
  7  8  1  0  0  0
  8  9  1  0  0  0
  8 32  1  0  0  0
  8 49  1  0  0  0
  9 10  1  0  0  0
 10 11  1  0  0  0
 10 19  1  0  0  0
 10 31  1  0  0  0
 11 12  1  0  0  0
 12 13  1  0  0  0
 12 25  1  0  0  0
 12 30  1  0  0  0
 13 14  1  0  0  0
 13 16  1  0  0  0
 13 24  1  0  0  0
 14 15  1  0  0  0
 16 17  1  0  0  0
 16 19  1  0  0  0
 16 23  1  0  0  0
 17 18  1  0  0  0
 19 20  1  0  0  0
 19 22  1  0  0  0
 20 21  1  0  0  0
 25 26  1  0  0  0
 25 28  1  0  0  0
 25 29  1  0  0  0
 26 27  1  0  0  0
 32 33  1  0  0  0
 32 38  1  0  0  0
 32 48  1  0  0  0
 33 34  1  0  0  0
 33 36  1  0  0  0
 33 44  1  0  0  0
 34 35  1  0  0  0
 36 37  1  0  0  0
 36 42  1  0  0  0
 36 43  1  0  0  0
 37 38  1  0  0  0
 37 40  1  0  0  0
 37 41  1  0  0  0
 38 39  1  0  0  0
 44 45  1  0  0  0
 44 46  1  0  0  0
 44 47  1  0  0  0
M  END
> <Tumorigenic>
none

> <Score>
43.33628

> <Active/Decoy>
active

> <InChI>
InChI=1S/C16H24O10/c1-16(23)3-2-6-7(13(21)22)5-24-14(9(6)16)26-15-12(20)11(19)10(18)8(4-17)25-15/h5-6,8-12,14-15,17-20,23H,2-4H2,1H3,(H,21,22)/t6-,8-,9-,10-,11+,12-,14+,15+,16+/m1/s1

> <Matching Features>
H:14924486185440016873|HBA:149238150533300697|HBA:14924321692640012300|HBA:14924486112070016868

> <Mol. Index>
759

> <Pharmacophore Match>
Model -1

> <# Confs.>
25

> <Source Database>
Pharm-Screening-input-NANPDB_After_DataWarror.ldb

> <Pharmacophore-Fit Score>
43.34

> <formula>
C16H24O10

> <Mutagenic>
none

> <Reproductive Effective>
none

> <Irritant>
none

$$$$
angeloside
XX    ILIB03122402103D

 48 50  0  0  1  0              1 V2000
   -0.1420    1.5342    0.2469 O   0  0  0  0  0
    0.6294    2.6432    0.0365 C   0  0  0  0  0
    1.7734    2.6827   -0.6537 C   0  0  0  0  0
    2.3970    1.4492   -1.2372 C   0  0  1  0  0
    3.7692    1.1781   -0.5860 C   0  0  2  0  0
    4.8403    1.5415   -1.4392 O   0  0  0  0  0
    4.7408    2.4858   -1.6465 H   0  0  0  0  0
    3.7901   -0.3172   -0.2691 C   0  0  2  0  0
    4.1233   -1.0719   -1.4315 O   0  0  0  0  0
    5.0050   -0.7793   -1.7218 H   0  0  0  0  0
    2.3339   -0.6178    0.1116 C   0  0  2  0  0
    1.5583    0.1861   -0.9649 C   0  0  1  0  0
    0.0774    0.4819   -0.6903 C   0  0  2  0  0
   -0.5527    0.7570   -1.9394 O   0  0  0  0  0
   -1.9476    1.0521   -1.8411 C   0  0  2  0  0
   -2.6703   -0.0550   -1.2843 O   0  0  0  0  0
   -4.0724    0.2060   -1.1574 C   0  0  1  0  0
   -4.6850    0.3930   -2.5470 C   0  0  1  0  0
   -6.0612    0.7347   -2.4153 O   0  0  0  0  0
   -6.4144    0.8677   -3.3117 H   0  0  0  0  0
   -3.9638    1.5047   -3.3085 C   0  0  2  0  0
   -4.4098    1.5125   -4.6659 O   0  0  0  0  0
   -4.1891    0.6507   -5.0589 H   0  0  0  0  0
   -2.4507    1.3058   -3.2747 C   0  0  1  0  0
   -1.8364    2.5030   -3.7721 O   0  0  0  0  0
   -0.8742    2.3887   -3.6945 H   0  0  0  0  0
   -2.1556    0.4983   -3.9460 H   0  0  0  0  0
   -4.2354    2.4850   -2.8997 H   0  0  0  0  0
   -4.6285   -0.5435   -3.1159 H   0  0  0  0  0
   -4.6907   -0.9726   -0.4254 C   0  0  0  0  0
   -4.4740   -2.1672   -1.1699 O   0  0  0  0  0
   -3.5136   -2.2656   -1.2882 H   0  0  0  0  0
   -4.2482   -1.1117    0.5660 H   0  0  0  0  0
   -5.7721   -0.8428   -0.3150 H   0  0  0  0  0
   -4.2105    1.1054   -0.5421 H   0  0  0  0  0
   -2.0865    1.9452   -1.2319 H   0  0  0  0  0
   -0.3914   -0.4335   -0.2812 H   0  0  0  0  0
    1.6012   -0.4277   -1.8850 H   0  0  0  0  0
    2.0306   -0.2487    1.5618 C   0  0  0  0  0
    0.9900   -0.4737    1.8140 H   0  0  0  0  0
    2.2125    0.8073    1.7764 H   0  0  0  0  0
    2.6620   -0.8343    2.2390 H   0  0  0  0  0
    2.1174   -1.6857   -0.0183 H   0  0  0  0  0
    4.5079   -0.5721    0.5166 H   0  0  0  0  0
    3.8851    1.7436    0.3471 H   0  0  0  0  0
    2.4970    1.6015   -2.3192 H   0  0  0  0  0
    2.3028    3.6250   -0.7543 H   0  0  0  0  0
    0.2246    3.5008    0.5401 H   0  0  0  0  0
  1  2  1  0  0  0
  1 13  1  0  0  0
  2  3  2  0  0  0
  2 48  1  0  0  0
  3  4  1  0  0  0
  3 47  1  0  0  0
  4  5  1  0  0  0
  4 12  1  0  0  0
  4 46  1  0  0  0
  5  6  1  0  0  0
  5  8  1  0  0  0
  5 45  1  0  0  0
  6  7  1  0  0  0
  8  9  1  0  0  0
  8 11  1  0  0  0
  8 44  1  0  0  0
  9 10  1  0  0  0
 11 12  1  0  0  0
 11 39  1  0  0  0
 11 43  1  0  0  0
 12 13  1  0  0  0
 12 38  1  0  0  0
 13 14  1  0  0  0
 13 37  1  0  0  0
 14 15  1  0  0  0
 15 16  1  0  0  0
 15 24  1  0  0  0
 15 36  1  0  0  0
 16 17  1  0  0  0
 17 18  1  0  0  0
 17 30  1  0  0  0
 17 35  1  0  0  0
 18 19  1  0  0  0
 18 21  1  0  0  0
 18 29  1  0  0  0
 19 20  1  0  0  0
 21 22  1  0  0  0
 21 24  1  0  0  0
 21 28  1  0  0  0
 22 23  1  0  0  0
 24 25  1  0  0  0
 24 27  1  0  0  0
 25 26  1  0  0  0
 30 31  1  0  0  0
 30 33  1  0  0  0
 30 34  1  0  0  0
 31 32  1  0  0  0
 39 40  1  0  0  0
 39 41  1  0  0  0
 39 42  1  0  0  0
M  END
> <Tumorigenic>
none

> <Score>
43.336636

> <Active/Decoy>
active

> <InChI>
InChI=1S/C15H24O9/c1-5-8-6(10(18)9(5)17)2-3-22-14(8)24-15-13(21)12(20)11(19)7(4-16)23-15/h2-3,5-21H,4H2,1H3/t5-,6+,7+,8+,9+,10-,11+,12-,13+,14-,15-/m0/s1

> <Matching Features>
H:14924486185440016873|HBA:149238150533300697|HBA:14924321692640012300|HBA:14924486112070016868

> <Mol. Index>
755

> <Pharmacophore Match>
Model -1

> <# Confs.>
25

> <Source Database>
Pharm-Screening-input-NANPDB_After_DataWarror.ldb

> <Pharmacophore-Fit Score>
43.34

> <formula>
C15H24O9

> <Mutagenic>
none

> <Reproductive Effective>
none

> <Irritant>
none

$$$$
subereamine B
XX    ILIB03122402103D

 46 46  0  0  1  0              1 V2000
    3.2259    1.0963   -4.0448 Br  0  0  0  0  0
    2.4095    0.4984   -2.4391 C   0  0  0  0  0
    3.0629    0.5868   -1.2057 C   0  0  0  0  0
    4.3282    1.0963   -1.1372 O   0  0  0  0  0
    4.8978    1.1394    0.1688 C   0  0  0  0  0
    4.3196    1.7908    0.8322 H   0  0  0  0  0
    4.9968    0.1340    0.5911 H   0  0  0  0  0
    5.9046    1.5635    0.0798 H   0  0  0  0  0
    2.4407    0.0872   -0.0552 C   0  0  0  0  0
    3.3089    0.1140    1.6336 Br  0  0  0  0  0
    1.1586   -0.4583   -0.1298 C   0  0  0  0  0
    0.4934   -0.5240   -1.3605 C   0  0  0  0  0
    1.1245   -0.0494   -2.5167 C   0  0  0  0  0
    0.6139   -0.1122   -3.4745 H   0  0  0  0  0
   -0.8485   -1.1080   -1.4407 C   0  0  0  0  0
   -1.7816   -0.7419   -2.3325 C   0  0  0  0  0
   -3.1302   -1.3433   -2.3998 C   0  0  0  0  0
   -3.4954   -2.2306   -1.6348 O   0  0  0  0  0
   -3.8998   -0.7810   -3.3938 N   0  0  0  0  0
   -5.2615   -1.1974   -3.6865 C   0  0  1  0  0
   -6.1647   -0.0215   -3.5219 C   0  0  0  0  0
   -5.8309    1.1357   -3.7212 O   0  0  0  0  0
   -7.4085   -0.3801   -3.1041 O   0  0  0  0  0
   -7.5393   -1.3429   -2.9699 H   0  0  0  0  0
   -5.4474   -1.9159   -5.0180 C   0  0  0  0  0
   -4.6264   -3.1996   -5.1713 C   0  0  0  0  0
   -4.9369   -4.2708   -4.1221 C   0  0  0  0  0
   -6.3538   -4.6314   -4.2359 N   0  0  0  0  0
   -6.9551   -5.0200   -3.1517 C   0  0  0  0  0
   -6.4171   -5.1386   -1.8895 N   0  0  0  0  0
   -6.9798   -5.4571   -1.1084 H   0  0  0  0  0
   -5.4477   -4.9170   -1.6941 H   0  0  0  0  0
   -8.2834   -5.3735   -3.1759 N   0  0  0  0  0
   -8.8184   -5.3361   -4.0357 H   0  0  0  0  0
   -8.7675   -5.6750   -2.3377 H   0  0  0  0  0
   -4.3089   -5.1530   -4.2988 H   0  0  0  0  0
   -4.7137   -3.8815   -3.1208 H   0  0  0  0  0
   -3.5591   -2.9492   -5.1184 H   0  0  0  0  0
   -4.7997   -3.6217   -6.1697 H   0  0  0  0  0
   -5.1834   -1.2265   -5.8309 H   0  0  0  0  0
   -6.5104   -2.1584   -5.1464 H   0  0  0  0  0
   -5.4835   -1.9099   -2.8708 H   0  0  0  0  0
   -3.5227   -0.0069   -3.9409 H   0  0  0  0  0
   -1.5916    0.0323   -3.0702 H   0  0  0  0  0
   -1.0569   -1.8874   -0.7125 H   0  0  0  0  0
    0.6739   -0.8401    0.7666 H   0  0  0  0  0
  1  2  1  0  0  0
  2  3  2  0  0  0
  2 13  1  0  0  0
  3  4  1  0  0  0
  3  9  1  0  0  0
  4  5  1  0  0  0
  5  6  1  0  0  0
  5  7  1  0  0  0
  5  8  1  0  0  0
  9 10  1  0  0  0
  9 11  2  0  0  0
 11 12  1  0  0  0
 11 46  1  0  0  0
 12 13  2  0  0  0
 12 15  1  0  0  0
 13 14  1  0  0  0
 15 16  2  0  0  0
 15 45  1  0  0  0
 16 17  1  0  0  0
 16 44  1  0  0  0
 17 18  2  0  0  0
 17 19  1  0  0  0
 19 20  1  0  0  0
 19 43  1  0  0  0
 20 21  1  0  0  0
 20 25  1  0  0  0
 20 42  1  0  0  0
 21 22  2  0  0  0
 21 23  1  0  0  0
 23 24  1  0  0  0
 25 26  1  0  0  0
 25 40  1  0  0  0
 25 41  1  0  0  0
 26 27  1  0  0  0
 26 38  1  0  0  0
 26 39  1  0  0  0
 27 28  1  0  0  0
 27 36  1  0  0  0
 27 37  1  0  0  0
 28 29  2  0  0  0
 29 30  1  0  0  0
 29 33  1  0  0  0
 30 31  1  0  0  0
 30 32  1  0  0  0
 33 34  1  0  0  0
 33 35  1  0  0  0
M  END
> <Tumorigenic>
none

> <Score>
43.34351

> <Active/Decoy>
active

> <InChI>
InChI=1S/C16H20Br2N4O4/c1-26-14-10(17)7-9(8-11(14)18)4-5-13(23)22-12(15(24)25)3-2-6-21-16(19)20/h4-5,7-8,12H,2-3,6H2,1H3,(H,22,23)(H,24,25)(H4,19,20,21)/b5-4+/t12-/m1/s1

> <Matching Features>
H:14924486185440016873|HBA:149238150533300697|HBA:14924321692640012300|HBA:14924486112070016868

> <Mol. Index>
87

> <Pharmacophore Match>
Model -1

> <# Confs.>
25

> <Source Database>
Pharm-Screening-input-NANPDB_After_DataWarror.ldb

> <Pharmacophore-Fit Score>
43.34

> <formula>
C16H20Br2N4O4

> <Mutagenic>
none

> <Reproductive Effective>
none

> <Irritant>
none

$$$$
(+)-1,2-bis-(4-hydroxy-3-methoxyphenyl)-propane-1,3-diol [erythro form]
XX    ILIB03122402103D

 43 44  0  0  1  0              1 V2000
   -5.2066    1.3307   -3.5877 O   0  0  0  0  0
   -4.5067    0.4749   -2.7846 C   0  0  0  0  0
   -5.2485   -0.5434   -2.1792 C   0  0  0  0  0
   -6.5958   -0.6588   -2.3859 O   0  0  0  0  0
   -6.8733    0.0634   -2.9760 H   0  0  0  0  0
   -4.6423   -1.4761   -1.3421 C   0  0  0  0  0
   -3.2720   -1.3975   -1.1001 C   0  0  0  0  0
   -2.5016   -0.3870   -1.6906 C   0  0  0  0  0
   -3.1303    0.5444   -2.5371 C   0  0  0  0  0
   -2.5187    1.3155   -2.9980 H   0  0  0  0  0
   -1.0204   -0.3355   -1.4164 C   0  0  1  0  0
   -0.3725    0.2470   -2.5714 O   0  0  0  0  0
   -0.7175   -0.1958   -3.3656 H   0  0  0  0  0
   -0.6630    0.5167   -0.1983 C   0  0  2  0  0
   -1.1043    1.9844   -0.3208 C   0  0  0  0  0
   -2.4097    2.1416    0.1905 O   0  0  0  0  0
   -2.6475    3.0780    0.0877 H   0  0  0  0  0
   -1.0816    2.3089   -1.3708 H   0  0  0  0  0
   -0.4179    2.6416    0.2318 H   0  0  0  0  0
    0.8111    0.4111    0.1998 C   0  0  0  0  0
    1.8315    0.7957   -0.6906 C   0  0  0  0  0
    3.1782    0.7028   -0.3210 C   0  0  0  0  0
    4.2372    1.0495   -1.1121 O   0  0  0  0  0
    3.8955    1.5331   -2.4088 C   0  0  0  0  0
    3.3713    0.7669   -2.9899 H   0  0  0  0  0
    4.8272    1.7709   -2.9312 H   0  0  0  0  0
    3.3035    2.4520   -2.3459 H   0  0  0  0  0
    3.4955    0.2267    0.9541 C   0  0  0  0  0
    4.7959    0.1162    1.3683 O   0  0  0  0  0
    5.3692    0.4032    0.6372 H   0  0  0  0  0
    2.4992   -0.1533    1.8497 C   0  0  0  0  0
    1.1610   -0.0597    1.4723 C   0  0  0  0  0
    0.3916   -0.3574    2.1801 H   0  0  0  0  0
    2.7555   -0.5225    2.8386 H   0  0  0  0  0
    1.5447    1.1703   -1.6694 H   0  0  0  0  0
   -1.2305    0.1132    0.6530 H   0  0  0  0  0
   -0.6210   -1.3394   -1.3155 H   0  0  0  0  0
   -2.8099   -2.1329   -0.4466 H   0  0  0  0  0
   -5.2274   -2.2640   -0.8764 H   0  0  0  0  0
   -4.4344    2.3621   -4.1978 C   0  0  0  0  0
   -3.9852    3.0165   -3.4422 H   0  0  0  0  0
   -5.1110    2.9676   -4.8064 H   0  0  0  0  0
   -3.6697    1.9457   -4.8607 H   0  0  0  0  0
  1  2  1  0  0  0
  1 40  1  0  0  0
  2  3  2  0  0  0
  2  9  1  0  0  0
  3  4  1  0  0  0
  3  6  1  0  0  0
  4  5  1  0  0  0
  6  7  2  0  0  0
  6 39  1  0  0  0
  7  8  1  0  0  0
  7 38  1  0  0  0
  8  9  2  0  0  0
  8 11  1  0  0  0
  9 10  1  0  0  0
 11 12  1  0  0  0
 11 14  1  0  0  0
 11 37  1  0  0  0
 12 13  1  0  0  0
 14 15  1  0  0  0
 14 20  1  0  0  0
 14 36  1  0  0  0
 15 16  1  0  0  0
 15 18  1  0  0  0
 15 19  1  0  0  0
 16 17  1  0  0  0
 20 21  2  0  0  0
 20 32  1  0  0  0
 21 22  1  0  0  0
 21 35  1  0  0  0
 22 23  1  0  0  0
 22 28  2  0  0  0
 23 24  1  0  0  0
 24 25  1  0  0  0
 24 26  1  0  0  0
 24 27  1  0  0  0
 28 29  1  0  0  0
 28 31  1  0  0  0
 29 30  1  0  0  0
 31 32  2  0  0  0
 31 34  1  0  0  0
 32 33  1  0  0  0
 40 41  1  0  0  0
 40 42  1  0  0  0
 40 43  1  0  0  0
M  END
> <Tumorigenic>
none

> <Score>
43.314228

> <Active/Decoy>
active

> <InChI>
InChI=1S/C17H20O6/c1-22-15-7-10(3-5-13(15)19)12(9-18)17(21)11-4-6-14(20)16(8-11)23-2/h3-8,12,17-21H,9H2,1-2H3/t12-,17-/m1/s1

> <Matching Features>
H:14924486185440016873|HBA:149238150533300697|HBA:14924321692640012300|HBA:14924486112070016868

> <Mol. Index>
257

> <Pharmacophore Match>
Model -1

> <# Confs.>
25

> <Source Database>
Pharm-Screening-input-NANPDB_After_DataWarror.ldb

> <Pharmacophore-Fit Score>
43.31

> <formula>
C17H20O6

> <Mutagenic>
none

> <Reproductive Effective>
none

> <Irritant>
none

$$$$
(+)-1,2-bis-(4-hydroxy-3-methoxyphenyl)-propane-1,3-diol [threo form]
XX    ILIB03122402103D

 43 44  0  0  1  0              1 V2000
   -4.8670    1.1905   -3.4873 O   0  0  0  0  0
   -4.4113    0.3064   -2.5506 C   0  0  0  0  0
   -5.3635   -0.5658   -2.0150 C   0  0  0  0  0
   -6.6727   -0.5201   -2.4140 O   0  0  0  0  0
   -6.7610    0.1909   -3.0707 H   0  0  0  0  0
   -5.0134   -1.5120   -1.0550 C   0  0  0  0  0
   -3.6937   -1.5943   -0.6170 C   0  0  0  0  0
   -2.7169   -0.7320   -1.1328 C   0  0  0  0  0
   -3.0867    0.2148   -2.1055 C   0  0  0  0  0
   -2.3165    0.8693   -2.5057 H   0  0  0  0  0
   -1.2794   -0.8448   -0.6554 C   0  0  1  0  0
   -0.4451   -1.1407   -1.7714 O   0  0  0  0  0
   -0.8629   -1.8563   -2.2834 H   0  0  0  0  0
   -0.7840    0.4350    0.0187 C   0  0  1  0  0
   -1.6117    0.8353    1.2562 C   0  0  0  0  0
   -1.0970    2.0261    1.8286 O   0  0  0  0  0
   -1.6573    2.2412    2.5931 H   0  0  0  0  0
   -1.6216    0.0419    2.0024 H   0  0  0  0  0
   -2.6559    1.0195    0.9569 H   0  0  0  0  0
    0.7163    0.3509    0.3093 C   0  0  0  0  0
    1.6654    0.7858   -0.6346 C   0  0  0  0  0
    3.0366    0.7101   -0.3614 C   0  0  0  0  0
    4.0306    1.1047   -1.2089 O   0  0  0  0  0
    3.5930    1.6226   -2.4636 C   0  0  0  0  0
    3.0439    0.8646   -3.0324 H   0  0  0  0  0
    4.4806    1.8973   -3.0384 H   0  0  0  0  0
    2.9876    2.5262   -2.3278 H   0  0  0  0  0
    3.4485    0.1991    0.8735 C   0  0  0  0  0
    4.7771    0.1027    1.1937 O   0  0  0  0  0
    5.2928    0.4270    0.4359 H   0  0  0  0  0
    2.5244   -0.2310    1.8209 C   0  0  0  0  0
    1.1618   -0.1536    1.5388 C   0  0  0  0  0
    0.4483   -0.4907    2.2864 H   0  0  0  0  0
    2.8540   -0.6252    2.7762 H   0  0  0  0  0
    1.3058    1.1862   -1.5788 H   0  0  0  0  0
   -0.8979    1.2337   -0.7286 H   0  0  0  0  0
   -1.1994   -1.6893    0.0359 H   0  0  0  0  0
   -3.4325   -2.3383    0.1314 H   0  0  0  0  0
   -5.7614   -2.1857   -0.6454 H   0  0  0  0  0
   -3.8841    2.0722   -4.0234 C   0  0  0  0  0
   -3.4604    2.7118   -3.2416 H   0  0  0  0  0
   -4.3787    2.7187   -4.7532 H   0  0  0  0  0
   -3.0975    1.5176   -4.5463 H   0  0  0  0  0
  1  2  1  0  0  0
  1 40  1  0  0  0
  2  3  2  0  0  0
  2  9  1  0  0  0
  3  4  1  0  0  0
  3  6  1  0  0  0
  4  5  1  0  0  0
  6  7  2  0  0  0
  6 39  1  0  0  0
  7  8  1  0  0  0
  7 38  1  0  0  0
  8  9  2  0  0  0
  8 11  1  0  0  0
  9 10  1  0  0  0
 11 12  1  0  0  0
 11 14  1  0  0  0
 11 37  1  0  0  0
 12 13  1  0  0  0
 14 15  1  0  0  0
 14 20  1  0  0  0
 14 36  1  0  0  0
 15 16  1  0  0  0
 15 18  1  0  0  0
 15 19  1  0  0  0
 16 17  1  0  0  0
 20 21  2  0  0  0
 20 32  1  0  0  0
 21 22  1  0  0  0
 21 35  1  0  0  0
 22 23  1  0  0  0
 22 28  2  0  0  0
 23 24  1  0  0  0
 24 25  1  0  0  0
 24 26  1  0  0  0
 24 27  1  0  0  0
 28 29  1  0  0  0
 28 31  1  0  0  0
 29 30  1  0  0  0
 31 32  2  0  0  0
 31 34  1  0  0  0
 32 33  1  0  0  0
 40 41  1  0  0  0
 40 42  1  0  0  0
 40 43  1  0  0  0
M  END
> <Tumorigenic>
none

> <Score>
43.28934

> <Active/Decoy>
active

> <InChI>
InChI=1S/C17H20O6/c1-22-15-7-10(3-5-13(15)19)12(9-18)17(21)11-4-6-14(20)16(8-11)23-2/h3-8,12,17-21H,9H2,1-2H3/t12-,17+/m0/s1

> <Matching Features>
H:14924486185440016873|HBA:149238150533300697|HBA:14924321692640012300|HBA:14924486112070016868

> <Mol. Index>
259

> <Pharmacophore Match>
Model -1

> <# Confs.>
25

> <Source Database>
Pharm-Screening-input-NANPDB_After_DataWarror.ldb

> <Pharmacophore-Fit Score>
43.29

> <formula>
C17H20O6

> <Mutagenic>
none

> <Reproductive Effective>
none

> <Irritant>
none

$$$$
ferulagol B
XX    ILIB03122402103D

 45 46  0  0  1  0              1 V2000
    5.5995    1.5095   -1.5629 O   0  0  0  0  0
    4.8659    1.2499   -0.6179 C   0  0  0  0  0
    3.7180    0.4803   -0.7692 O   0  0  0  0  0
    2.8685    0.1919    0.3212 C   0  0  0  0  0
    3.1690    0.6709    1.5927 C   0  0  0  0  0
    2.3033    0.3697    2.6430 C   0  0  0  0  0
    1.1601   -0.4002    2.4077 C   0  0  0  0  0
    0.8676   -0.8779    1.1231 C   0  0  0  0  0
    1.7320   -0.5784    0.0688 C   0  0  0  0  0
    1.5490   -0.9252   -0.9428 H   0  0  0  0  0
   -0.2766   -1.6175    1.0247 O   0  0  0  0  0
   -0.6029   -2.1038   -0.2844 C   0  0  0  0  0
   -1.8875   -2.9044   -0.2445 C   0  0  0  0  0
   -3.0819   -2.1269    0.2153 C   0  0  0  0  0
   -3.9094   -1.4288   -0.5768 C   0  0  0  0  0
   -3.8016   -1.2611   -2.0065 C   0  0  0  0  0
   -4.6156   -0.5685   -2.8183 C   0  0  0  0  0
   -5.8157    0.2460   -2.4483 C   0  0  0  0  0
   -6.3411    0.7838   -3.6657 O   0  0  0  0  0
   -7.1584    1.2674   -3.4535 H   0  0  0  0  0
   -5.5195    1.4184   -1.5061 C   0  0  0  0  0
   -4.7932    2.1093   -1.9493 H   0  0  0  0  0
   -6.4262    2.0076   -1.3248 H   0  0  0  0  0
   -5.1356    1.0800   -0.5379 H   0  0  0  0  0
   -6.8835   -0.6633   -1.8317 C   0  0  0  0  0
   -7.1697   -1.4630   -2.5258 H   0  0  0  0  0
   -6.5374   -1.1227   -0.8991 H   0  0  0  0  0
   -7.8002   -0.1000   -1.6195 H   0  0  0  0  0
   -4.3641   -0.5649   -3.8777 H   0  0  0  0  0
   -2.9423   -1.7499   -2.4621 H   0  0  0  0  0
   -4.7513   -0.9129   -0.1163 H   0  0  0  0  0
   -3.3337   -2.1775    1.7084 C   0  0  0  0  0
   -4.2215   -1.6062    1.9998 H   0  0  0  0  0
   -3.4867   -3.2124    2.0333 H   0  0  0  0  0
   -2.4810   -1.7627    2.2554 H   0  0  0  0  0
   -2.0754   -3.3046   -1.2495 H   0  0  0  0  0
   -1.7662   -3.7979    0.4023 H   0  0  0  0  0
   -0.6665   -1.2929   -0.9981 H   0  0  0  0  0
    0.2348   -2.7597   -0.5810 H   0  0  0  0  0
    0.4953   -0.6260    3.2385 H   0  0  0  0  0
    2.5034    0.7277    3.6503 H   0  0  0  0  0
    4.3699    1.4678    1.7789 C   0  0  0  0  0
    5.1641    1.7404    0.7403 C   0  0  0  0  0
    6.0589    2.3350    0.8713 H   0  0  0  0  0
    4.6088    1.8366    2.7700 H   0  0  0  0  0
  1  2  2  0  0  0
  2  3  1  0  0  0
  2 43  1  0  0  0
  3  4  1  0  0  0
  4  5  2  0  0  0
  4  9  1  0  0  0
  5  6  1  0  0  0
  5 42  1  0  0  0
  6  7  2  0  0  0
  6 41  1  0  0  0
  7  8  1  0  0  0
  7 40  1  0  0  0
  8  9  2  0  0  0
  8 11  1  0  0  0
  9 10  1  0  0  0
 11 12  1  0  0  0
 12 13  1  0  0  0
 12 38  1  0  0  0
 12 39  1  0  0  0
 13 14  1  0  0  0
 13 36  1  0  0  0
 13 37  1  0  0  0
 14 15  2  0  0  0
 14 32  1  0  0  0
 15 16  1  0  0  0
 15 31  1  0  0  0
 16 17  2  0  0  0
 16 30  1  0  0  0
 17 18  1  0  0  0
 17 29  1  0  0  0
 18 19  1  0  0  0
 18 21  1  0  0  0
 18 25  1  0  0  0
 19 20  1  0  0  0
 21 22  1  0  0  0
 21 23  1  0  0  0
 21 24  1  0  0  0
 25 26  1  0  0  0
 25 27  1  0  0  0
 25 28  1  0  0  0
 32 33  1  0  0  0
 32 34  1  0  0  0
 32 35  1  0  0  0
 42 43  2  0  0  0
 42 45  1  0  0  0
 43 44  1  0  0  0
M  END
> <Tumorigenic>
none

> <Score>
43.27982

> <Active/Decoy>
active

> <InChI>
InChI=1S/C19H22O4/c1-14(5-4-11-19(2,3)21)10-12-22-16-8-6-15-7-9-18(20)23-17(15)13-16/h4-9,11,13,21H,10,12H2,1-3H3/b11-4+,14-5-

> <Matching Features>
H:14924486185440016873|HBA:149238150533300697|HBA:14924321692640012300|HBA:14924486112070016868

> <Mol. Index>
908

> <Pharmacophore Match>
Model -1

> <# Confs.>
25

> <Source Database>
Pharm-Screening-input-NANPDB_After_DataWarror.ldb

> <Pharmacophore-Fit Score>
43.28

> <formula>
C19H22O4

> <Mutagenic>
none

> <Reproductive Effective>
none

> <Irritant>
none

$$$$
8-epiloganin
XX    ILIB03122402103D

 53 55  0  0  1  0              1 V2000
    3.7567    1.8897   -2.2588 O   0  0  0  0  0
    2.7662    2.1985   -1.6152 C   0  0  0  0  0
    2.3152    3.4487   -1.3554 O   0  0  0  0  0
    3.1051    4.5079   -1.9076 C   0  0  0  0  0
    3.1457    4.4229   -2.9977 H   0  0  0  0  0
    2.6314    5.4584   -1.6477 H   0  0  0  0  0
    4.1123    4.4876   -1.4808 H   0  0  0  0  0
    1.8401    1.2450   -0.9778 C   0  0  0  0  0
    0.7733    1.6727   -0.2875 C   0  0  0  0  0
   -0.1791    0.8778    0.2948 O   0  0  0  0  0
   -0.2628   -0.4416   -0.2624 C   0  0  1  0  0
   -0.9103   -0.4437   -1.5234 O   0  0  0  0  0
   -2.2046    0.1714   -1.5091 C   0  0  2  0  0
   -3.0834   -0.5178   -0.6039 O   0  0  0  0  0
   -4.3865    0.0718   -0.5456 C   0  0  1  0  0
   -5.0700   -0.0562   -1.9103 C   0  0  1  0  0
   -6.3317    0.6033   -1.8596 O   0  0  0  0  0
   -6.7909    0.4250   -2.6994 H   0  0  0  0  0
   -4.2086    0.5744   -3.0046 C   0  0  2  0  0
   -4.7327    0.2198   -4.2872 O   0  0  0  0  0
   -5.6171    0.6162   -4.3628 H   0  0  0  0  0
   -2.7723    0.0633   -2.9278 C   0  0  1  0  0
   -1.9538    0.8597   -3.8061 O   0  0  0  0  0
   -1.9718    1.7789   -3.4899 H   0  0  0  0  0
   -2.7079   -0.9551   -3.2973 H   0  0  0  0  0
   -4.2444    1.6696   -2.9463 H   0  0  0  0  0
   -5.2527   -1.1121   -2.1473 H   0  0  0  0  0
   -5.1639   -0.6496    0.5392 C   0  0  0  0  0
   -4.5029   -0.5037    1.7858 O   0  0  0  0  0
   -5.0345   -0.9793    2.4478 H   0  0  0  0  0
   -5.2642   -1.7167    0.3087 H   0  0  0  0  0
   -6.1744   -0.2367    0.6221 H   0  0  0  0  0
   -4.2859    1.1259   -0.2560 H   0  0  0  0  0
   -2.0918    1.2103   -1.2011 H   0  0  0  0  0
    1.0890   -1.1335   -0.4252 C   0  0  2  0  0
    1.7822   -1.6538    0.8511 C   0  0  1  0  0
    3.2253   -1.8404    0.3762 C   0  0  1  0  0
    3.3096   -3.0247   -0.4117 O   0  0  0  0  0
    4.2206   -3.0885   -0.7448 H   0  0  0  0  0
    3.4963   -0.6206   -0.5016 C   0  0  0  0  0
    2.1371   -0.2258   -1.1265 C   0  0  2  0  0
    2.1408   -0.4672   -2.1982 H   0  0  0  0  0
    3.8971    0.1905    0.1178 H   0  0  0  0  0
    4.2289   -0.8358   -1.2858 H   0  0  0  0  0
    3.9408   -1.9307    1.1989 H   0  0  0  0  0
    1.7056   -0.7469    2.0767 C   0  0  0  0  0
    2.2549   -1.1942    2.9119 H   0  0  0  0  0
    0.6700   -0.6163    2.4052 H   0  0  0  0  0
    2.1374    0.2412    1.8962 H   0  0  0  0  0
    1.3375   -2.6212    1.1168 H   0  0  0  0  0
    0.9383   -1.9995   -1.0804 H   0  0  0  0  0
   -0.8745   -1.0465    0.4386 H   0  0  0  0  0
    0.5390    2.7086   -0.0822 H   0  0  0  0  0
  1  2  2  0  0  0
  2  3  1  0  0  0
  2  8  1  0  0  0
  3  4  1  0  0  0
  4  5  1  0  0  0
  4  6  1  0  0  0
  4  7  1  0  0  0
  8  9  2  0  0  0
  8 41  1  0  0  0
  9 10  1  0  0  0
  9 53  1  0  0  0
 10 11  1  0  0  0
 11 12  1  0  0  0
 11 35  1  0  0  0
 11 52  1  0  0  0
 12 13  1  0  0  0
 13 14  1  0  0  0
 13 22  1  0  0  0
 13 34  1  0  0  0
 14 15  1  0  0  0
 15 16  1  0  0  0
 15 28  1  0  0  0
 15 33  1  0  0  0
 16 17  1  0  0  0
 16 19  1  0  0  0
 16 27  1  0  0  0
 17 18  1  0  0  0
 19 20  1  0  0  0
 19 22  1  0  0  0
 19 26  1  0  0  0
 20 21  1  0  0  0
 22 23  1  0  0  0
 22 25  1  0  0  0
 23 24  1  0  0  0
 28 29  1  0  0  0
 28 31  1  0  0  0
 28 32  1  0  0  0
 29 30  1  0  0  0
 35 36  1  0  0  0
 35 41  1  0  0  0
 35 51  1  0  0  0
 36 37  1  0  0  0
 36 46  1  0  0  0
 36 50  1  0  0  0
 37 38  1  0  0  0
 37 40  1  0  0  0
 37 45  1  0  0  0
 38 39  1  0  0  0
 40 41  1  0  0  0
 40 43  1  0  0  0
 40 44  1  0  0  0
 41 42  1  0  0  0
 46 47  1  0  0  0
 46 48  1  0  0  0
 46 49  1  0  0  0
M  END
> <Tumorigenic>
none

> <Score>
43.27439

> <Active/Decoy>
active

> <InChI>
InChI=1S/C17H26O10/c1-6-9(19)3-7-8(15(23)24-2)5-25-16(11(6)7)27-17-14(22)13(21)12(20)10(4-18)26-17/h5-7,9-14,16-22H,3-4H2,1-2H3/t6-,7-,9+,10-,11-,12-,13+,14-,16+,17+/m1/s1

> <Matching Features>
H:14924486185440016873|HBA:149238150533300697|HBA:14924321692640012300|HBA:14924486112070016868

> <Mol. Index>
1370

> <Pharmacophore Match>
Model -1

> <# Confs.>
25

> <Source Database>
Pharm-Screening-input-NANPDB_After_DataWarror.ldb

> <Pharmacophore-Fit Score>
43.27

> <formula>
C17H26O10

> <Mutagenic>
none

> <Reproductive Effective>
none

> <Irritant>
none

$$$$
apigenin7-O-beta-D-glucuronide 6''-ethyl ester
XX    ILIB03122402103D

 56 59  0  0  1  0              1 V2000
   -5.6466   -0.5342   -2.5745 O   0  0  0  0  0
   -4.5452   -0.9073   -2.1962 C   0  0  0  0  0
   -3.3033   -0.1585   -2.4710 C   0  0  0  0  0
   -2.1023   -0.6773   -1.9875 C   0  0  0  0  0
   -2.0231   -1.8464   -1.2724 O   0  0  0  0  0
   -3.1866   -2.5589   -1.0194 C   0  0  0  0  0
   -4.4012   -2.1624   -1.4286 C   0  0  0  0  0
   -5.3111   -2.7178   -1.2306 H   0  0  0  0  0
   -2.9735   -3.8035   -0.2550 C   0  0  0  0  0
   -1.9155   -3.9086    0.6652 C   0  0  0  0  0
   -1.7045   -5.0820    1.3948 C   0  0  0  0  0
   -2.5553   -6.1668    1.2133 C   0  0  0  0  0
   -2.3748   -7.3276    1.9110 O   0  0  0  0  0
   -1.5973   -7.2215    2.4860 H   0  0  0  0  0
   -3.6105   -6.0909    0.3134 C   0  0  0  0  0
   -3.8182   -4.9169   -0.4154 C   0  0  0  0  0
   -4.6564   -4.8910   -1.1079 H   0  0  0  0  0
   -4.2780   -6.9372    0.1707 H   0  0  0  0  0
   -0.8775   -5.1335    2.0980 H   0  0  0  0  0
   -1.2306   -3.0786    0.8301 H   0  0  0  0  0
   -0.8922   -0.0115   -2.2181 C   0  0  0  0  0
   -0.8765    1.1841   -2.9343 C   0  0  0  0  0
    0.2377    1.9112   -3.2244 O   0  0  0  0  0
    1.4714    1.2040   -3.3691 C   0  0  2  0  0
    2.1366    1.0683   -2.1153 O   0  0  0  0  0
    3.3822    0.3782   -2.2154 C   0  0  2  0  0
    3.9060    0.2214   -0.8109 C   0  0  0  0  0
    5.0996    0.1687   -0.5420 O   0  0  0  0  0
    2.8923    0.1167    0.0758 O   0  0  0  0  0
    3.2611   -0.0726    1.4512 C   0  0  0  0  0
    1.9940   -0.1659    2.2792 C   0  0  0  0  0
    1.3958    0.7451    2.1734 H   0  0  0  0  0
    1.3697   -0.9979    1.9375 H   0  0  0  0  0
    2.2295   -0.3123    3.3364 H   0  0  0  0  0
    3.8446   -0.9943    1.5590 H   0  0  0  0  0
    3.8628    0.7792    1.7867 H   0  0  0  0  0
    4.3503    1.1515   -3.1109 C   0  0  2  0  0
    4.5942    2.4315   -2.5207 O   0  0  0  0  0
    5.1804    2.9202   -3.1229 H   0  0  0  0  0
    3.7224    1.3419   -4.4919 C   0  0  2  0  0
    4.5456    2.1853   -5.2931 O   0  0  0  0  0
    5.4258    1.7739   -5.3404 H   0  0  0  0  0
    2.3281    1.9604   -4.3820 C   0  0  1  0  0
    1.6906    1.9096   -5.6579 O   0  0  0  0  0
    2.2645    2.3798   -6.2872 H   0  0  0  0  0
    2.3947    3.0180   -4.1005 H   0  0  0  0  0
    3.6537    0.3774   -5.0100 H   0  0  0  0  0
    5.3178    0.6461   -3.1931 H   0  0  0  0  0
    3.1846   -0.6277   -2.6078 H   0  0  0  0  0
    1.2439    0.1865   -3.7683 H   0  0  0  0  0
   -2.0816    1.7047   -3.4274 C   0  0  0  0  0
   -3.2877    1.0375   -3.1931 C   0  0  0  0  0
   -4.4505    1.5704   -3.6801 O   0  0  0  0  0
   -4.2453    2.3982   -4.1472 H   0  0  0  0  0
   -2.0737    2.6343   -3.9917 H   0  0  0  0  0
    0.0211   -0.4481   -1.8236 H   0  0  0  0  0
  1  2  2  0  0  0
  2  3  1  0  0  0
  2  7  1  0  0  0
  3  4  2  0  0  0
  3 52  1  0  0  0
  4  5  1  0  0  0
  4 21  1  0  0  0
  5  6  1  0  0  0
  6  7  2  0  0  0
  6  9  1  0  0  0
  7  8  1  0  0  0
  9 10  2  0  0  0
  9 16  1  0  0  0
 10 11  1  0  0  0
 10 20  1  0  0  0
 11 12  2  0  0  0
 11 19  1  0  0  0
 12 13  1  0  0  0
 12 15  1  0  0  0
 13 14  1  0  0  0
 15 16  2  0  0  0
 15 18  1  0  0  0
 16 17  1  0  0  0
 21 22  2  0  0  0
 21 56  1  0  0  0
 22 23  1  0  0  0
 22 51  1  0  0  0
 23 24  1  0  0  0
 24 25  1  0  0  0
 24 43  1  0  0  0
 24 50  1  0  0  0
 25 26  1  0  0  0
 26 27  1  0  0  0
 26 37  1  0  0  0
 26 49  1  0  0  0
 27 28  2  0  0  0
 27 29  1  0  0  0
 29 30  1  0  0  0
 30 31  1  0  0  0
 30 35  1  0  0  0
 30 36  1  0  0  0
 31 32  1  0  0  0
 31 33  1  0  0  0
 31 34  1  0  0  0
 37 38  1  0  0  0
 37 40  1  0  0  0
 37 48  1  0  0  0
 38 39  1  0  0  0
 40 41  1  0  0  0
 40 43  1  0  0  0
 40 47  1  0  0  0
 41 42  1  0  0  0
 43 44  1  0  0  0
 43 46  1  0  0  0
 44 45  1  0  0  0
 51 52  2  0  0  0
 51 55  1  0  0  0
 52 53  1  0  0  0
 53 54  1  0  0  0
M  END
> <Tumorigenic>
none

> <Score>
43.261925

> <Active/Decoy>
active

> <InChI>
InChI=1S/C23H22O11/c1-2-31-22(30)21-19(28)18(27)20(29)23(34-21)32-12-7-13(25)17-14(26)9-15(33-16(17)8-12)10-3-5-11(24)6-4-10/h3-9,18-21,23-25,27-29H,2H2,1H3/t18-,19+,20+,21-,23+/m0/s1

> <Matching Features>
H:14924486185440016873|HBA:149238150533300697|HBA:14924321692640012300|HBA:14924486112070016868

> <Mol. Index>
1250

> <Pharmacophore Match>
Model -1

> <# Confs.>
25

> <Source Database>
Pharm-Screening-input-NANPDB_After_DataWarror.ldb

> <Pharmacophore-Fit Score>
43.26

> <formula>
C23H22O11

> <Mutagenic>
none

> <Reproductive Effective>
none

> <Irritant>
none

$$$$
marmaricin
XX    ILIB03122402103D

 58 61  0  0  1  0              1 V2000
    5.5397    1.4967   -1.5494 O   0  0  0  0  0
    4.7662    1.1695   -0.6559 C   0  0  0  0  0
    3.4737    0.7335   -0.9226 O   0  0  0  0  0
    2.5906    0.3578    0.1116 C   0  0  0  0  0
    3.0009    0.4028    1.4407 C   0  0  0  0  0
    2.1007    0.0188    2.4341 C   0  0  0  0  0
    0.8137   -0.4014    2.0854 C   0  0  0  0  0
    0.4063   -0.4297    0.7445 C   0  0  0  0  0
    1.3051   -0.0442   -0.2532 C   0  0  0  0  0
    1.0389   -0.0595   -1.3052 H   0  0  0  0  0
   -0.8780   -0.8669    0.5382 O   0  0  0  0  0
   -1.3109   -0.9230   -0.8150 C   0  0  0  0  0
   -2.7406   -1.4167   -0.9003 C   0  0  1  0  0
   -3.3234   -1.5141   -2.3754 C   0  0  1  0  0
   -4.8651   -1.8467   -2.2441 C   0  0  1  0  0
   -5.7342   -1.6978   -3.5494 C   0  0  0  0  0
   -5.4362   -0.3233   -4.2138 C   0  0  1  0  0
   -5.9643    0.7316   -3.4031 O   0  0  0  0  0
   -5.8013    1.5697   -3.8677 H   0  0  0  0  0
   -3.9455   -0.0629   -4.4161 C   0  0  0  0  0
   -3.1576   -0.1656   -3.1093 C   0  0  0  0  0
   -3.4726    0.6474   -2.4430 H   0  0  0  0  0
   -2.1028    0.0202   -3.3436 H   0  0  0  0  0
   -3.5347   -0.7466   -5.1656 H   0  0  0  0  0
   -3.8038    0.9502   -4.8133 H   0  0  0  0  0
   -5.9478   -0.2610   -5.1814 H   0  0  0  0  0
   -5.5299   -2.8289   -4.5765 C   0  0  0  0  0
   -5.6458   -3.8180   -4.1229 H   0  0  0  0  0
   -4.5625   -2.7944   -5.0741 H   0  0  0  0  0
   -6.2772   -2.7567   -5.3789 H   0  0  0  0  0
   -7.2410   -1.7354   -3.1716 C   0  0  0  0  0
   -7.4698   -1.0671   -2.3350 H   0  0  0  0  0
   -7.5662   -2.7429   -2.8903 H   0  0  0  0  0
   -7.8648   -1.4284   -4.0191 H   0  0  0  0  0
   -5.0999   -3.1649   -1.4720 C   0  0  0  0  0
   -4.4535   -3.1274   -0.0857 C   0  0  0  0  0
   -2.9974   -2.7418   -0.1623 C   0  0  0  0  0
   -2.0633   -3.5423    0.3757 C   0  0  0  0  0
   -2.3373   -4.4643    0.8771 H   0  0  0  0  0
   -1.0050   -3.3165    0.3316 H   0  0  0  0  0
   -4.9785   -2.3984    0.5445 H   0  0  0  0  0
   -4.5873   -4.1037    0.3939 H   0  0  0  0  0
   -6.1702   -3.3457   -1.3264 H   0  0  0  0  0
   -4.7157   -4.0218   -2.0354 H   0  0  0  0  0
   -5.2546   -1.0606   -1.5765 H   0  0  0  0  0
   -2.5183   -2.5972   -3.1555 C   0  0  0  0  0
   -2.6607   -3.6054   -2.7582 H   0  0  0  0  0
   -2.7651   -2.6285   -4.2163 H   0  0  0  0  0
   -1.4439   -2.3880   -3.1200 H   0  0  0  0  0
   -3.3306   -0.6686   -0.3614 H   0  0  0  0  0
   -0.6355   -1.5504   -1.4343 H   0  0  0  0  0
   -1.2397    0.0830   -1.2413 H   0  0  0  0  0
    0.1178   -0.6806    2.8727 H   0  0  0  0  0
    2.3839    0.0449    3.4835 H   0  0  0  0  0
    4.3467    0.8552    1.7447 C   0  0  0  0  0
    5.1757    1.2095    0.7599 C   0  0  0  0  0
    6.1854    1.5400    0.9783 H   0  0  0  0  0
    4.6692    0.8914    2.7790 H   0  0  0  0  0
  1  2  2  0  0  0
  2  3  1  0  0  0
  2 56  1  0  0  0
  3  4  1  0  0  0
  4  5  2  0  0  0
  4  9  1  0  0  0
  5  6  1  0  0  0
  5 55  1  0  0  0
  6  7  2  0  0  0
  6 54  1  0  0  0
  7  8  1  0  0  0
  7 53  1  0  0  0
  8  9  2  0  0  0
  8 11  1  0  0  0
  9 10  1  0  0  0
 11 12  1  0  0  0
 12 13  1  0  0  0
 12 51  1  0  0  0
 12 52  1  0  0  0
 13 14  1  0  0  0
 13 37  1  0  0  0
 13 50  1  0  0  0
 14 15  1  0  0  0
 14 21  1  0  0  0
 14 46  1  0  0  0
 15 16  1  0  0  0
 15 35  1  0  0  0
 15 45  1  0  0  0
 16 17  1  0  0  0
 16 27  1  0  0  0
 16 31  1  0  0  0
 17 18  1  0  0  0
 17 20  1  0  0  0
 17 26  1  0  0  0
 18 19  1  0  0  0
 20 21  1  0  0  0
 20 24  1  0  0  0
 20 25  1  0  0  0
 21 22  1  0  0  0
 21 23  1  0  0  0
 27 28  1  0  0  0
 27 29  1  0  0  0
 27 30  1  0  0  0
 31 32  1  0  0  0
 31 33  1  0  0  0
 31 34  1  0  0  0
 35 36  1  0  0  0
 35 43  1  0  0  0
 35 44  1  0  0  0
 36 37  1  0  0  0
 36 41  1  0  0  0
 36 42  1  0  0  0
 37 38  2  0  0  0
 38 39  1  0  0  0
 38 40  1  0  0  0
 46 47  1  0  0  0
 46 48  1  0  0  0
 46 49  1  0  0  0
 55 56  2  0  0  0
 55 58  1  0  0  0
 56 57  1  0  0  0
M  END
> <Tumorigenic>
none

> <Score>
43.247326

> <Active/Decoy>
active

> <InChI>
InChI=1S/C24H30O4/c1-15-5-9-20-23(2,3)21(25)11-12-24(20,4)18(15)14-27-17-8-6-16-7-10-22(26)28-19(16)13-17/h6-8,10,13,18,20-21,25H,1,5,9,11-12,14H2,2-4H3/t18-,20-,21+,24+/m1/s1

> <Matching Features>
H:14924486185440016873|HBA:149238150533300697|HBA:14924321692640012300|HBA:14924486112070016868

> <Mol. Index>
877

> <Pharmacophore Match>
Model -1

> <# Confs.>
25

> <Source Database>
Pharm-Screening-input-NANPDB_After_DataWarror.ldb

> <Pharmacophore-Fit Score>
43.25

> <formula>
C24H30O4

> <Mutagenic>
none

> <Reproductive Effective>
none

> <Irritant>
none

$$$$
burttinone
XX    ILIB03122402103D

 62 64  0  0  1  0              1 V2000
   -4.5931   -0.2884   -2.4862 O   0  0  0  0  0
   -3.8587    0.5629   -2.9722 C   0  0  0  0  0
   -4.3868    1.7042   -3.7624 C   0  0  0  0  0
   -3.4721    2.6252   -4.2897 C   0  0  0  0  0
   -2.1190    2.5590   -4.0822 O   0  0  0  0  0
   -1.7708    1.8766   -2.8693 C   0  0  2  0  0
   -0.2702    1.8374   -2.7547 C   0  0  0  0  0
    0.5456    1.8170   -3.8962 C   0  0  0  0  0
    1.9426    1.7535   -3.8098 C   0  0  0  0  0
    2.5262    1.7853   -2.5163 C   0  0  0  0  0
    3.8835    1.7678   -2.3679 O   0  0  0  0  0
    4.6001    1.0853   -3.3941 C   0  0  0  0  0
    4.3245    0.0256   -3.4295 H   0  0  0  0  0
    5.6659    1.1465   -3.1530 H   0  0  0  0  0
    4.4489    1.5633   -4.3675 H   0  0  0  0  0
    1.7305    1.7721   -1.3539 C   0  0  0  0  0
    0.3347    1.8058   -1.4915 C   0  0  0  0  0
   -0.2899    1.8027   -0.6009 H   0  0  0  0  0
    2.3320    1.7243    0.0220 C   0  0  0  0  0
    2.5207    0.3220    0.5168 C   0  0  0  0  0
    1.9823   -0.2438    1.6127 C   0  0  0  0  0
    2.3034   -1.6722    1.9691 C   0  0  0  0  0
    2.9976   -2.1335    1.2619 H   0  0  0  0  0
    1.3894   -2.2745    1.9783 H   0  0  0  0  0
    2.7613   -1.7197    2.9632 H   0  0  0  0  0
    1.0358    0.4337    2.5618 C   0  0  0  0  0
    0.1249   -0.1636    2.6754 H   0  0  0  0  0
    0.7222    1.4264    2.2337 H   0  0  0  0  0
    1.5023    0.5392    3.5475 H   0  0  0  0  0
    3.1802   -0.2913   -0.0975 H   0  0  0  0  0
    1.7045    2.3026    0.7137 H   0  0  0  0  0
    3.3062    2.2305    0.0143 H   0  0  0  0  0
    2.6936    1.7337   -5.0589 C   0  0  0  0  0
    3.1330    2.8090   -5.7216 C   0  0  0  0  0
    3.9119    2.7943   -7.0060 C   0  0  0  0  0
    4.0890    1.4205   -7.3655 O   0  0  0  0  0
    4.5360    1.3899   -8.2291 H   0  0  0  0  0
    5.3060    3.4350   -6.9137 C   0  0  0  0  0
    5.9281    2.9299   -6.1657 H   0  0  0  0  0
    5.8394    3.3366   -7.8669 H   0  0  0  0  0
    5.2513    4.5000   -6.6642 H   0  0  0  0  0
    3.0960    3.4745   -8.1036 C   0  0  0  0  0
    2.1293    2.9774   -8.2414 H   0  0  0  0  0
    2.9139    4.5310   -7.8809 H   0  0  0  0  0
    3.6116    3.4118   -9.0710 H   0  0  0  0  0
    2.9363    3.7999   -5.3145 H   0  0  0  0  0
    2.9063    0.7336   -5.4486 H   0  0  0  0  0
    0.0729    1.8044   -4.8783 H   0  0  0  0  0
   -2.3596    0.4701   -2.8616 C   0  0  0  0  0
   -2.1055   -0.0467   -1.9298 H   0  0  0  0  0
   -2.0025   -0.1295   -3.7075 H   0  0  0  0  0
   -2.1684    2.4671   -2.0305 H   0  0  0  0  0
   -3.9150    3.6705   -5.1044 C   0  0  0  0  0
   -5.2746    3.8131   -5.3614 C   0  0  0  0  0
   -5.6772    4.8521   -6.1526 O   0  0  0  0  0
   -6.6457    4.8176   -6.2418 H   0  0  0  0  0
   -6.2010    2.9202   -4.8249 C   0  0  0  0  0
   -5.7538    1.8628   -4.0290 C   0  0  0  0  0
   -6.6669    0.9798   -3.5213 O   0  0  0  0  0
   -7.5566    1.2435   -3.8122 H   0  0  0  0  0
   -7.2602    3.0426   -5.0318 H   0  0  0  0  0
   -3.2017    4.3750   -5.5253 H   0  0  0  0  0
  1  2  2  0  0  0
  2  3  1  0  0  0
  2 49  1  0  0  0
  3  4  2  0  0  0
  3 58  1  0  0  0
  4  5  1  0  0  0
  4 53  1  0  0  0
  5  6  1  0  0  0
  6  7  1  0  0  0
  6 49  1  0  0  0
  6 52  1  0  0  0
  7  8  2  0  0  0
  7 17  1  0  0  0
  8  9  1  0  0  0
  8 48  1  0  0  0
  9 10  2  0  0  0
  9 33  1  0  0  0
 10 11  1  0  0  0
 10 16  1  0  0  0
 11 12  1  0  0  0
 12 13  1  0  0  0
 12 14  1  0  0  0
 12 15  1  0  0  0
 16 17  2  0  0  0
 16 19  1  0  0  0
 17 18  1  0  0  0
 19 20  1  0  0  0
 19 31  1  0  0  0
 19 32  1  0  0  0
 20 21  2  0  0  0
 20 30  1  0  0  0
 21 22  1  0  0  0
 21 26  1  0  0  0
 22 23  1  0  0  0
 22 24  1  0  0  0
 22 25  1  0  0  0
 26 27  1  0  0  0
 26 28  1  0  0  0
 26 29  1  0  0  0
 33 34  2  0  0  0
 33 47  1  0  0  0
 34 35  1  0  0  0
 34 46  1  0  0  0
 35 36  1  0  0  0
 35 38  1  0  0  0
 35 42  1  0  0  0
 36 37  1  0  0  0
 38 39  1  0  0  0
 38 40  1  0  0  0
 38 41  1  0  0  0
 42 43  1  0  0  0
 42 44  1  0  0  0
 42 45  1  0  0  0
 49 50  1  0  0  0
 49 51  1  0  0  0
 53 54  2  0  0  0
 53 62  1  0  0  0
 54 55  1  0  0  0
 54 57  1  0  0  0
 55 56  1  0  0  0
 57 58  2  0  0  0
 57 61  1  0  0  0
 58 59  1  0  0  0
 59 60  1  0  0  0
M  END
> <Tumorigenic>
none

> <Score>
43.249466

> <Active/Decoy>
active

> <InChI>
InChI=1S/C26H30O6/c1-15(2)6-7-16-10-18(11-17(25(16)31-5)8-9-26(3,4)30)22-14-21(29)24-20(28)12-19(27)13-23(24)32-22/h6,8-13,22,27-28,30H,7,14H2,1-5H3/b9-8+/t22-/m0/s1

> <Matching Features>
H:14924486185440016873|HBA:149238150533300697|HBA:14924321692640012300|HBA:14924486112070016868

> <Mol. Index>
605

> <Pharmacophore Match>
Model -1

> <# Confs.>
25

> <Source Database>
Pharm-Screening-input-NANPDB_After_DataWarror.ldb

> <Pharmacophore-Fit Score>
43.25

> <formula>
C26H30O6

> <Mutagenic>
none

> <Reproductive Effective>
none

> <Irritant>
none

$$$$
18-hydroxy-cis-clerodan-3-ene-15-oic acid
XX    ILIB03122402103D

 57 58  0  0  1  0              1 V2000
   -5.8713    1.4960   -3.0730 O   0  0  0  0  0
   -6.1101    0.4081   -2.5672 C   0  0  0  0  0
   -6.3060   -0.7241   -3.2885 O   0  0  0  0  0
   -6.4956   -1.5269   -2.7570 H   0  0  0  0  0
   -6.2265    0.1681   -1.0814 C   0  0  0  0  0
   -4.9244    0.5401   -0.3728 C   0  0  2  0  0
   -3.7345   -0.2853   -0.8808 C   0  0  0  0  0
   -2.4045    0.0462   -0.2073 C   0  0  0  0  0
   -1.2118   -0.7666   -0.7196 C   0  0  2  0  0
    0.1413   -0.4032    0.0154 C   0  0  1  0  0
    0.8404    0.9619   -0.3995 C   0  0  1  0  0
    2.2572    0.9810    0.2323 C   0  0  0  0  0
    2.5147    0.3096    1.3719 C   0  0  0  0  0
    1.5241   -0.5172    2.1316 C   0  0  0  0  0
    0.1099   -0.5314    1.5459 C   0  0  0  0  0
   -0.4807    0.2736    1.9941 H   0  0  0  0  0
   -0.3700   -1.4626    1.8601 H   0  0  0  0  0
    1.4816   -0.1788    3.1731 H   0  0  0  0  0
    1.9031   -1.5464    2.1511 H   0  0  0  0  0
    3.5172    0.3342    1.7927 H   0  0  0  0  0
    3.3703    1.7291   -0.4267 C   0  0  0  0  0
    4.0615    0.8853   -1.3379 O   0  0  0  0  0
    4.4375    0.1457   -0.8285 H   0  0  0  0  0
    4.0930    2.1168    0.2998 H   0  0  0  0  0
    2.9730    2.5812   -0.9864 H   0  0  0  0  0
    0.8991    1.0349   -1.9446 C   0  0  0  0  0
   -0.4478    0.7806   -2.6203 C   0  0  0  0  0
   -1.0464   -0.5907   -2.2671 C   0  0  1  0  0
   -0.2255   -1.6997   -2.9505 C   0  0  0  0  0
   -0.7478   -2.6608   -2.9147 H   0  0  0  0  0
    0.7594   -1.8362   -2.4948 H   0  0  0  0  0
   -0.0703   -1.4696   -4.0113 H   0  0  0  0  0
   -2.0391   -0.6345   -2.7346 H   0  0  0  0  0
   -1.1547    1.5757   -2.3620 H   0  0  0  0  0
   -0.3149    0.8547   -3.7074 H   0  0  0  0  0
    1.6283    0.3103   -2.3257 H   0  0  0  0  0
    1.2577    2.0210   -2.2671 H   0  0  0  0  0
    0.1315    2.2293    0.1373 C   0  0  0  0  0
    0.0577    2.2386    1.2289 H   0  0  0  0  0
    0.6745    3.1381   -0.1427 H   0  0  0  0  0
   -0.8688    2.3688   -0.2630 H   0  0  0  0  0
    0.8413   -1.1829   -0.3235 H   0  0  0  0  0
   -1.5464   -2.2618   -0.4013 C   0  0  0  0  0
   -1.9131   -2.3900    0.6224 H   0  0  0  0  0
   -0.6687   -2.9078   -0.5143 H   0  0  0  0  0
   -2.3257   -2.6477   -1.0682 H   0  0  0  0  0
   -2.5078   -0.0977    0.8700 H   0  0  0  0  0
   -2.1832    1.1170   -0.3616 H   0  0  0  0  0
   -3.6243   -0.1390   -1.9761 H   0  0  0  0  0
   -3.9434   -1.3548   -0.7442 H   0  0  0  0  0
   -5.0896    0.4915    1.1344 C   0  0  0  0  0
   -5.2898   -0.5224    1.4939 H   0  0  0  0  0
   -4.1870    0.8534    1.6364 H   0  0  0  0  0
   -5.9206    1.1298    1.4548 H   0  0  0  0  0
   -4.7296    1.5896   -0.6527 H   0  0  0  0  0
   -7.0653    0.7798   -0.7272 H   0  0  0  0  0
   -6.4930   -0.8761   -0.9269 H   0  0  0  0  0
  1  2  2  0  0  0
  2  3  1  0  0  0
  2  5  1  0  0  0
  3  4  1  0  0  0
  5  6  1  0  0  0
  5 56  1  0  0  0
  5 57  1  0  0  0
  6  7  1  0  0  0
  6 51  1  0  0  0
  6 55  1  0  0  0
  7  8  1  0  0  0
  7 49  1  0  0  0
  7 50  1  0  0  0
  8  9  1  0  0  0
  8 47  1  0  0  0
  8 48  1  0  0  0
  9 10  1  0  0  0
  9 28  1  0  0  0
  9 43  1  0  0  0
 10 11  1  0  0  0
 10 15  1  0  0  0
 10 42  1  0  0  0
 11 12  1  0  0  0
 11 26  1  0  0  0
 11 38  1  0  0  0
 12 13  2  0  0  0
 12 21  1  0  0  0
 13 14  1  0  0  0
 13 20  1  0  0  0
 14 15  1  0  0  0
 14 18  1  0  0  0
 14 19  1  0  0  0
 15 16  1  0  0  0
 15 17  1  0  0  0
 21 22  1  0  0  0
 21 24  1  0  0  0
 21 25  1  0  0  0
 22 23  1  0  0  0
 26 27  1  0  0  0
 26 36  1  0  0  0
 26 37  1  0  0  0
 27 28  1  0  0  0
 27 34  1  0  0  0
 27 35  1  0  0  0
 28 29  1  0  0  0
 28 33  1  0  0  0
 29 30  1  0  0  0
 29 31  1  0  0  0
 29 32  1  0  0  0
 38 39  1  0  0  0
 38 40  1  0  0  0
 38 41  1  0  0  0
 43 44  1  0  0  0
 43 45  1  0  0  0
 43 46  1  0  0  0
 51 52  1  0  0  0
 51 53  1  0  0  0
 51 54  1  0  0  0
M  END
> <Tumorigenic>
none

> <Score>
43.239525

> <Active/Decoy>
active

> <InChI>
InChI=1S/C20H34O3/c1-14(12-18(22)23)8-10-19(3)15(2)9-11-20(4)16(13-21)6-5-7-17(19)20/h6,14-15,17,21H,5,7-13H2,1-4H3,(H,22,23)/t14-,15+,17-,19-,20+/m0/s1

> <Matching Features>
H:14924486185440016873|HBA:149238150533300697|HBA:14924321692640012300|HBA:14924486112070016868

> <Mol. Index>
701

> <Pharmacophore Match>
Model -1

> <# Confs.>
25

> <Source Database>
Pharm-Screening-input-NANPDB_After_DataWarror.ldb

> <Pharmacophore-Fit Score>
43.24

> <formula>
C20H34O3

> <Mutagenic>
none

> <Reproductive Effective>
none

> <Irritant>
none

$$$$
sipholenol J
XX    ILIB03122402103D

 79 82  0  0  1  0              1 V2000
   -1.2250    0.8202   -4.1747 O   0  0  0  0  0
   -2.2229    0.9250   -3.4619 C   0  0  0  0  0
   -2.1318    1.4295   -2.0372 C   0  0  2  0  0
   -2.8506    0.4259   -1.1430 C   0  0  0  0  0
   -2.1924   -0.1343   -0.1205 C   0  0  0  0  0
   -0.7988    0.1210    0.3500 C   0  0  0  0  0
    0.2760   -0.7483   -0.2988 C   0  0  2  0  0
   -0.0009   -2.2516   -0.0124 C   0  0  1  0  0
   -1.2819   -2.6457   -0.5004 O   0  0  0  0  0
   -1.2942   -2.4987   -1.4619 H   0  0  0  0  0
    1.0321   -3.1484   -0.6782 C   0  0  0  0  0
    2.4231   -2.8228   -0.1820 C   0  0  0  0  0
    2.8058   -1.3597   -0.4067 C   0  0  1  0  0
    3.0235   -1.1575   -1.8041 O   0  0  0  0  0
    4.1811   -0.3758   -2.1570 C   0  0  0  0  0
    3.8680    0.2265   -3.5351 C   0  0  0  0  0
    4.7336    0.7310   -3.9738 H   0  0  0  0  0
    3.5404   -0.5529   -4.2337 H   0  0  0  0  0
    3.0450    0.9462   -3.4754 H   0  0  0  0  0
    5.3507   -1.3606   -2.3271 C   0  0  0  0  0
    5.0878   -2.1622   -3.0269 H   0  0  0  0  0
    5.5926   -1.8520   -1.3781 H   0  0  0  0  0
    6.2547   -0.8648   -2.6956 H   0  0  0  0  0
    4.5606    0.7181   -1.1181 C   0  0  1  0  0
    5.6363    1.5299   -1.6037 O   0  0  0  0  0
    5.2907    2.1088   -2.3021 H   0  0  0  0  0
    3.4358    1.6339   -0.6241 C   0  0  0  0  0
    2.0129    1.0738   -0.5756 C   0  0  0  0  0
    1.7576   -0.3181    0.0948 C   0  0  1  0  0
    1.9124   -0.1843    1.6253 C   0  0  0  0  0
    1.2749    0.6074    2.0320 H   0  0  0  0  0
    1.6569   -1.1153    2.1405 H   0  0  0  0  0
    2.9427    0.0684    1.8968 H   0  0  0  0  0
    1.4026    1.8374   -0.0794 H   0  0  0  0  0
    1.6386    1.0431   -1.6065 H   0  0  0  0  0
    3.4092    2.5409   -1.2431 H   0  0  0  0  0
    3.7097    1.9977    0.3753 H   0  0  0  0  0
    4.9841    0.2354   -0.2313 H   0  0  0  0  0
    3.7444   -1.2523    0.1434 H   0  0  0  0  0
    3.1399   -3.4712   -0.6990 H   0  0  0  0  0
    2.4889   -3.0602    0.8860 H   0  0  0  0  0
    0.9800   -3.0439   -1.7695 H   0  0  0  0  0
    0.7985   -4.2004   -0.4721 H   0  0  0  0  0
   -0.0067   -2.4356    1.0675 H   0  0  0  0  0
    0.1708   -0.6191   -1.3805 H   0  0  0  0  0
   -0.7721   -0.0312    1.4492 H   0  0  0  0  0
   -0.5411    1.1779    0.1976 H   0  0  0  0  0
   -2.6833   -0.8836    0.5015 H   0  0  0  0  0
   -4.3170    0.1227   -1.5593 C   0  0  2  0  0
   -5.2377   -0.8066   -0.6549 C   0  0  0  0  0
   -6.6628   -0.8613   -1.2806 C   0  0  0  0  0
   -6.6663   -1.3677   -2.7177 C   0  0  0  0  0
   -5.7976   -0.4895   -3.6035 C   0  0  1  0  0
   -6.4161    0.7939   -3.7172 O   0  0  0  0  0
   -7.2990    0.6612   -4.1037 H   0  0  0  0  0
   -4.3599   -0.3308   -3.0613 C   0  0  1  0  0
   -3.5983    0.6297   -3.9913 C   0  0  0  0  0
   -4.1142    1.5873   -4.1163 H   0  0  0  0  0
   -3.4998    0.1807   -4.9860 H   0  0  0  0  0
   -3.8619   -1.3078   -3.1259 H   0  0  0  0  0
   -5.7602   -0.9177   -4.6126 H   0  0  0  0  0
   -6.3229   -2.4064   -2.7619 H   0  0  0  0  0
   -7.6994   -1.3594   -3.0840 H   0  0  0  0  0
   -7.3169   -1.5065   -0.6802 H   0  0  0  0  0
   -7.1179    0.1375   -1.2494 H   0  0  0  0  0
   -5.4237   -0.1987    0.7556 C   0  0  0  0  0
   -4.5063   -0.1835    1.3436 H   0  0  0  0  0
   -5.7914    0.8319    0.6924 H   0  0  0  0  0
   -6.1571   -0.7742    1.3329 H   0  0  0  0  0
   -4.7390   -2.2653   -0.5203 C   0  0  0  0  0
   -3.9182   -2.3830    0.1857 H   0  0  0  0  0
   -4.4113   -2.6837   -1.4752 H   0  0  0  0  0
   -5.5402   -2.9141   -0.1433 H   0  0  0  0  0
   -4.8120    1.1046   -1.5214 H   0  0  0  0  0
   -2.6614    2.8540   -1.9062 C   0  0  0  0  0
   -2.5634    3.2105   -0.8755 H   0  0  0  0  0
   -3.7122    2.9437   -2.1962 H   0  0  0  0  0
   -2.0944    3.5313   -2.5539 H   0  0  0  0  0
   -1.0594    1.4642   -1.8183 H   0  0  0  0  0
  1  2  2  0  0  0
  2  3  1  0  0  0
  2 57  1  0  0  0
  3  4  1  0  0  0
  3 75  1  0  0  0
  3 79  1  0  0  0
  4  5  2  0  0  0
  4 49  1  0  0  0
  5  6  1  0  0  0
  5 48  1  0  0  0
  6  7  1  0  0  0
  6 46  1  0  0  0
  6 47  1  0  0  0
  7  8  1  0  0  0
  7 29  1  0  0  0
  7 45  1  0  0  0
  8  9  1  0  0  0
  8 11  1  0  0  0
  8 44  1  0  0  0
  9 10  1  0  0  0
 11 12  1  0  0  0
 11 42  1  0  0  0
 11 43  1  0  0  0
 12 13  1  0  0  0
 12 40  1  0  0  0
 12 41  1  0  0  0
 13 14  1  0  0  0
 13 29  1  0  0  0
 13 39  1  0  0  0
 14 15  1  0  0  0
 15 16  1  0  0  0
 15 20  1  0  0  0
 15 24  1  0  0  0
 16 17  1  0  0  0
 16 18  1  0  0  0
 16 19  1  0  0  0
 20 21  1  0  0  0
 20 22  1  0  0  0
 20 23  1  0  0  0
 24 25  1  0  0  0
 24 27  1  0  0  0
 24 38  1  0  0  0
 25 26  1  0  0  0
 27 28  1  0  0  0
 27 36  1  0  0  0
 27 37  1  0  0  0
 28 29  1  0  0  0
 28 34  1  0  0  0
 28 35  1  0  0  0
 29 30  1  0  0  0
 30 31  1  0  0  0
 30 32  1  0  0  0
 30 33  1  0  0  0
 49 50  1  0  0  0
 49 56  1  0  0  0
 49 74  1  0  0  0
 50 51  1  0  0  0
 50 66  1  0  0  0
 50 70  1  0  0  0
 51 52  1  0  0  0
 51 64  1  0  0  0
 51 65  1  0  0  0
 52 53  1  0  0  0
 52 62  1  0  0  0
 52 63  1  0  0  0
 53 54  1  0  0  0
 53 56  1  0  0  0
 53 61  1  0  0  0
 54 55  1  0  0  0
 56 57  1  0  0  0
 56 60  1  0  0  0
 57 58  1  0  0  0
 57 59  1  0  0  0
 66 67  1  0  0  0
 66 68  1  0  0  0
 66 69  1  0  0  0
 70 71  1  0  0  0
 70 72  1  0  0  0
 70 73  1  0  0  0
 75 76  1  0  0  0
 75 77  1  0  0  0
 75 78  1  0  0  0
M  END
> <Tumorigenic>
none

> <Score>
43.24218

> <Active/Decoy>
active

> <InChI>
InChI=1S/C28H46O5/c1-16-17(25-18(15-22(16)31)20(29)11-13-26(25,2)3)7-8-19-21(30)9-10-24-28(19,6)14-12-23(32)27(4,5)33-24/h7,16,18-21,23-25,29-30,32H,8-15H2,1-6H3/b17-7+/t16-,18+,19+,20+,21-,23-,24+,25-,28-/m0/s1

> <Matching Features>
H:14924486185440016873|HBA:149238150533300697|HBA:14924321692640012300|HBA:14924486112070016868

> <Mol. Index>
155

> <Pharmacophore Match>
Model -1

> <# Confs.>
25

> <Source Database>
Pharm-Screening-input-NANPDB_After_DataWarror.ldb

> <Pharmacophore-Fit Score>
43.24

> <formula>
C28H46O5

> <Mutagenic>
none

> <Reproductive Effective>
none

> <Irritant>
none

$$$$
chrysoeriol-7-galactoside
XX    ILIB03122402103D

 55 58  0  0  1  0              1 V2000
    4.1674    1.6676   -2.3304 O   0  0  0  0  0
    3.1982    1.1359   -1.8061 C   0  0  0  0  0
    1.9072    0.9591   -2.4982 C   0  0  0  0  0
    0.8672    0.3427   -1.8023 C   0  0  0  0  0
    0.9866   -0.0930   -0.5064 O   0  0  0  0  0
    2.1945    0.0774    0.1501 C   0  0  0  0  0
    3.2709    0.6496   -0.4126 C   0  0  0  0  0
    4.2158    0.7882    0.1029 H   0  0  0  0  0
    2.1976   -0.4191    1.5394 C   0  0  0  0  0
    1.3889   -1.5052    1.9147 C   0  0  0  0  0
    1.3878   -1.9946    3.2294 C   0  0  0  0  0
    0.5461   -3.0388    3.4834 O   0  0  0  0  0
    1.1279   -4.3339    3.3665 C   0  0  0  0  0
    1.4747   -4.5213    2.3438 H   0  0  0  0  0
    1.9400   -4.4690    4.0888 H   0  0  0  0  0
    0.3523   -5.0704    3.5971 H   0  0  0  0  0
    2.1668   -1.3636    4.1984 C   0  0  0  0  0
    2.1142   -1.7774    5.5004 O   0  0  0  0  0
    2.7054   -1.2205    6.0327 H   0  0  0  0  0
    2.9764   -0.2853    3.8500 C   0  0  0  0  0
    2.9941    0.1790    2.5316 C   0  0  0  0  0
    3.6335    1.0285    2.3021 H   0  0  0  0  0
    3.5908    0.2129    4.5962 H   0  0  0  0  0
    0.7536   -1.9993    1.1818 H   0  0  0  0  0
   -0.3807    0.1497   -2.4065 C   0  0  0  0  0
   -0.5975    0.5461   -3.7268 C   0  0  0  0  0
   -1.7647    0.4313   -4.4106 O   0  0  0  0  0
   -2.5719   -0.7010   -4.0795 C   0  0  1  0  0
   -3.5196   -0.4188   -3.0404 O   0  0  0  0  0
   -4.4576    0.6080   -3.3888 C   0  0  1  0  0
   -5.2746    0.2048   -4.6219 C   0  0  1  0  0
   -6.1056    1.2961   -5.0089 O   0  0  0  0  0
   -6.5927    1.0235   -5.8056 H   0  0  0  0  0
   -4.3582   -0.1733   -5.7880 C   0  0  2  0  0
   -5.1412   -0.7394   -6.8396 O   0  0  0  0  0
   -5.5763   -1.5379   -6.4952 H   0  0  0  0  0
   -3.3137   -1.1890   -5.3291 C   0  0  1  0  0
   -2.3863   -1.4481   -6.3780 O   0  0  0  0  0
   -1.9157   -0.6187   -6.5677 H   0  0  0  0  0
   -3.8161   -2.1383   -5.1050 H   0  0  0  0  0
   -3.8813    0.7176   -6.2129 H   0  0  0  0  0
   -5.9315   -0.6431   -4.3904 H   0  0  0  0  0
   -5.3226    0.8745   -2.1684 C   0  0  0  0  0
   -6.0095   -0.3164   -1.7986 O   0  0  0  0  0
   -5.3381   -1.0005   -1.6353 H   0  0  0  0  0
   -4.7239    1.1969   -1.3100 H   0  0  0  0  0
   -6.0768    1.6385   -2.3809 H   0  0  0  0  0
   -3.9087    1.5366   -3.5931 H   0  0  0  0  0
   -1.9254   -1.5200   -3.7343 H   0  0  0  0  0
    0.4561    1.1617   -4.4306 C   0  0  0  0  0
    1.7000    1.3568   -3.8224 C   0  0  0  0  0
    2.7009    1.9627   -4.5302 O   0  0  0  0  0
    2.3701    2.1838   -5.4177 H   0  0  0  0  0
    0.2933    1.4910   -5.4544 H   0  0  0  0  0
   -1.1581   -0.3536   -1.8376 H   0  0  0  0  0
  1  2  2  0  0  0
  2  3  1  0  0  0
  2  7  1  0  0  0
  3  4  2  0  0  0
  3 51  1  0  0  0
  4  5  1  0  0  0
  4 25  1  0  0  0
  5  6  1  0  0  0
  6  7  2  0  0  0
  6  9  1  0  0  0
  7  8  1  0  0  0
  9 10  2  0  0  0
  9 21  1  0  0  0
 10 11  1  0  0  0
 10 24  1  0  0  0
 11 12  1  0  0  0
 11 17  2  0  0  0
 12 13  1  0  0  0
 13 14  1  0  0  0
 13 15  1  0  0  0
 13 16  1  0  0  0
 17 18  1  0  0  0
 17 20  1  0  0  0
 18 19  1  0  0  0
 20 21  2  0  0  0
 20 23  1  0  0  0
 21 22  1  0  0  0
 25 26  2  0  0  0
 25 55  1  0  0  0
 26 27  1  0  0  0
 26 50  1  0  0  0
 27 28  1  0  0  0
 28 29  1  0  0  0
 28 37  1  0  0  0
 28 49  1  0  0  0
 29 30  1  0  0  0
 30 31  1  0  0  0
 30 43  1  0  0  0
 30 48  1  0  0  0
 31 32  1  0  0  0
 31 34  1  0  0  0
 31 42  1  0  0  0
 32 33  1  0  0  0
 34 35  1  0  0  0
 34 37  1  0  0  0
 34 41  1  0  0  0
 35 36  1  0  0  0
 37 38  1  0  0  0
 37 40  1  0  0  0
 38 39  1  0  0  0
 43 44  1  0  0  0
 43 46  1  0  0  0
 43 47  1  0  0  0
 44 45  1  0  0  0
 50 51  2  0  0  0
 50 54  1  0  0  0
 51 52  1  0  0  0
 52 53  1  0  0  0
M  END
> <Tumorigenic>
none

> <Score>
43.197826

> <Active/Decoy>
active

> <InChI>
InChI=1S/C22H22O11/c1-30-15-4-9(2-3-11(15)24)14-7-13(26)18-12(25)5-10(6-16(18)32-14)31-22-21(29)20(28)19(27)17(8-23)33-22/h2-7,17,19-25,27-29H,8H2,1H3/t17-,19-,20+,21-,22+/m1/s1

> <Matching Features>
H:14924486185440016873|HBA:149238150533300697|HBA:14924321692640012300|HBA:14924486112070016868

> <Mol. Index>
988

> <Pharmacophore Match>
Model -1

> <# Confs.>
25

> <Source Database>
Pharm-Screening-input-NANPDB_After_DataWarror.ldb

> <Pharmacophore-Fit Score>
43.2

> <formula>
C22H22O11

> <Mutagenic>
none

> <Reproductive Effective>
none

> <Irritant>
none

$$$$
chrysoeriol 7-O-glucoside
XX    ILIB03122402103D

 55 58  0  0  1  0              1 V2000
    3.6529    1.5760   -2.5421 O   0  0  0  0  0
    2.7091    1.1837   -1.8697 C   0  0  0  0  0
    1.3147    1.2086   -2.3516 C   0  0  0  0  0
    0.3157    0.7401   -1.4982 C   0  0  0  0  0
    0.5687    0.2714   -0.2334 O   0  0  0  0  0
    1.8754    0.2528    0.2263 C   0  0  0  0  0
    2.9241    0.6701   -0.5009 C   0  0  0  0  0
    3.9473    0.6609   -0.1394 H   0  0  0  0  0
    2.0204   -0.2605    1.6019 C   0  0  0  0  0
    1.1287   -1.2223    2.1061 C   0  0  0  0  0
    1.2591   -1.7269    3.4085 C   0  0  0  0  0
    0.3225   -2.6405    3.7979 O   0  0  0  0  0
    0.6826   -4.0057    3.6011 C   0  0  0  0  0
    1.5592   -4.2728    4.2004 H   0  0  0  0  0
    0.8493   -4.2212    2.5415 H   0  0  0  0  0
   -0.1539   -4.6229    3.9414 H   0  0  0  0  0
    2.2628   -1.2319    4.2402 C   0  0  0  0  0
    2.3519   -1.6539    5.5376 O   0  0  0  0  0
    3.0937   -1.1979    5.9676 H   0  0  0  0  0
    3.1583   -0.2783    3.7625 C   0  0  0  0  0
    3.0399    0.1990    2.4539 C   0  0  0  0  0
    3.7540    0.9493    2.1217 H   0  0  0  0  0
    3.9471    0.1128    4.4005 H   0  0  0  0  0
    0.3220   -1.6065    1.4844 H   0  0  0  0  0
   -1.0253    0.7413   -1.8998 C   0  0  0  0  0
   -1.3830    1.1858   -3.1733 C   0  0  0  0  0
   -2.6434    1.2328   -3.6765 O   0  0  0  0  0
   -3.6827    0.7643   -2.8262 C   0  0  1  0  0
   -3.7837    1.5025   -1.5924 O   0  0  0  0  0
   -4.1565    2.8755   -1.7504 C   0  0  1  0  0
   -5.5424    2.9639   -2.4057 C   0  0  1  0  0
   -5.9220    4.3203   -2.6010 O   0  0  0  0  0
   -6.8016    4.3221   -3.0172 H   0  0  0  0  0
   -5.5541    2.2275   -3.7498 C   0  0  1  0  0
   -4.7405    2.9207   -4.6948 O   0  0  0  0  0
   -5.0824    3.8289   -4.7604 H   0  0  0  0  0
   -5.0175    0.8054   -3.5900 C   0  0  2  0  0
   -5.9883    0.0410   -2.8770 O   0  0  0  0  0
   -5.6621   -0.8731   -2.8255 H   0  0  0  0  0
   -4.8842    0.3529   -4.5802 H   0  0  0  0  0
   -6.5751    2.2110   -4.1509 H   0  0  0  0  0
   -6.2823    2.5001   -1.7422 H   0  0  0  0  0
   -4.1212    3.5030   -0.3677 C   0  0  0  0  0
   -2.8226    3.4145    0.1979 O   0  0  0  0  0
   -2.6206    2.4726    0.3296 H   0  0  0  0  0
   -4.3952    4.5626   -0.4269 H   0  0  0  0  0
   -4.8412    3.0298    0.3096 H   0  0  0  0  0
   -3.4157    3.3944   -2.3715 H   0  0  0  0  0
   -3.4820   -0.2732   -2.5469 H   0  0  0  0  0
   -0.3720    1.6516   -4.0366 C   0  0  0  0  0
    0.9660    1.6530   -3.6305 C   0  0  0  0  0
    1.9233    2.1170   -4.4895 O   0  0  0  0  0
    1.4954    2.3979   -5.3165 H   0  0  0  0  0
   -0.6410    2.0172   -5.0252 H   0  0  0  0  0
   -1.7708    0.3482   -1.2135 H   0  0  0  0  0
  1  2  2  0  0  0
  2  3  1  0  0  0
  2  7  1  0  0  0
  3  4  2  0  0  0
  3 51  1  0  0  0
  4  5  1  0  0  0
  4 25  1  0  0  0
  5  6  1  0  0  0
  6  7  2  0  0  0
  6  9  1  0  0  0
  7  8  1  0  0  0
  9 10  2  0  0  0
  9 21  1  0  0  0
 10 11  1  0  0  0
 10 24  1  0  0  0
 11 12  1  0  0  0
 11 17  2  0  0  0
 12 13  1  0  0  0
 13 14  1  0  0  0
 13 15  1  0  0  0
 13 16  1  0  0  0
 17 18  1  0  0  0
 17 20  1  0  0  0
 18 19  1  0  0  0
 20 21  2  0  0  0
 20 23  1  0  0  0
 21 22  1  0  0  0
 25 26  2  0  0  0
 25 55  1  0  0  0
 26 27  1  0  0  0
 26 50  1  0  0  0
 27 28  1  0  0  0
 28 29  1  0  0  0
 28 37  1  0  0  0
 28 49  1  0  0  0
 29 30  1  0  0  0
 30 31  1  0  0  0
 30 43  1  0  0  0
 30 48  1  0  0  0
 31 32  1  0  0  0
 31 34  1  0  0  0
 31 42  1  0  0  0
 32 33  1  0  0  0
 34 35  1  0  0  0
 34 37  1  0  0  0
 34 41  1  0  0  0
 35 36  1  0  0  0
 37 38  1  0  0  0
 37 40  1  0  0  0
 38 39  1  0  0  0
 43 44  1  0  0  0
 43 46  1  0  0  0
 43 47  1  0  0  0
 44 45  1  0  0  0
 50 51  2  0  0  0
 50 54  1  0  0  0
 51 52  1  0  0  0
 52 53  1  0  0  0
M  END
> <Tumorigenic>
none

> <Score>
43.201477

> <Active/Decoy>
active

> <InChI>
InChI=1S/C22H22O11/c1-30-15-4-9(2-3-11(15)24)14-7-13(26)18-12(25)5-10(6-16(18)32-14)31-22-21(29)20(28)19(27)17(8-23)33-22/h2-7,17,19-25,27-29H,8H2,1H3/t17-,19-,20-,21+,22+/m1/s1

> <Matching Features>
H:14924486185440016873|HBA:149238150533300697|HBA:14924321692640012300|HBA:14924486112070016868

> <Mol. Index>
106

> <Pharmacophore Match>
Model -1

> <# Confs.>
25

> <Source Database>
Pharm-Screening-input-NANPDB_After_DataWarror.ldb

> <Pharmacophore-Fit Score>
43.2

> <formula>
C22H22O11

> <Mutagenic>
none

> <Reproductive Effective>
none

> <Irritant>
none

$$$$
naringenin-4'-methoxy-7-O-alpha-L-rhamnoside
XX    ILIB03122402103D

 55 58  0  0  1  0              1 V2000
   -5.8551    0.0184   -2.7492 O   0  0  0  0  0
   -4.8871   -0.6575   -2.4217 C   0  0  0  0  0
   -3.6227   -0.0403   -1.9483 C   0  0  0  0  0
   -2.5578   -0.8869   -1.6158 C   0  0  0  0  0
   -2.6324   -2.2580   -1.6464 O   0  0  0  0  0
   -3.9633   -2.7556   -1.4961 C   0  0  2  0  0
   -3.9483   -4.2482   -1.5552 C   0  0  0  0  0
   -2.9738   -4.9013   -2.3477 C   0  0  0  0  0
   -2.9393   -6.2982   -2.4247 C   0  0  0  0  0
   -3.8624   -7.0608   -1.7248 C   0  0  0  0  0
   -3.9365   -8.4268   -1.7103 O   0  0  0  0  0
   -2.9543   -9.0890   -2.5035 C   0  0  0  0  0
   -3.0594   -8.8249   -3.5614 H   0  0  0  0  0
   -3.1208  -10.1658   -2.4086 H   0  0  0  0  0
   -1.9433   -8.8736   -2.1432 H   0  0  0  0  0
   -4.8344   -6.4157   -0.9388 C   0  0  0  0  0
   -4.8684   -5.0217   -0.8625 C   0  0  0  0  0
   -5.6289   -4.5442   -0.2494 H   0  0  0  0  0
   -5.5677   -6.9934   -0.3824 H   0  0  0  0  0
   -2.1720   -6.7542   -3.0439 H   0  0  0  0  0
   -2.2397   -4.3254   -2.9055 H   0  0  0  0  0
   -4.8922   -2.1584   -2.5471 C   0  0  0  0  0
   -4.5643   -2.4041   -3.5639 H   0  0  0  0  0
   -5.9165   -2.5217   -2.4073 H   0  0  0  0  0
   -4.3068   -2.4575   -0.4806 H   0  0  0  0  0
   -1.3172   -0.3606   -1.2380 C   0  0  0  0  0
   -1.1391    1.0224   -1.1579 C   0  0  0  0  0
    0.0190    1.6546   -0.7927 O   0  0  0  0  0
    1.2363    0.9746   -1.1043 C   0  0  2  0  0
    1.6901    0.0951   -0.0612 O   0  0  0  0  0
    2.0091    0.7603    1.1647 C   0  0  2  0  0
    3.1294    1.7842    0.9612 C   0  0  2  0  0
    3.3277    2.5120    2.1703 O   0  0  0  0  0
    4.0221    3.1722    2.0043 H   0  0  0  0  0
    2.7547    2.7574   -0.1578 C   0  0  1  0  0
    3.8570    3.6135   -0.4523 O   0  0  0  0  0
    4.5787    3.0569   -0.7934 H   0  0  0  0  0
    2.3182    2.0133   -1.4203 C   0  0  1  0  0
    3.4379    1.3494   -2.0078 O   0  0  0  0  0
    3.6942    0.6137   -1.4263 H   0  0  0  0  0
    1.9585    2.7381   -2.1591 H   0  0  0  0  0
    1.9438    3.4097    0.1872 H   0  0  0  0  0
    4.0756    1.2830    0.7234 H   0  0  0  0  0
    2.4064   -0.3123    2.1728 C   0  0  0  0  0
    1.5966   -1.0416    2.2910 H   0  0  0  0  0
    2.6303    0.1169    3.1551 H   0  0  0  0  0
    3.2833   -0.8710    1.8258 H   0  0  0  0  0
    1.1084    1.2538    1.5516 H   0  0  0  0  0
    1.0963    0.3500   -1.9983 H   0  0  0  0  0
   -2.2080    1.8681   -1.4646 C   0  0  0  0  0
   -3.4408    1.3444   -1.8615 C   0  0  0  0  0
   -4.4150    2.2571   -2.1548 O   0  0  0  0  0
   -5.2284    1.7900   -2.4054 H   0  0  0  0  0
   -2.0775    2.9476   -1.4020 H   0  0  0  0  0
   -0.5128   -1.0507   -1.0004 H   0  0  0  0  0
  1  2  2  0  0  0
  2  3  1  0  0  0
  2 22  1  0  0  0
  3  4  2  0  0  0
  3 51  1  0  0  0
  4  5  1  0  0  0
  4 26  1  0  0  0
  5  6  1  0  0  0
  6  7  1  0  0  0
  6 22  1  0  0  0
  6 25  1  0  0  0
  7  8  2  0  0  0
  7 17  1  0  0  0
  8  9  1  0  0  0
  8 21  1  0  0  0
  9 10  2  0  0  0
  9 20  1  0  0  0
 10 11  1  0  0  0
 10 16  1  0  0  0
 11 12  1  0  0  0
 12 13  1  0  0  0
 12 14  1  0  0  0
 12 15  1  0  0  0
 16 17  2  0  0  0
 16 19  1  0  0  0
 17 18  1  0  0  0
 22 23  1  0  0  0
 22 24  1  0  0  0
 26 27  2  0  0  0
 26 55  1  0  0  0
 27 28  1  0  0  0
 27 50  1  0  0  0
 28 29  1  0  0  0
 29 30  1  0  0  0
 29 38  1  0  0  0
 29 49  1  0  0  0
 30 31  1  0  0  0
 31 32  1  0  0  0
 31 44  1  0  0  0
 31 48  1  0  0  0
 32 33  1  0  0  0
 32 35  1  0  0  0
 32 43  1  0  0  0
 33 34  1  0  0  0
 35 36  1  0  0  0
 35 38  1  0  0  0
 35 42  1  0  0  0
 36 37  1  0  0  0
 38 39  1  0  0  0
 38 41  1  0  0  0
 39 40  1  0  0  0
 44 45  1  0  0  0
 44 46  1  0  0  0
 44 47  1  0  0  0
 50 51  2  0  0  0
 50 54  1  0  0  0
 51 52  1  0  0  0
 52 53  1  0  0  0
M  END
> <Tumorigenic>
none

> <Score>
43.18082

> <Active/Decoy>
active

> <InChI>
InChI=1S/C22H24O9/c1-10-19(25)20(26)21(27)22(29-10)30-13-7-14(23)18-15(24)9-16(31-17(18)8-13)11-3-5-12(28-2)6-4-11/h3-8,10,16,19-23,25-27H,9H2,1-2H3/t10-,16-,19-,20+,21+,22-/m0/s1

> <Matching Features>
H:14924486185440016873|HBA:149238150533300697|HBA:14924321692640012300|HBA:14924486112070016868

> <Mol. Index>
674

> <Pharmacophore Match>
Model -1

> <# Confs.>
25

> <Source Database>
Pharm-Screening-input-NANPDB_After_DataWarror.ldb

> <Pharmacophore-Fit Score>
43.18

> <formula>
C22H24O9

> <Mutagenic>
none

> <Reproductive Effective>
none

> <Irritant>
none

$$$$
2-({2-[(5S,7R,10S)-7-hydroxy-10-methyl-6-methylidenespiro[4.5]decan-2-yl]propan-2-yl}oxy)-6-methyloxane-3,4,5-triol
XX    ILIB03122402103D

 63 65  0  0  1  0              1 V2000
   -2.4715    0.1637   -1.4484 O   0  0  0  0  0
   -2.6989   -0.2026   -2.8145 C   0  0  2  0  0
   -1.9518    0.6115   -3.7187 O   0  0  0  0  0
   -0.5521    0.5706   -3.5098 C   0  0  0  0  0
   -0.1382    0.9985   -2.0865 C   0  0  1  0  0
    1.3719    0.9472   -1.8039 C   0  0  0  0  0
    1.6258    1.9146   -0.5980 C   0  0  2  0  0
    2.8060    2.8525   -0.9615 C   0  0  0  0  0
    2.6842    4.1313   -1.3615 C   0  0  0  0  0
    3.5584    4.7282   -1.6025 H   0  0  0  0  0
    1.7300    4.6262   -1.4915 H   0  0  0  0  0
    4.2040    2.2728   -0.8637 C   0  0  2  0  0
    4.3981    1.3270   -1.9130 O   0  0  0  0  0
    5.2994    0.9719   -1.8256 H   0  0  0  0  0
    4.4355    1.6041    0.4851 C   0  0  0  0  0
    3.3728    0.5511    0.7680 C   0  0  0  0  0
    1.9529    1.1499    0.7411 C   0  0  2  0  0
    0.9705    0.0231    1.1108 C   0  0  0  0  0
   -0.0615    0.3692    1.1891 H   0  0  0  0  0
    1.2335   -0.3992    2.0875 H   0  0  0  0  0
    0.9995   -0.7970    0.3872 H   0  0  0  0  0
    1.9040    1.8894    1.5529 H   0  0  0  0  0
    3.4547   -0.2669    0.0409 H   0  0  0  0  0
    3.5707    0.1117    1.7530 H   0  0  0  0  0
    4.4294    2.3568    1.2841 H   0  0  0  0  0
    5.4180    1.1195    0.5003 H   0  0  0  0  0
    4.9651    3.0507   -0.9988 H   0  0  0  0  0
    0.2600    2.6627   -0.4331 C   0  0  0  0  0
   -0.4984    2.4444   -1.7359 C   0  0  0  0  0
   -1.5754    2.5834   -1.5999 H   0  0  0  0  0
   -0.1550    3.1494   -2.5008 H   0  0  0  0  0
    0.3488    3.7233   -0.1847 H   0  0  0  0  0
   -0.3384    2.2410    0.3796 H   0  0  0  0  0
    1.7117   -0.0642   -1.6271 H   0  0  0  0  0
    1.9146    1.3097   -2.6963 H   0  0  0  0  0
   -0.6233    0.3307   -1.3699 H   0  0  0  0  0
   -0.0088   -0.8433   -3.8410 C   0  0  0  0  0
    1.0858   -0.8695   -3.8107 H   0  0  0  0  0
   -0.3814   -1.5986   -3.1409 H   0  0  0  0  0
   -0.3353   -1.1597   -4.8385 H   0  0  0  0  0
    0.0375    1.5486   -4.5406 C   0  0  0  0  0
   -0.2176    1.2447   -5.5611 H   0  0  0  0  0
   -0.3804    2.5532   -4.4083 H   0  0  0  0  0
    1.1280    1.6128   -4.4693 H   0  0  0  0  0
   -4.1829   -0.0517   -3.1653 C   0  0  2  0  0
   -4.5573    1.3229   -3.0602 O   0  0  0  0  0
   -3.9647    1.8312   -3.6391 H   0  0  0  0  0
   -5.0255   -0.8856   -2.2017 C   0  0  2  0  0
   -6.4137   -0.7073   -2.4653 O   0  0  0  0  0
   -6.5942    0.2475   -2.4725 H   0  0  0  0  0
   -4.7057   -0.5670   -0.7387 C   0  0  2  0  0
   -5.1617    0.7475   -0.4080 O   0  0  0  0  0
   -6.1315    0.7487   -0.4886 H   0  0  0  0  0
   -3.1947   -0.6043   -0.4744 C   0  0  1  0  0
   -2.6370   -2.0229   -0.3685 C   0  0  0  0  0
   -1.5513   -1.9937   -0.2290 H   0  0  0  0  0
   -2.8248   -2.6117   -1.2703 H   0  0  0  0  0
   -3.0833   -2.5534    0.4783 H   0  0  0  0  0
   -2.9979   -0.1054    0.4824 H   0  0  0  0  0
   -5.2369   -1.2537   -0.0706 H   0  0  0  0  0
   -4.8127   -1.9451   -2.3828 H   0  0  0  0  0
   -4.3763   -0.3454   -4.2028 H   0  0  0  0  0
   -2.3876   -1.2415   -2.9766 H   0  0  0  0  0
  1  2  1  0  0  0
  1 54  1  0  0  0
  2  3  1  0  0  0
  2 45  1  0  0  0
  2 63  1  0  0  0
  3  4  1  0  0  0
  4  5  1  0  0  0
  4 37  1  0  0  0
  4 41  1  0  0  0
  5  6  1  0  0  0
  5 29  1  0  0  0
  5 36  1  0  0  0
  6  7  1  0  0  0
  6 34  1  0  0  0
  6 35  1  0  0  0
  7  8  1  0  0  0
  7 17  1  0  0  0
  7 28  1  0  0  0
  8  9  2  0  0  0
  8 12  1  0  0  0
  9 10  1  0  0  0
  9 11  1  0  0  0
 12 13  1  0  0  0
 12 15  1  0  0  0
 12 27  1  0  0  0
 13 14  1  0  0  0
 15 16  1  0  0  0
 15 25  1  0  0  0
 15 26  1  0  0  0
 16 17  1  0  0  0
 16 23  1  0  0  0
 16 24  1  0  0  0
 17 18  1  0  0  0
 17 22  1  0  0  0
 18 19  1  0  0  0
 18 20  1  0  0  0
 18 21  1  0  0  0
 28 29  1  0  0  0
 28 32  1  0  0  0
 28 33  1  0  0  0
 29 30  1  0  0  0
 29 31  1  0  0  0
 37 38  1  0  0  0
 37 39  1  0  0  0
 37 40  1  0  0  0
 41 42  1  0  0  0
 41 43  1  0  0  0
 41 44  1  0  0  0
 45 46  1  0  0  0
 45 48  1  0  0  0
 45 62  1  0  0  0
 46 47  1  0  0  0
 48 49  1  0  0  0
 48 51  1  0  0  0
 48 61  1  0  0  0
 49 50  1  0  0  0
 51 52  1  0  0  0
 51 54  1  0  0  0
 51 60  1  0  0  0
 52 53  1  0  0  0
 54 55  1  0  0  0
 54 59  1  0  0  0
 55 56  1  0  0  0
 55 57  1  0  0  0
 55 58  1  0  0  0
M  END
> <Tumorigenic>
none

> <Score>
43.15767

> <Active/Decoy>
active

> <InChI>
InChI=1S/C21H36O6/c1-11-6-7-15(22)12(2)21(11)9-8-14(10-21)20(4,5)27-19-18(25)17(24)16(23)13(3)26-19/h11,13-19,22-25H,2,6-10H2,1,3-5H3/t11-,13+,14+,15+,16+,17+,18+,19+,21-/m0/s1

> <Matching Features>
H:14924486185440016873|HBA:149238150533300697|HBA:14924321692640012300|HBA:14924486112070016868

> <Mol. Index>
1107

> <Pharmacophore Match>
Model -1

> <# Confs.>
12

> <Source Database>
Pharm-Screening-input-NANPDB_After_DataWarror.ldb

> <Pharmacophore-Fit Score>
43.16

> <formula>
C21H36O6

> <Mutagenic>
none

> <Reproductive Effective>
none

> <Irritant>
none

$$$$
3-ethyl-3'-methyl-4,4',5,5',6,6'-hexahydroxy-[1,1'-biphenyl]3,3'-dicarboxylate
XX    ILIB03122402103D

 43 44  0  0  1  0              1 V2000
    3.9782    0.7291   -0.1301 O   0  0  0  0  0
    2.7765    0.5846   -0.2262 C   0  0  0  0  0
    1.9303    0.1136    0.7336 O   0  0  0  0  0
    2.5268   -0.2458    1.9893 C   0  0  0  0  0
    1.4325   -0.7354    2.9173 C   0  0  0  0  0
    0.6754    0.0451    3.0723 H   0  0  0  0  0
    0.9183   -1.5951    2.4843 H   0  0  0  0  0
    1.8449   -1.0248    3.8869 H   0  0  0  0  0
    3.2698   -1.0271    1.8404 H   0  0  0  0  0
    3.0134    0.6419    2.4279 H   0  0  0  0  0
    2.0110    0.9080   -1.4545 C   0  0  0  0  0
    2.6484    1.4184   -2.5748 C   0  0  0  0  0
    3.9917    1.6643   -2.6273 O   0  0  0  0  0
    4.3977    1.4430   -1.7738 H   0  0  0  0  0
    1.9050    1.6896   -3.7212 C   0  0  0  0  0
    2.5086    2.1867   -4.8460 O   0  0  0  0  0
    3.4591    2.2844   -4.6616 H   0  0  0  0  0
    0.5237    1.4689   -3.7484 C   0  0  0  0  0
   -0.1807    1.7849   -4.8828 O   0  0  0  0  0
    0.4435    2.1298   -5.5442 H   0  0  0  0  0
   -0.1544    0.9525   -2.6294 C   0  0  0  0  0
    0.6197    0.6816   -1.4794 C   0  0  0  0  0
    0.1294    0.2583   -0.6039 H   0  0  0  0  0
   -1.6043    0.6902   -2.6202 C   0  0  0  0  0
   -2.1625   -0.5433   -3.0027 C   0  0  0  0  0
   -1.3374   -1.5762   -3.3703 O   0  0  0  0  0
   -1.8899   -2.3461   -3.5907 H   0  0  0  0  0
   -3.5452   -0.7474   -2.9953 C   0  0  0  0  0
   -4.0272   -1.9706   -3.3802 O   0  0  0  0  0
   -4.9980   -1.9442   -3.3248 H   0  0  0  0  0
   -4.4137    0.2674   -2.5972 C   0  0  0  0  0
   -5.7513   -0.0144   -2.6065 O   0  0  0  0  0
   -6.2507    0.7606   -2.3011 H   0  0  0  0  0
   -3.8943    1.5006   -2.1965 C   0  0  0  0  0
   -2.5027    1.7024   -2.2171 C   0  0  0  0  0
   -2.1039    2.6776   -1.9377 H   0  0  0  0  0
   -4.7871    2.6011   -1.7854 C   0  0  0  0  0
   -6.0044    2.5060   -1.7710 O   0  0  0  0  0
   -4.0515    3.6883   -1.4447 O   0  0  0  0  0
   -4.8073    4.8291   -1.0282 C   0  0  0  0  0
   -5.4098    4.5851   -0.1475 H   0  0  0  0  0
   -4.1061    5.6245   -0.7641 H   0  0  0  0  0
   -5.4434    5.1786   -1.8462 H   0  0  0  0  0
  1  2  2  0  0  0
  2  3  1  0  0  0
  2 11  1  0  0  0
  3  4  1  0  0  0
  4  5  1  0  0  0
  4  9  1  0  0  0
  4 10  1  0  0  0
  5  6  1  0  0  0
  5  7  1  0  0  0
  5  8  1  0  0  0
 11 12  2  0  0  0
 11 22  1  0  0  0
 12 13  1  0  0  0
 12 15  1  0  0  0
 13 14  1  0  0  0
 15 16  1  0  0  0
 15 18  2  0  0  0
 16 17  1  0  0  0
 18 19  1  0  0  0
 18 21  1  0  0  0
 19 20  1  0  0  0
 21 22  2  0  0  0
 21 24  1  0  0  0
 22 23  1  0  0  0
 24 25  2  0  0  0
 24 35  1  0  0  0
 25 26  1  0  0  0
 25 28  1  0  0  0
 26 27  1  0  0  0
 28 29  1  0  0  0
 28 31  2  0  0  0
 29 30  1  0  0  0
 31 32  1  0  0  0
 31 34  1  0  0  0
 32 33  1  0  0  0
 34 35  2  0  0  0
 34 37  1  0  0  0
 35 36  1  0  0  0
 37 38  2  0  0  0
 37 39  1  0  0  0
 39 40  1  0  0  0
 40 41  1  0  0  0
 40 42  1  0  0  0
 40 43  1  0  0  0
M  END
> <Tumorigenic>
none

> <Score>
43.152115

> <Active/Decoy>
active

> <InChI>
InChI=1S/C17H16O10/c1-3-27-17(25)9-5-7(11(19)15(23)13(9)21)6-4-8(16(24)26-2)12(20)14(22)10(6)18/h4-5,18-23H,3H2,1-2H3

> <Matching Features>
H:14924486185440016873|HBA:149238150533300697|HBA:14924321692640012300|HBA:14924486112070016868

> <Mol. Index>
83

> <Pharmacophore Match>
Model -1

> <# Confs.>
25

> <Source Database>
Pharm-Screening-input-NANPDB_After_DataWarror.ldb

> <Pharmacophore-Fit Score>
43.15

> <formula>
C17H16O10

> <Mutagenic>
none

> <Reproductive Effective>
none

> <Irritant>
none

$$$$
6-O-trans-caffeoyl-beta-D-glucopyranoside
XX    ILIB03122402103D

 42 43  0  0  1  0              1 V2000
   -2.0985   -3.8705    0.1900 O   0  0  0  0  0
   -1.5040   -3.0167   -0.4426 C   0  0  0  0  0
   -1.7186   -2.6668   -1.7273 O   0  0  0  0  0
   -2.7422   -3.3797   -2.4306 C   0  0  0  0  0
   -4.0640   -2.6331   -2.2378 C   0  0  1  0  0
   -3.8894   -1.3238   -2.7836 O   0  0  0  0  0
   -5.0132   -0.4776   -2.5539 C   0  0  1  0  0
   -4.7589    0.8198   -3.0909 O   0  0  0  0  0
   -4.2610    1.3143   -2.4181 H   0  0  0  0  0
   -6.2483   -1.0411   -3.2504 C   0  0  2  0  0
   -7.3758   -0.2408   -2.8974 O   0  0  0  0  0
   -8.1551   -0.6275   -3.3317 H   0  0  0  0  0
   -6.5104   -2.4875   -2.8348 C   0  0  1  0  0
   -7.5083   -3.0206   -3.7072 O   0  0  0  0  0
   -7.7444   -3.9048   -3.3806 H   0  0  0  0  0
   -5.2415   -3.3355   -2.9308 C   0  0  2  0  0
   -5.4756   -4.5973   -2.3127 O   0  0  0  0  0
   -6.1463   -5.0631   -2.8375 H   0  0  0  0  0
   -5.0030   -3.5190   -3.9859 H   0  0  0  0  0
   -6.9309   -2.5252   -1.8218 H   0  0  0  0  0
   -6.1353   -0.9710   -4.3400 H   0  0  0  0  0
   -5.1865   -0.3598   -1.4769 H   0  0  0  0  0
   -4.2594   -2.5617   -1.1592 H   0  0  0  0  0
   -2.5146   -3.4563   -3.4994 H   0  0  0  0  0
   -2.8451   -4.3939   -2.0299 H   0  0  0  0  0
   -0.4143   -2.2135    0.1620 C   0  0  0  0  0
    0.2660   -1.2637   -0.4983 C   0  0  0  0  0
    1.3503   -0.4662    0.0831 C   0  0  0  0  0
    2.3781   -0.0065   -0.7595 C   0  0  0  0  0
    3.4260    0.7653   -0.2528 C   0  0  0  0  0
    4.3705    1.1857   -1.1470 O   0  0  0  0  0
    4.9427    1.8504   -0.7340 H   0  0  0  0  0
    3.4694    1.0791    1.1029 C   0  0  0  0  0
    4.4751    1.8072    1.6703 O   0  0  0  0  0
    5.2019    1.9087    1.0383 H   0  0  0  0  0
    2.4560    0.6365    1.9493 C   0  0  0  0  0
    1.4039   -0.1337    1.4427 C   0  0  0  0  0
    0.6320   -0.4633    2.1340 H   0  0  0  0  0
    2.4771    0.8788    3.0072 H   0  0  0  0  0
    2.3614   -0.2445   -1.8223 H   0  0  0  0  0
    0.0342   -1.0404   -1.5368 H   0  0  0  0  0
   -0.1939   -2.4552    1.1973 H   0  0  0  0  0
  1  2  2  0  0  0
  2  3  1  0  0  0
  2 26  1  0  0  0
  3  4  1  0  0  0
  4  5  1  0  0  0
  4 24  1  0  0  0
  4 25  1  0  0  0
  5  6  1  0  0  0
  5 16  1  0  0  0
  5 23  1  0  0  0
  6  7  1  0  0  0
  7  8  1  0  0  0
  7 10  1  0  0  0
  7 22  1  0  0  0
  8  9  1  0  0  0
 10 11  1  0  0  0
 10 13  1  0  0  0
 10 21  1  0  0  0
 11 12  1  0  0  0
 13 14  1  0  0  0
 13 16  1  0  0  0
 13 20  1  0  0  0
 14 15  1  0  0  0
 16 17  1  0  0  0
 16 19  1  0  0  0
 17 18  1  0  0  0
 26 27  2  0  0  0
 26 42  1  0  0  0
 27 28  1  0  0  0
 27 41  1  0  0  0
 28 29  2  0  0  0
 28 37  1  0  0  0
 29 30  1  0  0  0
 29 40  1  0  0  0
 30 31  1  0  0  0
 30 33  2  0  0  0
 31 32  1  0  0  0
 33 34  1  0  0  0
 33 36  1  0  0  0
 34 35  1  0  0  0
 36 37  2  0  0  0
 36 39  1  0  0  0
 37 38  1  0  0  0
M  END
> <Tumorigenic>
none

> <Score>
43.135918

> <Active/Decoy>
active

> <InChI>
InChI=1S/C15H18O9/c16-8-3-1-7(5-9(8)17)2-4-11(18)23-6-10-12(19)13(20)14(21)15(22)24-10/h1-5,10,12-17,19-22H,6H2/b4-2+/t10-,12-,13+,14-,15-/m1/s1

> <Matching Features>
H:14924486185440016873|HBA:149238150533300697|HBA:14924321692640012300|HBA:14924486112070016868

> <Mol. Index>
642

> <Pharmacophore Match>
Model -1

> <# Confs.>
25

> <Source Database>
Pharm-Screening-input-NANPDB_After_DataWarror.ldb

> <Pharmacophore-Fit Score>
43.14

> <formula>
C15H18O9

> <Mutagenic>
none

> <Reproductive Effective>
none

> <Irritant>
none

$$$$
(1R*,ZR*,3E,7R*.8E,llR*,l2S*)-3.8-dolabelladiene-2,7,16,18-tetrol-7-O-beta-D-glucopyranoside
XX    ILIB03122402103D

 82 84  0  0  1  0              1 V2000
   -4.7072    0.1628   -4.0908 O   0  0  0  0  0
   -3.5868   -0.3703   -4.7849 C   0  0  2  0  0
   -2.6086   -0.9561   -3.9415 O   0  0  0  0  0
   -3.0875   -2.0149   -3.1310 C   0  0  0  0  0
   -1.9662   -2.5458   -2.2570 C   0  0  2  0  0
   -1.4606   -1.4205   -1.3625 C   0  0  0  0  0
   -0.4791   -0.5766   -1.7408 C   0  0  0  0  0
    0.1265    0.5689   -0.9805 C   0  0  0  0  0
    1.6656    0.4899   -0.7830 C   0  0  2  0  0
    2.2229   -0.4696    0.3334 C   0  0  1  0  0
    2.6714   -1.8727   -0.1956 C   0  0  1  0  0
    3.2972   -2.5948    0.8747 O   0  0  0  0  0
    3.6351   -3.4253    0.5131 H   0  0  0  0  0
    1.5731   -2.7442   -0.7390 C   0  0  0  0  0
    1.3938   -3.1551   -2.0098 C   0  0  0  0  0
    0.1940   -4.0178   -2.3531 C   0  0  0  0  0
   -0.9174   -3.2955   -3.1369 C   0  0  0  0  0
   -0.4997   -2.6236   -3.8946 H   0  0  0  0  0
   -1.4495   -4.0730   -3.7013 H   0  0  0  0  0
   -0.2340   -4.4739   -1.4513 H   0  0  0  0  0
    0.5511   -4.8627   -2.9562 H   0  0  0  0  0
    2.2973   -2.8154   -3.1495 C   0  0  0  0  0
    2.8254   -4.0126   -3.7047 O   0  0  0  0  0
    3.3921   -3.7551   -4.4511 H   0  0  0  0  0
    1.7423   -2.2800   -3.9272 H   0  0  0  0  0
    3.1356   -2.1879   -2.8275 H   0  0  0  0  0
    0.8481   -3.0741    0.0038 H   0  0  0  0  0
    3.4561   -1.7249   -0.9414 H   0  0  0  0  0
    3.5020    0.2783    0.7899 C   0  0  0  0  0
    3.1256    1.7449    0.7863 C   0  0  0  0  0
    2.2006    1.9255   -0.4259 C   0  0  1  0  0
    2.8983    2.6201   -1.6098 C   0  0  0  0  0
    4.0171    1.8368   -2.0369 O   0  0  0  0  0
    4.6848    1.8474   -1.3316 H   0  0  0  0  0
    1.9578    2.7374   -2.8138 C   0  0  0  0  0
    1.6600    1.7521   -3.1862 H   0  0  0  0  0
    1.0558    3.3061   -2.5662 H   0  0  0  0  0
    2.4587    3.2361   -3.6517 H   0  0  0  0  0
    3.4113    4.0098   -1.2164 C   0  0  0  0  0
    2.5962    4.6573   -0.8788 H   0  0  0  0  0
    3.9089    4.4945   -2.0646 H   0  0  0  0  0
    4.1602    3.9476   -0.4194 H   0  0  0  0  0
    1.3687    2.5675   -0.1097 H   0  0  0  0  0
    2.5793    1.9931    1.7030 H   0  0  0  0  0
    4.0136    2.3840    0.7670 H   0  0  0  0  0
    4.3235    0.1171    0.0824 H   0  0  0  0  0
    3.8551   -0.0406    1.7764 H   0  0  0  0  0
    1.2785   -0.6067    1.5482 C   0  0  0  0  0
    1.7726   -1.1264    2.3781 H   0  0  0  0  0
    0.9535    0.3657    1.9277 H   0  0  0  0  0
    0.3815   -1.1767    1.3033 H   0  0  0  0  0
    2.1123    0.1823   -1.7382 H   0  0  0  0  0
   -0.3654    0.7483   -0.0232 H   0  0  0  0  0
   -0.1013    1.4614   -1.5789 H   0  0  0  0  0
   -0.0674   -0.6902   -2.7419 H   0  0  0  0  0
   -2.1775   -1.3436   -0.0372 C   0  0  0  0  0
   -1.8781   -0.4966    0.5812 H   0  0  0  0  0
   -3.2567   -1.2522   -0.1959 H   0  0  0  0  0
   -1.9925   -2.2548    0.5412 H   0  0  0  0  0
   -2.3887   -3.3289   -1.6117 H   0  0  0  0  0
   -3.9303   -1.6892   -2.5045 H   0  0  0  0  0
   -3.4664   -2.8375   -3.7749 H   0  0  0  0  0
   -2.9401    0.7139   -5.6520 C   0  0  2  0  0
   -1.8023    0.1948   -6.3329 O   0  0  0  0  0
   -1.1796   -0.1324   -5.6617 H   0  0  0  0  0
   -2.5416    1.9216   -4.8063 C   0  0  1  0  0
   -2.1228    2.9854   -5.6636 O   0  0  0  0  0
   -2.8711    3.2209   -6.2374 H   0  0  0  0  0
   -3.7260    2.3934   -3.9595 C   0  0  2  0  0
   -3.2758    3.3765   -3.0302 O   0  0  0  0  0
   -2.8594    4.0905   -3.5414 H   0  0  0  0  0
   -4.3582    1.2262   -3.1935 C   0  0  1  0  0
   -5.6289    1.6535   -2.4782 C   0  0  0  0  0
   -6.1892    0.5734   -1.7478 O   0  0  0  0  0
   -6.4599   -0.1080   -2.3862 H   0  0  0  0  0
   -5.4123    2.4652   -1.7753 H   0  0  0  0  0
   -6.3776    2.0376   -3.1811 H   0  0  0  0  0
   -3.6616    0.8383   -2.4387 H   0  0  0  0  0
   -4.4743    2.8682   -4.6056 H   0  0  0  0  0
   -1.6789    1.6908   -4.1713 H   0  0  0  0  0
   -3.6518    1.0389   -6.4213 H   0  0  0  0  0
   -3.9499   -1.1695   -5.4618 H   0  0  0  0  0
  1  2  1  0  0  0
  1 72  1  0  0  0
  2  3  1  0  0  0
  2 63  1  0  0  0
  2 82  1  0  0  0
  3  4  1  0  0  0
  4  5  1  0  0  0
  4 61  1  0  0  0
  4 62  1  0  0  0
  5  6  1  0  0  0
  5 17  1  0  0  0
  5 60  1  0  0  0
  6  7  2  0  0  0
  6 56  1  0  0  0
  7  8  1  0  0  0
  7 55  1  0  0  0
  8  9  1  0  0  0
  8 53  1  0  0  0
  8 54  1  0  0  0
  9 10  1  0  0  0
  9 31  1  0  0  0
  9 52  1  0  0  0
 10 11  1  0  0  0
 10 29  1  0  0  0
 10 48  1  0  0  0
 11 12  1  0  0  0
 11 14  1  0  0  0
 11 28  1  0  0  0
 12 13  1  0  0  0
 14 15  2  0  0  0
 14 27  1  0  0  0
 15 16  1  0  0  0
 15 22  1  0  0  0
 16 17  1  0  0  0
 16 20  1  0  0  0
 16 21  1  0  0  0
 17 18  1  0  0  0
 17 19  1  0  0  0
 22 23  1  0  0  0
 22 25  1  0  0  0
 22 26  1  0  0  0
 23 24  1  0  0  0
 29 30  1  0  0  0
 29 46  1  0  0  0
 29 47  1  0  0  0
 30 31  1  0  0  0
 30 44  1  0  0  0
 30 45  1  0  0  0
 31 32  1  0  0  0
 31 43  1  0  0  0
 32 33  1  0  0  0
 32 35  1  0  0  0
 32 39  1  0  0  0
 33 34  1  0  0  0
 35 36  1  0  0  0
 35 37  1  0  0  0
 35 38  1  0  0  0
 39 40  1  0  0  0
 39 41  1  0  0  0
 39 42  1  0  0  0
 48 49  1  0  0  0
 48 50  1  0  0  0
 48 51  1  0  0  0
 56 57  1  0  0  0
 56 58  1  0  0  0
 56 59  1  0  0  0
 63 64  1  0  0  0
 63 66  1  0  0  0
 63 81  1  0  0  0
 64 65  1  0  0  0
 66 67  1  0  0  0
 66 69  1  0  0  0
 66 80  1  0  0  0
 67 68  1  0  0  0
 69 70  1  0  0  0
 69 72  1  0  0  0
 69 79  1  0  0  0
 70 71  1  0  0  0
 72 73  1  0  0  0
 72 78  1  0  0  0
 73 74  1  0  0  0
 73 76  1  0  0  0
 73 77  1  0  0  0
 74 75  1  0  0  0
M  END
> <Tumorigenic>
none

> <Score>
43.135914

> <Active/Decoy>
active

> <InChI>
InChI=1S/C27H46O9/c1-15-5-8-19-18(26(2,3)34)9-10-27(19,4)21(30)11-16(12-28)6-7-17(15)14-35-25-24(33)23(32)22(31)20(13-29)36-25/h5,11,17-25,28-34H,6-10,12-14H2,1-4H3/b15-5-,16-11-/t17-,18-,19+,20-,21+,22-,23+,24-,25+,27+/m1/s1

> <Matching Features>
H:14924486185440016873|HBA:149238150533300697|HBA:14924321692640012300|HBA:14924486112070016868

> <Mol. Index>
525

> <Pharmacophore Match>
Model -1

> <# Confs.>
25

> <Source Database>
Pharm-Screening-input-NANPDB_After_DataWarror.ldb

> <Pharmacophore-Fit Score>
43.14

> <formula>
C27H46O9

> <Mutagenic>
none

> <Reproductive Effective>
none

> <Irritant>
none

$$$$
2alpha,16-dihydroxy-4beta-carboxy-O-beta-D-glucopyranosyl-19-nor-totarol
XX    ILIB03122402103D

 74 77  0  0  1  0              1 V2000
   -4.4305    2.2717   -0.4468 O   0  0  0  0  0
   -3.5813    2.4244   -1.3155 C   0  0  0  0  0
   -3.7782    2.4126   -2.6553 O   0  0  0  0  0
   -5.1395    2.1556   -3.0807 C   0  0  2  0  0
   -5.3648    0.7466   -3.2417 O   0  0  0  0  0
   -6.7046    0.4463   -3.6444 C   0  0  1  0  0
   -6.9739    1.0446   -5.0269 C   0  0  1  0  0
   -8.3353    0.8124   -5.3753 O   0  0  0  0  0
   -8.4597    1.1052   -6.2942 H   0  0  0  0  0
   -6.6973    2.5486   -5.0299 C   0  0  2  0  0
   -6.7002    3.0309   -6.3746 O   0  0  0  0  0
   -7.5990    2.9145   -6.7273 H   0  0  0  0  0
   -5.3333    2.8634   -4.4187 C   0  0  1  0  0
   -5.2478    4.2739   -4.2184 O   0  0  0  0  0
   -4.3939    4.4569   -3.8057 H   0  0  0  0  0
   -4.5361    2.5911   -5.1211 H   0  0  0  0  0
   -7.4892    3.0936   -4.5020 H   0  0  0  0  0
   -6.3460    0.5539   -5.7819 H   0  0  0  0  0
   -6.8518   -1.0657   -3.6483 C   0  0  0  0  0
   -6.6049   -1.5997   -2.3566 O   0  0  0  0  0
   -5.7016   -1.3465   -2.1034 H   0  0  0  0  0
   -6.1536   -1.5216   -4.3580 H   0  0  0  0  0
   -7.8577   -1.3610   -3.9616 H   0  0  0  0  0
   -7.3992    0.8572   -2.8985 H   0  0  0  0  0
   -5.8216    2.5578   -2.3244 H   0  0  0  0  0
   -2.1106    2.6754   -1.0001 C   0  0  2  0  0
   -1.2088    1.5415   -1.6482 C   0  0  2  0  0
   -0.8869    0.3149   -0.7065 C   0  0  1  0  0
    0.4852    0.3949    0.0029 C   0  0  0  0  0
    1.4384    1.4049   -0.2775 C   0  0  0  0  0
    2.6527    1.4798    0.4704 C   0  0  0  0  0
    2.9192    0.4718    1.4168 C   0  0  0  0  0
    4.1021    0.4849    2.1108 O   0  0  0  0  0
    4.1195   -0.2719    2.7216 H   0  0  0  0  0
    2.0159   -0.5527    1.6592 C   0  0  0  0  0
    0.8122   -0.5837    0.9650 C   0  0  0  0  0
    0.1258   -1.3956    1.1881 H   0  0  0  0  0
    2.2300   -1.3285    2.3890 H   0  0  0  0  0
    3.6475    2.5981    0.2565 C   0  0  2  0  0
    5.0053    2.0753   -0.1813 C   0  0  0  0  0
    4.9000    1.3582   -1.4021 O   0  0  0  0  0
    4.2821    0.6216   -1.2556 H   0  0  0  0  0
    5.4323    1.4145    0.5806 H   0  0  0  0  0
    5.7149    2.8970   -0.3203 H   0  0  0  0  0
    3.7501    3.4985    1.4912 C   0  0  0  0  0
    4.1134    2.9571    2.3714 H   0  0  0  0  0
    2.7704    3.9197    1.7466 H   0  0  0  0  0
    4.4332    4.3326    1.3038 H   0  0  0  0  0
    3.2717    3.2228   -0.5662 H   0  0  0  0  0
    1.1601    2.4259   -1.3529 C   0  0  0  0  0
    0.0789    2.0123   -2.3348 C   0  0  0  0  0
   -0.1155    2.8258   -3.0416 H   0  0  0  0  0
    0.4689    1.1931   -2.9546 H   0  0  0  0  0
    0.9087    3.3743   -0.8705 H   0  0  0  0  0
    2.0659    2.5863   -1.9494 H   0  0  0  0  0
   -2.0328    0.1878    0.3268 C   0  0  0  0  0
   -2.1091    1.3983    1.2561 C   0  0  2  0  0
   -3.3524    1.3753    1.9544 O   0  0  0  0  0
   -4.0654    1.4713    1.3016 H   0  0  0  0  0
   -1.9213    2.7441    0.5361 C   0  0  0  0  0
   -0.9019    3.0895    0.7401 H   0  0  0  0  0
   -2.5877    3.4918    0.9745 H   0  0  0  0  0
   -1.3404    1.3157    2.0332 H   0  0  0  0  0
   -2.9897    0.0505   -0.1940 H   0  0  0  0  0
   -1.9459   -0.7188    0.9392 H   0  0  0  0  0
   -0.8807   -0.9750   -1.5736 C   0  0  0  0  0
   -0.0646   -0.9668   -2.3040 H   0  0  0  0  0
   -1.8226   -1.0873   -2.1235 H   0  0  0  0  0
   -0.7615   -1.8794   -0.9661 H   0  0  0  0  0
   -1.8040    1.1340   -2.4756 H   0  0  0  0  0
   -1.8592    4.0921   -1.5681 C   0  0  0  0  0
   -1.9470    4.1127   -2.6599 H   0  0  0  0  0
   -0.8769    4.4846   -1.2965 H   0  0  0  0  0
   -2.5995    4.8044   -1.1817 H   0  0  0  0  0
  1  2  2  0  0  0
  2  3  1  0  0  0
  2 26  1  0  0  0
  3  4  1  0  0  0
  4  5  1  0  0  0
  4 13  1  0  0  0
  4 25  1  0  0  0
  5  6  1  0  0  0
  6  7  1  0  0  0
  6 19  1  0  0  0
  6 24  1  0  0  0
  7  8  1  0  0  0
  7 10  1  0  0  0
  7 18  1  0  0  0
  8  9  1  0  0  0
 10 11  1  0  0  0
 10 13  1  0  0  0
 10 17  1  0  0  0
 11 12  1  0  0  0
 13 14  1  0  0  0
 13 16  1  0  0  0
 14 15  1  0  0  0
 19 20  1  0  0  0
 19 22  1  0  0  0
 19 23  1  0  0  0
 20 21  1  0  0  0
 26 27  1  0  0  0
 26 60  1  0  0  0
 26 71  1  0  0  0
 27 28  1  0  0  0
 27 51  1  0  0  0
 27 70  1  0  0  0
 28 29  1  0  0  0
 28 56  1  0  0  0
 28 66  1  0  0  0
 29 30  2  0  0  0
 29 36  1  0  0  0
 30 31  1  0  0  0
 30 50  1  0  0  0
 31 32  2  0  0  0
 31 39  1  0  0  0
 32 33  1  0  0  0
 32 35  1  0  0  0
 33 34  1  0  0  0
 35 36  2  0  0  0
 35 38  1  0  0  0
 36 37  1  0  0  0
 39 40  1  0  0  0
 39 45  1  0  0  0
 39 49  1  0  0  0
 40 41  1  0  0  0
 40 43  1  0  0  0
 40 44  1  0  0  0
 41 42  1  0  0  0
 45 46  1  0  0  0
 45 47  1  0  0  0
 45 48  1  0  0  0
 50 51  1  0  0  0
 50 54  1  0  0  0
 50 55  1  0  0  0
 51 52  1  0  0  0
 51 53  1  0  0  0
 56 57  1  0  0  0
 56 64  1  0  0  0
 56 65  1  0  0  0
 57 58  1  0  0  0
 57 60  1  0  0  0
 57 63  1  0  0  0
 58 59  1  0  0  0
 60 61  1  0  0  0
 60 62  1  0  0  0
 66 67  1  0  0  0
 66 68  1  0  0  0
 66 69  1  0  0  0
 71 72  1  0  0  0
 71 73  1  0  0  0
 71 74  1  0  0  0
M  END
> <Tumorigenic>
none

> <Score>
43.1347

> <Active/Decoy>
active

> <InChI>
InChI=1S/C26H38O10/c1-12(10-27)19-14-4-7-18-25(2,15(14)5-6-16(19)30)8-13(29)9-26(18,3)24(34)36-23-22(33)21(32)20(31)17(11-28)35-23/h5-6,12-13,17-18,20-23,27-33H,4,7-11H2,1-3H3/t12-,13?,17+,18-,20+,21-,22+,23-,25+,26-/m0/s1

> <Matching Features>
H:14924486185440016873|HBA:149238150533300697|HBA:14924321692640012300|HBA:14924486112070016868

> <Mol. Index>
682

> <Pharmacophore Match>
Model -1

> <# Confs.>
25

> <Source Database>
Pharm-Screening-input-NANPDB_After_DataWarror.ldb

> <Pharmacophore-Fit Score>
43.13

> <formula>
C26H38O10

> <Mutagenic>
none

> <Reproductive Effective>
none

> <Irritant>
none

$$$$
2,3',4,5',6-pentahydroxybenzophenone 3-C-(4''-benzoyl)-beta-D-glucopyranoside
XX    ILIB03122402103D

 66 69  0  0  1  0              1 V2000
   -6.5279    0.0951   -4.5747 O   0  0  0  0  0
   -6.3336   -1.0845   -4.3293 C   0  0  0  0  0
   -5.3045   -1.6110   -3.6219 O   0  0  0  0  0
   -4.3300   -0.6916   -3.0997 C   0  0  2  0  0
   -2.9757   -1.4082   -3.0314 C   0  0  2  0  0
   -1.9965   -0.5837   -2.3954 O   0  0  0  0  0
   -2.3057   -0.1675   -1.0491 C   0  0  1  0  0
   -3.6710    0.5301   -0.9924 C   0  0  2  0  0
   -4.0305    0.7711    0.3628 O   0  0  0  0  0
   -4.9022    1.2028    0.3611 H   0  0  0  0  0
   -4.7796   -0.2419   -1.7058 C   0  0  1  0  0
   -5.9264    0.6042   -1.8266 O   0  0  0  0  0
   -5.6788    1.3714   -2.3696 H   0  0  0  0  0
   -5.1150   -1.0974   -1.1110 H   0  0  0  0  0
   -3.5736    1.5129   -1.4720 H   0  0  0  0  0
   -2.0200   -1.2530   -0.0284 C   0  0  0  0  0
   -0.5369   -1.4672    0.1915 C   0  0  0  0  0
    0.1598   -2.4206   -0.5574 C   0  0  0  0  0
    1.5219   -2.6284   -0.3351 C   0  0  0  0  0
    2.1961   -3.5348   -1.1089 O   0  0  0  0  0
    1.5717   -3.9370   -1.7365 H   0  0  0  0  0
    2.2031   -1.8992    0.6489 C   0  0  0  0  0
    3.6366   -2.1175    0.8638 C   0  0  0  0  0
    4.0361   -2.9547    1.6592 O   0  0  0  0  0
    4.5775   -1.2930    0.0987 C   0  0  0  0  0
    5.9517   -1.4868    0.2931 C   0  0  0  0  0
    6.8673   -0.7108   -0.4215 C   0  0  0  0  0
    8.2123   -0.8788   -0.2493 O   0  0  0  0  0
    8.3582   -1.5825    0.4064 H   0  0  0  0  0
    6.4353    0.2530   -1.3274 C   0  0  0  0  0
    5.0690    0.4385   -1.5144 C   0  0  0  0  0
    4.1344   -0.3255   -0.8115 C   0  0  0  0  0
    3.0759   -0.1549   -0.9844 H   0  0  0  0  0
    4.6642    1.3902   -2.4094 O   0  0  0  0  0
    3.6923    1.4044   -2.4299 H   0  0  0  0  0
    7.1547    0.8541   -1.8774 H   0  0  0  0  0
    6.3149   -2.2332    0.9923 H   0  0  0  0  0
    1.5159   -0.9438    1.4186 C   0  0  0  0  0
    0.1478   -0.7367    1.1729 C   0  0  0  0  0
   -0.3962    0.0024    1.7582 H   0  0  0  0  0
    2.1895   -0.1232    2.4833 C   0  0  0  0  0
    2.8225   -0.7506    3.1188 H   0  0  0  0  0
    2.7969    0.6627    2.0246 H   0  0  0  0  0
    1.4572    0.3547    3.1425 H   0  0  0  0  0
   -0.3617   -2.9935   -1.3201 H   0  0  0  0  0
   -2.4650   -0.9741    0.9280 H   0  0  0  0  0
   -2.4768   -2.1977   -0.3275 H   0  0  0  0  0
   -1.5571    0.6043   -0.8507 H   0  0  0  0  0
   -2.4538   -1.7273   -4.4205 C   0  0  0  0  0
   -1.2024   -2.3886   -4.3269 O   0  0  0  0  0
   -0.9084   -2.5724   -5.2351 H   0  0  0  0  0
   -2.3337   -0.8145   -5.0141 H   0  0  0  0  0
   -3.1587   -2.3749   -4.9529 H   0  0  0  0  0
   -3.0599   -2.3551   -2.4884 H   0  0  0  0  0
   -4.2485    0.1900   -3.7529 H   0  0  0  0  0
   -7.2296   -2.1652   -4.7878 C   0  0  0  0  0
   -8.3584   -1.8416   -5.5410 C   0  0  0  0  0
   -9.1945   -2.8662   -5.9828 C   0  0  0  0  0
   -8.8969   -4.1960   -5.6767 C   0  0  0  0  0
   -7.7591   -4.5053   -4.9260 C   0  0  0  0  0
   -6.9174   -3.4885   -4.4788 C   0  0  0  0  0
   -6.0334   -3.7353   -3.8982 H   0  0  0  0  0
   -7.5322   -5.5418   -4.6926 H   0  0  0  0  0
   -9.5482   -4.9903   -6.0234 H   0  0  0  0  0
  -10.0784   -2.6306   -6.5677 H   0  0  0  0  0
   -8.5926   -0.8095   -5.7851 H   0  0  0  0  0
  1  2  2  0  0  0
  2  3  1  0  0  0
  2 56  1  0  0  0
  3  4  1  0  0  0
  4  5  1  0  0  0
  4 11  1  0  0  0
  4 55  1  0  0  0
  5  6  1  0  0  0
  5 49  1  0  0  0
  5 54  1  0  0  0
  6  7  1  0  0  0
  7  8  1  0  0  0
  7 16  1  0  0  0
  7 48  1  0  0  0
  8  9  1  0  0  0
  8 11  1  0  0  0
  8 15  1  0  0  0
  9 10  1  0  0  0
 11 12  1  0  0  0
 11 14  1  0  0  0
 12 13  1  0  0  0
 16 17  1  0  0  0
 16 46  1  0  0  0
 16 47  1  0  0  0
 17 18  2  0  0  0
 17 39  1  0  0  0
 18 19  1  0  0  0
 18 45  1  0  0  0
 19 20  1  0  0  0
 19 22  2  0  0  0
 20 21  1  0  0  0
 22 23  1  0  0  0
 22 38  1  0  0  0
 23 24  2  0  0  0
 23 25  1  0  0  0
 25 26  2  0  0  0
 25 32  1  0  0  0
 26 27  1  0  0  0
 26 37  1  0  0  0
 27 28  1  0  0  0
 27 30  2  0  0  0
 28 29  1  0  0  0
 30 31  1  0  0  0
 30 36  1  0  0  0
 31 32  2  0  0  0
 31 34  1  0  0  0
 32 33  1  0  0  0
 34 35  1  0  0  0
 38 39  2  0  0  0
 38 41  1  0  0  0
 39 40  1  0  0  0
 41 42  1  0  0  0
 41 43  1  0  0  0
 41 44  1  0  0  0
 49 50  1  0  0  0
 49 52  1  0  0  0
 49 53  1  0  0  0
 50 51  1  0  0  0
 56 57  2  0  0  0
 56 61  1  0  0  0
 57 58  1  0  0  0
 57 66  1  0  0  0
 58 59  2  0  0  0
 58 65  1  0  0  0
 59 60  1  0  0  0
 59 64  1  0  0  0
 60 61  2  0  0  0
 60 63  1  0  0  0
 61 62  1  0  0  0
M  END
> <Tumorigenic>
none

> <Score>
43.131668

> <Active/Decoy>
active

> <InChI>
InChI=1S/C28H28O10/c1-14-7-15(8-20(32)23(14)24(33)17-10-18(30)12-19(31)11-17)9-21-25(34)26(35)27(22(13-29)37-21)38-28(36)16-5-3-2-4-6-16/h2-8,10-12,21-22,25-27,29-32,34-35H,9,13H2,1H3/t21-,22-,25+,26-,27-/m1/s1

> <Matching Features>
H:14924486185440016873|HBA:149238150533300697|HBA:14924321692640012300|HBA:14924486112070016868

> <Mol. Index>
563

> <Pharmacophore Match>
Model -1

> <# Confs.>
25

> <Source Database>
Pharm-Screening-input-NANPDB_After_DataWarror.ldb

> <Pharmacophore-Fit Score>
43.13

> <formula>
C28H28O10

> <Mutagenic>
none

> <Reproductive Effective>
none

> <Irritant>
none

$$$$
euphoscopin E
XX    ILIB03122402103D

 72 74  0  0  1  0              1 V2000
    0.8882    2.2238   -3.1181 O   0  0  0  0  0
    0.9216    1.3439   -2.2502 C   0  0  0  0  0
    1.4208    1.6811   -0.8205 C   0  0  1  0  0
    2.3473    2.7701   -0.9552 O   0  0  0  0  0
    3.4442    2.5447   -1.7286 C   0  0  0  0  0
    3.7172    1.5077   -2.3187 O   0  0  0  0  0
    4.2908    3.7808   -1.7699 C   0  0  0  0  0
    3.7471    4.5827   -2.2759 H   0  0  0  0  0
    5.2104    3.5739   -2.3252 H   0  0  0  0  0
    4.5637    4.0790   -0.7549 H   0  0  0  0  0
    0.2780    2.2243    0.1117 C   0  0  2  0  0
    0.6338    1.6250    1.4836 C   0  0  1  0  0
   -0.4855    1.5345    2.3911 O   0  0  0  0  0
   -0.7091    2.6042    3.1922 C   0  0  0  0  0
   -0.0634    3.6398    3.2257 O   0  0  0  0  0
   -1.8807    2.3539    4.0528 C   0  0  0  0  0
   -2.9018    1.5286    3.5926 C   0  0  0  0  0
   -4.0175    1.3119    4.4011 C   0  0  0  0  0
   -4.0995    1.9141    5.6583 C   0  0  0  0  0
   -3.0647    2.7352    6.1117 C   0  0  0  0  0
   -1.9458    2.9603    5.3110 C   0  0  0  0  0
   -1.1474    3.6026    5.6696 H   0  0  0  0  0
   -3.1348    3.2014    7.0906 H   0  0  0  0  0
   -4.9697    1.7440    6.2833 H   0  0  0  0  0
   -4.8245    0.6756    4.0512 H   0  0  0  0  0
   -2.8444    1.0575    2.6163 H   0  0  0  0  0
    1.1714    0.2282    1.1411 C   0  0  1  0  0
    2.1024    0.5336   -0.0332 C   0  0  0  0  0
    3.0788    0.8533    0.3524 H   0  0  0  0  0
    2.2874   -0.3653   -0.6265 H   0  0  0  0  0
    1.8791   -0.4493    2.3048 C   0  0  0  0  0
    1.1806   -0.6370    3.1264 H   0  0  0  0  0
    2.2998   -1.4099    1.9919 H   0  0  0  0  0
    2.6969    0.1674    2.6924 H   0  0  0  0  0
    0.3550   -0.4297    0.8190 H   0  0  0  0  0
    1.4315    2.2086    1.9569 H   0  0  0  0  0
   -1.1256    1.8483   -0.3355 C   0  0  0  0  0
   -2.0141    2.6313   -0.9826 C   0  0  0  0  0
   -3.4011    2.1776   -1.4297 C   0  0  2  0  0
   -4.3538    3.1009   -0.8808 O   0  0  0  0  0
   -5.2129    2.9153   -1.2964 H   0  0  0  0  0
   -3.8954    0.7588   -1.0990 C   0  0  0  0  0
   -4.3941    0.0363   -2.3470 C   0  0  0  0  0
   -3.3919   -0.6067   -3.3419 C   0  0  0  0  0
   -1.9831   -0.6420   -2.7809 C   0  0  0  0  0
   -0.8931   -0.0108   -3.2498 C   0  0  0  0  0
    0.4542   -0.0800   -2.5740 C   0  0  1  0  0
    1.4794   -0.7524   -3.4821 C   0  0  0  0  0
    2.4656   -0.7776   -3.0086 H   0  0  0  0  0
    1.1852   -1.7817   -3.7084 H   0  0  0  0  0
    1.5901   -0.2164   -4.4319 H   0  0  0  0  0
    0.3638   -0.6531   -1.6481 H   0  0  0  0  0
   -0.9617    0.5959   -4.1471 H   0  0  0  0  0
   -1.8578   -1.2502   -1.8855 H   0  0  0  0  0
   -3.5159    0.1503   -4.6766 C   0  0  0  0  0
   -3.2523    1.2082   -4.5697 H   0  0  0  0  0
   -2.8706   -0.2842   -5.4481 H   0  0  0  0  0
   -4.5439    0.1192   -5.0581 H   0  0  0  0  0
   -3.8337   -2.0651   -3.5672 C   0  0  0  0  0
   -4.8417   -2.1192   -3.9958 H   0  0  0  0  0
   -3.8586   -2.6251   -2.6247 H   0  0  0  0  0
   -3.1558   -2.5888   -4.2521 H   0  0  0  0  0
   -5.6091   -0.0030   -2.5700 O   0  0  0  0  0
   -4.7469    0.8045   -0.4068 H   0  0  0  0  0
   -3.1768    0.1094   -0.6015 H   0  0  0  0  0
   -3.4365    2.3262   -2.5151 H   0  0  0  0  0
   -1.6864    4.0472   -1.4020 C   0  0  0  0  0
   -1.9970    4.2172   -2.4383 H   0  0  0  0  0
   -0.6196    4.2792   -1.3653 H   0  0  0  0  0
   -2.2118    4.7620   -0.7611 H   0  0  0  0  0
   -1.4001    0.8283   -0.0959 H   0  0  0  0  0
    0.3441    3.3051    0.2224 H   0  0  0  0  0
  1  2  2  0  0  0
  2  3  1  0  0  0
  2 47  1  0  0  0
  3  4  1  0  0  0
  3 11  1  0  0  0
  3 28  1  0  0  0
  4  5  1  0  0  0
  5  6  2  0  0  0
  5  7  1  0  0  0
  7  8  1  0  0  0
  7  9  1  0  0  0
  7 10  1  0  0  0
 11 12  1  0  0  0
 11 37  1  0  0  0
 11 72  1  0  0  0
 12 13  1  0  0  0
 12 27  1  0  0  0
 12 36  1  0  0  0
 13 14  1  0  0  0
 14 15  2  0  0  0
 14 16  1  0  0  0
 16 17  2  0  0  0
 16 21  1  0  0  0
 17 18  1  0  0  0
 17 26  1  0  0  0
 18 19  2  0  0  0
 18 25  1  0  0  0
 19 20  1  0  0  0
 19 24  1  0  0  0
 20 21  2  0  0  0
 20 23  1  0  0  0
 21 22  1  0  0  0
 27 28  1  0  0  0
 27 31  1  0  0  0
 27 35  1  0  0  0
 28 29  1  0  0  0
 28 30  1  0  0  0
 31 32  1  0  0  0
 31 33  1  0  0  0
 31 34  1  0  0  0
 37 38  2  0  0  0
 37 71  1  0  0  0
 38 39  1  0  0  0
 38 67  1  0  0  0
 39 40  1  0  0  0
 39 42  1  0  0  0
 39 66  1  0  0  0
 40 41  1  0  0  0
 42 43  1  0  0  0
 42 64  1  0  0  0
 42 65  1  0  0  0
 43 44  1  0  0  0
 43 63  2  0  0  0
 44 45  1  0  0  0
 44 55  1  0  0  0
 44 59  1  0  0  0
 45 46  2  0  0  0
 45 54  1  0  0  0
 46 47  1  0  0  0
 46 53  1  0  0  0
 47 48  1  0  0  0
 47 52  1  0  0  0
 48 49  1  0  0  0
 48 50  1  0  0  0
 48 51  1  0  0  0
 55 56  1  0  0  0
 55 57  1  0  0  0
 55 58  1  0  0  0
 59 60  1  0  0  0
 59 61  1  0  0  0
 59 62  1  0  0  0
 67 68  1  0  0  0
 67 69  1  0  0  0
 67 70  1  0  0  0
M  END
> <Tumorigenic>
none

> <Score>
43.107765

> <Active/Decoy>
active

> <InChI>
InChI=1S/C29H36O7/c1-17-12-13-28(5,6)24(32)15-23(31)18(2)14-22-25(35-27(34)21-10-8-7-9-11-21)19(3)16-29(22,26(17)33)36-20(4)30/h7-14,17,19,22-23,25,31H,15-16H2,1-6H3/b13-12+,18-14+/t17-,19-,22+,23-,25+,29+/m1/s1

> <Matching Features>
H:14924486185440016873|HBA:149238150533300697|HBA:14924321692640012300|HBA:14924486112070016868

> <Mol. Index>
486

> <Pharmacophore Match>
Model -1

> <# Confs.>
25

> <Source Database>
Pharm-Screening-input-NANPDB_After_DataWarror.ldb

> <Pharmacophore-Fit Score>
43.11

> <formula>
C29H36O7

> <Mutagenic>
none

> <Reproductive Effective>
none

> <Irritant>
none

$$$$
luteolin 7-O-alpha-rhamnopyranoside
XX    ILIB03122402103D

 51 54  0  0  1  0              1 V2000
   -2.4059    0.5991    3.7179 O   0  0  0  0  0
   -1.8047    0.4164    2.6686 C   0  0  0  0  0
   -2.4950    0.2018    1.3808 C   0  0  0  0  0
   -1.7098    0.0014    0.2465 C   0  0  0  0  0
   -0.3378    0.0306    0.2647 O   0  0  0  0  0
    0.3111    0.2170    1.4755 C   0  0  0  0  0
   -0.3288    0.4128    2.6382 C   0  0  0  0  0
    0.1775    0.5808    3.5822 H   0  0  0  0  0
    1.7829    0.2244    1.3731 C   0  0  0  0  0
    2.4269    0.6308    0.1972 C   0  0  0  0  0
    3.8200    0.6149    0.1025 C   0  0  0  0  0
    4.3898    1.0334   -1.0680 O   0  0  0  0  0
    5.3543    0.9617   -0.9746 H   0  0  0  0  0
    4.5953    0.1883    1.1706 C   0  0  0  0  0
    5.9550    0.1780    1.0514 O   0  0  0  0  0
    6.3372   -0.1553    1.8828 H   0  0  0  0  0
    3.9831   -0.2394    2.3458 C   0  0  0  0  0
    2.5876   -0.2241    2.4456 C   0  0  0  0  0
    2.1436   -0.5655    3.3771 H   0  0  0  0  0
    4.5731   -0.5836    3.1907 H   0  0  0  0  0
    1.8517    0.9772   -0.6589 H   0  0  0  0  0
   -2.3067   -0.1915   -1.0033 C   0  0  0  0  0
   -3.6939   -0.2151   -1.1373 C   0  0  0  0  0
   -4.1760   -0.4462   -2.3852 O   0  0  0  0  0
   -5.4263    0.1571   -2.7090 C   0  0  2  0  0
   -6.5560   -0.6813   -2.4257 O   0  0  0  0  0
   -6.7453   -1.8198   -3.2706 C   0  0  1  0  0
   -6.7622   -1.4197   -4.7504 C   0  0  2  0  0
   -6.8388   -2.5558   -5.6005 O   0  0  0  0  0
   -7.6205   -3.0689   -5.3351 H   0  0  0  0  0
   -5.5653   -0.5559   -5.1516 C   0  0  2  0  0
   -4.3627   -1.3179   -5.1594 O   0  0  0  0  0
   -4.5076   -2.0816   -5.7444 H   0  0  0  0  0
   -5.4077    0.6115   -4.1787 C   0  0  1  0  0
   -6.4834    1.5222   -4.4005 O   0  0  0  0  0
   -6.3431    2.2898   -3.8197 H   0  0  0  0  0
   -4.4683    1.1365   -4.3895 H   0  0  0  0  0
   -5.7154   -0.1857   -6.1721 H   0  0  0  0  0
   -7.6664   -0.8237   -4.9257 H   0  0  0  0  0
   -5.8065   -2.9677   -2.9036 C   0  0  0  0  0
   -6.0939   -3.8901   -3.4161 H   0  0  0  0  0
   -4.7646   -2.7583   -3.1529 H   0  0  0  0  0
   -5.8404   -3.1520   -1.8248 H   0  0  0  0  0
   -7.7509   -2.1905   -3.0323 H   0  0  0  0  0
   -5.5609    1.0565   -2.0914 H   0  0  0  0  0
   -4.4892   -0.0149    0.0074 C   0  0  0  0  0
   -3.8888    0.1734    1.2577 C   0  0  0  0  0
   -4.7425    0.3823    2.3062 O   0  0  0  0  0
   -4.2271    0.5205    3.1170 H   0  0  0  0  0
   -5.5739   -0.0281   -0.0486 H   0  0  0  0  0
   -1.6823   -0.3369   -1.8822 H   0  0  0  0  0
  1  2  2  0  0  0
  2  3  1  0  0  0
  2  7  1  0  0  0
  3  4  2  0  0  0
  3 47  1  0  0  0
  4  5  1  0  0  0
  4 22  1  0  0  0
  5  6  1  0  0  0
  6  7  2  0  0  0
  6  9  1  0  0  0
  7  8  1  0  0  0
  9 10  2  0  0  0
  9 18  1  0  0  0
 10 11  1  0  0  0
 10 21  1  0  0  0
 11 12  1  0  0  0
 11 14  2  0  0  0
 12 13  1  0  0  0
 14 15  1  0  0  0
 14 17  1  0  0  0
 15 16  1  0  0  0
 17 18  2  0  0  0
 17 20  1  0  0  0
 18 19  1  0  0  0
 22 23  2  0  0  0
 22 51  1  0  0  0
 23 24  1  0  0  0
 23 46  1  0  0  0
 24 25  1  0  0  0
 25 26  1  0  0  0
 25 34  1  0  0  0
 25 45  1  0  0  0
 26 27  1  0  0  0
 27 28  1  0  0  0
 27 40  1  0  0  0
 27 44  1  0  0  0
 28 29  1  0  0  0
 28 31  1  0  0  0
 28 39  1  0  0  0
 29 30  1  0  0  0
 31 32  1  0  0  0
 31 34  1  0  0  0
 31 38  1  0  0  0
 32 33  1  0  0  0
 34 35  1  0  0  0
 34 37  1  0  0  0
 35 36  1  0  0  0
 40 41  1  0  0  0
 40 42  1  0  0  0
 40 43  1  0  0  0
 46 47  2  0  0  0
 46 50  1  0  0  0
 47 48  1  0  0  0
 48 49  1  0  0  0
M  END
> <Tumorigenic>
none

> <Score>
43.087204

> <Active/Decoy>
active

> <InChI>
InChI=1S/C21H20O10/c1-8-18(26)19(27)20(28)21(29-8)30-10-5-13(24)17-14(25)7-15(31-16(17)6-10)9-2-3-11(22)12(23)4-9/h2-8,18-24,26-28H,1H3/t8-,18+,19+,20-,21+/m1/s1

> <Matching Features>
H:14924486185440016873|HBA:149238150533300697|HBA:14924321692640012300|HBA:14924486112070016868

> <Mol. Index>
1287

> <Pharmacophore Match>
Model -1

> <# Confs.>
25

> <Source Database>
Pharm-Screening-input-NANPDB_After_DataWarror.ldb

> <Pharmacophore-Fit Score>
43.09

> <formula>
C21H20O10

> <Mutagenic>
none

> <Reproductive Effective>
none

> <Irritant>
none

$$$$
thymelol
XX    ILIB03122402103D

 38 41  0  0  1  0              1 V2000
   -0.9209   -2.2028    1.0274 O   0  0  0  0  0
   -1.6759   -1.3831    0.5162 C   0  0  0  0  0
   -2.5662   -1.7561   -0.4872 O   0  0  0  0  0
   -3.5096   -0.8525   -1.0244 C   0  0  0  0  0
   -3.5714    0.4527   -0.5672 C   0  0  0  0  0
   -4.5255    1.3218   -1.1126 C   0  0  0  0  0
   -5.4018    0.8712   -2.1090 C   0  0  0  0  0
   -6.3661    1.6321   -2.7083 O   0  0  0  0  0
   -6.4494    2.9804   -2.2541 C   0  0  0  0  0
   -5.5254    3.5271   -2.4695 H   0  0  0  0  0
   -6.6925    3.0225   -1.1873 H   0  0  0  0  0
   -7.2615    3.4661   -2.8015 H   0  0  0  0  0
   -5.3081   -0.4570   -2.5456 C   0  0  0  0  0
   -4.3655   -1.3305   -2.0115 C   0  0  0  0  0
   -4.3011   -2.3582   -2.3560 H   0  0  0  0  0
   -6.1428   -0.9455   -3.5165 O   0  0  0  0  0
   -6.7405   -0.2281   -3.7880 H   0  0  0  0  0
   -4.5678    2.3450   -0.7471 H   0  0  0  0  0
   -2.6344    0.8799    0.4576 C   0  0  0  0  0
   -1.7265    0.0270    0.9541 C   0  0  0  0  0
   -0.8685    0.4800    1.9443 O   0  0  0  0  0
    0.4978    0.3725    1.7229 C   0  0  0  0  0
    1.1627    0.7197    0.5451 C   0  0  0  0  0
    2.5479    0.5599    0.4764 C   0  0  0  0  0
    3.1865    0.9231   -0.7280 O   0  0  0  0  0
    4.5637    0.8010   -0.8914 C   0  0  0  0  0
    5.1257    1.1194   -1.9331 O   0  0  0  0  0
    5.3217    0.2650    0.2551 C   0  0  0  0  0
    4.7258   -0.0789    1.3982 C   0  0  0  0  0
    3.2872    0.0632    1.5450 C   0  0  0  0  0
    2.6200   -0.2828    2.7189 C   0  0  0  0  0
    1.2330   -0.1285    2.8054 C   0  0  0  0  0
    0.7280   -0.4036    3.7283 H   0  0  0  0  0
    3.1627   -0.6740    3.5748 H   0  0  0  0  0
    5.3025   -0.4695    2.2280 H   0  0  0  0  0
    6.3934    0.1593    0.1362 H   0  0  0  0  0
    0.6368    1.1103   -0.3205 H   0  0  0  0  0
   -2.6825    1.9085    0.8002 H   0  0  0  0  0
  1  2  2  0  0  0
  2  3  1  0  0  0
  2 20  1  0  0  0
  3  4  1  0  0  0
  4  5  2  0  0  0
  4 14  1  0  0  0
  5  6  1  0  0  0
  5 19  1  0  0  0
  6  7  2  0  0  0
  6 18  1  0  0  0
  7  8  1  0  0  0
  7 13  1  0  0  0
  8  9  1  0  0  0
  9 10  1  0  0  0
  9 11  1  0  0  0
  9 12  1  0  0  0
 13 14  2  0  0  0
 13 16  1  0  0  0
 14 15  1  0  0  0
 16 17  1  0  0  0
 19 20  2  0  0  0
 19 38  1  0  0  0
 20 21  1  0  0  0
 21 22  1  0  0  0
 22 23  2  0  0  0
 22 32  1  0  0  0
 23 24  1  0  0  0
 23 37  1  0  0  0
 24 25  1  0  0  0
 24 30  2  0  0  0
 25 26  1  0  0  0
 26 27  2  0  0  0
 26 28  1  0  0  0
 28 29  2  0  0  0
 28 36  1  0  0  0
 29 30  1  0  0  0
 29 35  1  0  0  0
 30 31  1  0  0  0
 31 32  2  0  0  0
 31 34  1  0  0  0
 32 33  1  0  0  0
M  END
> <Tumorigenic>
none

> <Score>
43.0774

> <Active/Decoy>
active

> <InChI>
InChI=1S/C19H12O7/c1-23-16-6-11-7-17(19(22)26-15(11)9-13(16)20)24-12-4-2-10-3-5-18(21)25-14(10)8-12/h2-9,20H,1H3

> <Matching Features>
H:14924486185440016873|HBA:149238150533300697|HBA:14924321692640012300|HBA:14924486112070016868

> <Mol. Index>
815

> <Pharmacophore Match>
Model -1

> <# Confs.>
25

> <Source Database>
Pharm-Screening-input-NANPDB_After_DataWarror.ldb

> <Pharmacophore-Fit Score>
43.08

> <formula>
C19H12O7

> <Mutagenic>
none

> <Reproductive Effective>
none

> <Irritant>
none

$$$$
euphoscopin D
XX    ILIB03122402103D

 77 79  0  0  1  0              1 V2000
   -3.2176   -2.0342   -2.4382 O   0  0  0  0  0
   -3.3820   -1.6697   -1.2765 C   0  0  0  0  0
   -2.7266   -2.4247   -0.1777 C   0  0  0  0  0
   -1.5388   -2.0221    0.3052 C   0  0  0  0  0
   -0.7654   -0.7569   -0.0725 C   0  0  2  0  0
    0.4195   -1.0347   -1.0549 C   0  0  1  0  0
    0.0351   -2.0941   -1.9476 O   0  0  0  0  0
    0.9897   -2.5713   -2.7931 C   0  0  0  0  0
    2.1484   -2.1872   -2.8700 O   0  0  0  0  0
    0.4192   -3.6823   -3.6211 C   0  0  0  0  0
    1.0759   -3.8714   -4.4752 H   0  0  0  0  0
    0.3430   -4.5897   -3.0182 H   0  0  0  0  0
   -0.5614   -3.3959   -4.0105 H   0  0  0  0  0
    0.8941    0.1943   -1.9236 C   0  0  2  0  0
    1.2590    1.3135   -1.0985 O   0  0  0  0  0
    2.5397    1.7663   -1.1956 C   0  0  0  0  0
    3.4162    1.3140   -1.9186 O   0  0  0  0  0
    2.7275    2.9459   -0.2896 C   0  0  0  0  0
    3.7967    3.1299   -0.1523 H   0  0  0  0  0
    2.2635    3.8293   -0.7354 H   0  0  0  0  0
    2.2932    2.7384    0.6918 H   0  0  0  0  0
   -0.0792    0.6718   -3.0494 C   0  0  1  0  0
   -1.3415    1.3255   -2.5379 C   0  0  0  0  0
   -2.5707    1.0057   -2.9732 C   0  0  0  0  0
   -3.8918    1.5535   -2.4709 C   0  0  0  0  0
   -4.7476    0.3345   -2.0527 C   0  0  0  0  0
   -4.2964   -0.5302   -0.8852 C   0  0  0  0  0
   -3.8209    0.0890   -0.1233 H   0  0  0  0  0
   -5.1957   -0.9588   -0.4279 H   0  0  0  0  0
   -5.7607    0.0104   -2.6811 O   0  0  0  0  0
   -3.8006    2.5439   -1.2985 C   0  0  0  0  0
   -3.3194    3.4798   -1.6033 H   0  0  0  0  0
   -4.7985    2.7903   -0.9175 H   0  0  0  0  0
   -3.2258    2.1453   -0.4555 H   0  0  0  0  0
   -4.5735    2.2806   -3.6457 C   0  0  0  0  0
   -5.5668    2.6483   -3.3607 H   0  0  0  0  0
   -4.7114    1.6189   -4.5090 H   0  0  0  0  0
   -3.9834    3.1418   -3.9804 H   0  0  0  0  0
   -2.6442    0.2597   -3.7619 H   0  0  0  0  0
   -1.2191    2.0844   -1.7714 H   0  0  0  0  0
    0.6180    1.6668   -3.9886 C   0  0  0  0  0
    1.5432    1.2405   -4.3910 H   0  0  0  0  0
    0.8663    2.6065   -3.4831 H   0  0  0  0  0
   -0.0268    1.9132   -4.8408 H   0  0  0  0  0
   -0.3440   -0.2024   -3.6568 H   0  0  0  0  0
    1.7959   -0.1486   -2.4531 H   0  0  0  0  0
    1.5536   -1.4995   -0.0886 C   0  0  0  0  0
    1.1943   -1.0125    1.3275 C   0  0  2  0  0
   -0.0737   -0.1464    1.1606 C   0  0  2  0  0
   -0.8545   -0.1718    2.3581 O   0  0  0  0  0
   -1.6716    0.8838    2.5902 C   0  0  0  0  0
   -1.7926    1.8804    1.8953 O   0  0  0  0  0
   -2.4116    0.6823    3.8500 C   0  0  0  0  0
   -3.3015    1.6652    4.2851 C   0  0  0  0  0
   -4.0014    1.4684    5.4732 C   0  0  0  0  0
   -3.8222    0.2928    6.2060 C   0  0  0  0  0
   -2.9340   -0.6864    5.7569 C   0  0  0  0  0
   -2.2200   -0.4943    4.5734 C   0  0  0  0  0
   -1.5328   -1.2601    4.2275 H   0  0  0  0  0
   -2.7994   -1.5993    6.3287 H   0  0  0  0  0
   -4.3775    0.1389    7.1277 H   0  0  0  0  0
   -4.6955    2.2260    5.8272 H   0  0  0  0  0
   -3.4395    2.5842    3.7218 H   0  0  0  0  0
    0.2200    0.8916    0.9668 H   0  0  0  0  0
    2.3317   -0.2690    2.0158 C   0  0  0  0  0
    2.6353    0.6170    1.4505 H   0  0  0  0  0
    2.0313    0.0565    3.0167 H   0  0  0  0  0
    3.2073   -0.9180    2.1200 H   0  0  0  0  0
    0.9634   -1.8841    1.9545 H   0  0  0  0  0
    1.6273   -2.5941   -0.0717 H   0  0  0  0  0
    2.5347   -1.1347   -0.4117 H   0  0  0  0  0
   -1.4687   -0.0344   -0.4591 H   0  0  0  0  0
   -1.0790   -2.6550    1.0627 H   0  0  0  0  0
   -3.4349   -3.6629    0.2693 C   0  0  0  0  0
   -3.5939   -4.3400   -0.5766 H   0  0  0  0  0
   -2.8671   -4.2088    1.0298 H   0  0  0  0  0
   -4.4096   -3.4102    0.6979 H   0  0  0  0  0
  1  2  2  0  0  0
  2  3  1  0  0  0
  2 27  1  0  0  0
  3  4  2  0  0  0
  3 74  1  0  0  0
  4  5  1  0  0  0
  4 73  1  0  0  0
  5  6  1  0  0  0
  5 49  1  0  0  0
  5 72  1  0  0  0
  6  7  1  0  0  0
  6 14  1  0  0  0
  6 47  1  0  0  0
  7  8  1  0  0  0
  8  9  2  0  0  0
  8 10  1  0  0  0
 10 11  1  0  0  0
 10 12  1  0  0  0
 10 13  1  0  0  0
 14 15  1  0  0  0
 14 22  1  0  0  0
 14 46  1  0  0  0
 15 16  1  0  0  0
 16 17  2  0  0  0
 16 18  1  0  0  0
 18 19  1  0  0  0
 18 20  1  0  0  0
 18 21  1  0  0  0
 22 23  1  0  0  0
 22 41  1  0  0  0
 22 45  1  0  0  0
 23 24  2  0  0  0
 23 40  1  0  0  0
 24 25  1  0  0  0
 24 39  1  0  0  0
 25 26  1  0  0  0
 25 31  1  0  0  0
 25 35  1  0  0  0
 26 27  1  0  0  0
 26 30  2  0  0  0
 27 28  1  0  0  0
 27 29  1  0  0  0
 31 32  1  0  0  0
 31 33  1  0  0  0
 31 34  1  0  0  0
 35 36  1  0  0  0
 35 37  1  0  0  0
 35 38  1  0  0  0
 41 42  1  0  0  0
 41 43  1  0  0  0
 41 44  1  0  0  0
 47 48  1  0  0  0
 47 70  1  0  0  0
 47 71  1  0  0  0
 48 49  1  0  0  0
 48 65  1  0  0  0
 48 69  1  0  0  0
 49 50  1  0  0  0
 49 64  1  0  0  0
 50 51  1  0  0  0
 51 52  2  0  0  0
 51 53  1  0  0  0
 53 54  2  0  0  0
 53 58  1  0  0  0
 54 55  1  0  0  0
 54 63  1  0  0  0
 55 56  2  0  0  0
 55 62  1  0  0  0
 56 57  1  0  0  0
 56 61  1  0  0  0
 57 58  2  0  0  0
 57 60  1  0  0  0
 58 59  1  0  0  0
 65 66  1  0  0  0
 65 67  1  0  0  0
 65 68  1  0  0  0
 74 75  1  0  0  0
 74 76  1  0  0  0
 74 77  1  0  0  0
M  END
> <Tumorigenic>
none

> <Score>
43.073093

> <Active/Decoy>
active

> <InChI>
InChI=1S/C31H38O8/c1-18-13-14-30(6,7)26(35)16-25(34)19(2)15-24-27(38-29(36)23-11-9-8-10-12-23)20(3)17-31(24,39-22(5)33)28(18)37-21(4)32/h8-15,18,20,24,27-28H,16-17H2,1-7H3/b14-13?,19-15-/t18-,20-,24-,27+,28-,31-/m1/s1

> <Matching Features>
H:14924486185440016873|HBA:149238150533300697|HBA:14924321692640012300|HBA:14924486112070016868

> <Mol. Index>
480

> <Pharmacophore Match>
Model -1

> <# Confs.>
25

> <Source Database>
Pharm-Screening-input-NANPDB_After_DataWarror.ldb

> <Pharmacophore-Fit Score>
43.07

> <formula>
C31H38O8

> <Mutagenic>
none

> <Reproductive Effective>
none

> <Irritant>
none

$$$$
pectachol B
XX    ILIB03122402103D

 66 69  0  0  1  0              1 V2000
    5.8478    1.5652   -1.6251 O   0  0  0  0  0
    4.9357    1.1666   -0.9079 C   0  0  0  0  0
    3.7256    1.8433   -0.8084 O   0  0  0  0  0
    2.6683    1.3799    0.0055 C   0  0  0  0  0
    1.4719    2.1001    0.0328 C   0  0  0  0  0
    1.2975    3.2639   -0.6601 O   0  0  0  0  0
    2.4092    3.6772   -1.4499 C   0  0  0  0  0
    3.2789    3.8922   -0.8200 H   0  0  0  0  0
    2.6530    2.9333   -2.2163 H   0  0  0  0  0
    2.1296    4.6036   -1.9610 H   0  0  0  0  0
    0.4451    1.6695    0.8905 C   0  0  0  0  0
   -0.6949    2.4144    0.9731 O   0  0  0  0  0
   -1.7397    2.0900    0.0592 C   0  0  0  0  0
   -2.9157    3.0305    0.2831 C   0  0  1  0  0
   -4.1753    2.7890   -0.6484 C   0  0  2  0  0
   -4.8728    1.4323   -0.2814 C   0  0  2  0  0
   -6.0013    0.9325   -1.2694 C   0  0  0  0  0
   -5.4806    1.0264   -2.7361 C   0  0  1  0  0
   -6.5147    0.7687   -3.6844 O   0  0  0  0  0
   -6.7400   -0.1755   -3.6341 H   0  0  0  0  0
   -4.8757    2.3828   -3.0888 C   0  0  0  0  0
   -3.7416    2.7524   -2.1409 C   0  0  0  0  0
   -2.9551    2.0052   -2.2902 H   0  0  0  0  0
   -3.3150    3.7173   -2.4394 H   0  0  0  0  0
   -4.4858    2.3421   -4.1147 H   0  0  0  0  0
   -5.6479    3.1575   -3.1189 H   0  0  0  0  0
   -4.7052    0.2649   -2.8941 H   0  0  0  0  0
   -6.3008   -0.5654   -0.9745 C   0  0  0  0  0
   -7.0031   -0.9894   -1.6985 H   0  0  0  0  0
   -5.3860   -1.1662   -1.0126 H   0  0  0  0  0
   -6.7543   -0.7051    0.0117 H   0  0  0  0  0
   -7.3510    1.6665   -1.1118 C   0  0  0  0  0
   -7.3267    2.6895   -1.4858 H   0  0  0  0  0
   -7.6826    1.6912   -0.0705 H   0  0  0  0  0
   -8.1414    1.1562   -1.6758 H   0  0  0  0  0
   -5.2769    1.4030    1.2131 C   0  0  0  0  0
   -4.0943    1.6879    2.1430 C   0  0  0  0  0
   -3.3573    2.9382    1.7475 C   0  0  0  0  0
   -3.1295    3.9305    2.6222 C   0  0  0  0  0
   -2.6071    4.8340    2.3276 H   0  0  0  0  0
   -3.4587    3.8596    3.6534 H   0  0  0  0  0
   -3.3994    0.8399    2.1217 H   0  0  0  0  0
   -4.4647    1.7545    3.1730 H   0  0  0  0  0
   -6.0733    2.1258    1.4142 H   0  0  0  0  0
   -5.6765    0.4231    1.4870 H   0  0  0  0  0
   -4.0849    0.6699   -0.3790 H   0  0  0  0  0
   -5.0940    4.0326   -0.4618 C   0  0  0  0  0
   -5.9063    4.0859   -1.1845 H   0  0  0  0  0
   -4.5219    4.9589   -0.5962 H   0  0  0  0  0
   -5.5450    4.0799    0.5334 H   0  0  0  0  0
   -2.5420    4.0407    0.1040 H   0  0  0  0  0
   -1.3827    2.1966   -0.9840 H   0  0  0  0  0
   -2.0570    1.0557    0.1953 H   0  0  0  0  0
    0.6051    0.5326    1.6899 C   0  0  0  0  0
   -0.4473    0.2191    2.5026 O   0  0  0  0  0
   -0.2724   -0.9462    3.3046 C   0  0  0  0  0
   -0.1470   -1.8390    2.6821 H   0  0  0  0  0
    0.5694   -0.8274    3.9955 H   0  0  0  0  0
   -1.1791   -1.0781    3.9014 H   0  0  0  0  0
    1.8000   -0.1951    1.6142 C   0  0  0  0  0
    2.8367    0.2292    0.7724 C   0  0  0  0  0
    4.0940   -0.4986    0.6859 C   0  0  0  0  0
    5.0755   -0.0607   -0.1049 C   0  0  0  0  0
    6.0122   -0.6011   -0.1753 H   0  0  0  0  0
    4.2174   -1.4012    1.2726 H   0  0  0  0  0
    1.9509   -1.0894    2.2137 H   0  0  0  0  0
  1  2  2  0  0  0
  2  3  1  0  0  0
  2 63  1  0  0  0
  3  4  1  0  0  0
  4  5  2  0  0  0
  4 61  1  0  0  0
  5  6  1  0  0  0
  5 11  1  0  0  0
  6  7  1  0  0  0
  7  8  1  0  0  0
  7  9  1  0  0  0
  7 10  1  0  0  0
 11 12  1  0  0  0
 11 54  2  0  0  0
 12 13  1  0  0  0
 13 14  1  0  0  0
 13 52  1  0  0  0
 13 53  1  0  0  0
 14 15  1  0  0  0
 14 38  1  0  0  0
 14 51  1  0  0  0
 15 16  1  0  0  0
 15 22  1  0  0  0
 15 47  1  0  0  0
 16 17  1  0  0  0
 16 36  1  0  0  0
 16 46  1  0  0  0
 17 18  1  0  0  0
 17 28  1  0  0  0
 17 32  1  0  0  0
 18 19  1  0  0  0
 18 21  1  0  0  0
 18 27  1  0  0  0
 19 20  1  0  0  0
 21 22  1  0  0  0
 21 25  1  0  0  0
 21 26  1  0  0  0
 22 23  1  0  0  0
 22 24  1  0  0  0
 28 29  1  0  0  0
 28 30  1  0  0  0
 28 31  1  0  0  0
 32 33  1  0  0  0
 32 34  1  0  0  0
 32 35  1  0  0  0
 36 37  1  0  0  0
 36 44  1  0  0  0
 36 45  1  0  0  0
 37 38  1  0  0  0
 37 42  1  0  0  0
 37 43  1  0  0  0
 38 39  2  0  0  0
 39 40  1  0  0  0
 39 41  1  0  0  0
 47 48  1  0  0  0
 47 49  1  0  0  0
 47 50  1  0  0  0
 54 55  1  0  0  0
 54 60  1  0  0  0
 55 56  1  0  0  0
 56 57  1  0  0  0
 56 58  1  0  0  0
 56 59  1  0  0  0
 60 61  2  0  0  0
 60 66  1  0  0  0
 61 62  1  0  0  0
 62 63  2  0  0  0
 62 65  1  0  0  0
 63 64  1  0  0  0
M  END
> <Tumorigenic>
none

> <Score>
43.06868

> <Active/Decoy>
active

> <InChI>
InChI=1S/C26H34O6/c1-15-7-9-19-25(2,3)20(27)11-12-26(19,4)17(15)14-31-23-18(29-5)13-16-8-10-21(28)32-22(16)24(23)30-6/h8,10,13,17,19-20,27H,1,7,9,11-12,14H2,2-6H3/t17-,19+,20+,26-/m1/s1

> <Matching Features>
H:14924486185440016873|HBA:149238150533300697|HBA:14924321692640012300|HBA:14924486112070016868

> <Mol. Index>
438

> <Pharmacophore Match>
Model -1

> <# Confs.>
23

> <Source Database>
Pharm-Screening-input-NANPDB_After_DataWarror.ldb

> <Pharmacophore-Fit Score>
43.07

> <formula>
C26H34O6

> <Mutagenic>
none

> <Reproductive Effective>
none

> <Irritant>
none

$$$$
14-hydroxy-11,13-dihydrohypocretenoldi-beta-D-glucopyranoside
XX    ILIB03122402103D

 58 61  0  0  1  0              1 V2000
    3.3206    1.3533   -2.0754 O   0  0  0  0  0
    2.7790    1.7054   -1.0278 C   0  0  0  0  0
    2.1136    0.8147   -0.2622 O   0  0  0  0  0
    1.2933    1.1357    0.8881 C   0  0  2  0  0
   -0.1685    1.0379    0.4920 C   0  0  0  0  0
   -0.8491    1.8052   -0.3712 C   0  0  0  0  0
   -2.2670    1.6044   -0.7514 C   0  0  0  0  0
   -3.0935    2.3248    0.1456 O   0  0  0  0  0
   -4.3777    1.7365    0.3241 C   0  0  2  0  0
   -5.0864    1.6423   -0.9125 O   0  0  0  0  0
   -6.3685    1.0226   -0.7694 C   0  0  1  0  0
   -7.2611    1.8887    0.1252 C   0  0  1  0  0
   -8.5004    1.2181    0.3285 O   0  0  0  0  0
   -9.0891    1.8242    0.8092 H   0  0  0  0  0
   -6.5904    2.1408    1.4755 C   0  0  2  0  0
   -7.3125    3.1513    2.1827 O   0  0  0  0  0
   -8.1986    2.8011    2.3751 H   0  0  0  0  0
   -5.1528    2.6226    1.3012 C   0  0  1  0  0
   -4.5131    2.5935    2.5773 O   0  0  0  0  0
   -3.5921    2.8779    2.4475 H   0  0  0  0  0
   -5.1456    3.6665    0.9637 H   0  0  0  0  0
   -6.6211    1.2411    2.1020 H   0  0  0  0  0
   -7.4749    2.8473   -0.3648 H   0  0  0  0  0
   -6.9551    0.8619   -2.1612 C   0  0  0  0  0
   -6.1179    0.0522   -2.9714 O   0  0  0  0  0
   -5.2487    0.4851   -3.0165 H   0  0  0  0  0
   -7.0802    1.8368   -2.6451 H   0  0  0  0  0
   -7.9487    0.4015   -2.1176 H   0  0  0  0  0
   -6.2325    0.0231   -0.3353 H   0  0  0  0  0
   -4.2278    0.7355    0.7521 H   0  0  0  0  0
   -2.4473    1.9539   -1.7889 H   0  0  0  0  0
   -2.5178    0.5374   -0.7120 H   0  0  0  0  0
   -0.1961    2.9810   -1.0878 C   0  0  0  0  0
    0.5188    3.9927   -0.1900 C   0  0  0  0  0
    1.8327    3.5552    0.4807 C   0  0  2  0  0
    2.9110    3.1246   -0.5221 C   0  0  1  0  0
    4.3228    3.2775    0.0560 C   0  0  0  0  0
    5.0779    3.0717   -0.7110 H   0  0  0  0  0
    4.5042    2.5794    0.8793 H   0  0  0  0  0
    4.4915    4.2959    0.4210 H   0  0  0  0  0
    2.8385    3.7817   -1.3989 H   0  0  0  0  0
    1.6322    2.4753    1.5322 C   0  0  0  0  0
    2.5617    2.3985    2.1099 H   0  0  0  0  0
    0.8617    2.7776    2.2536 H   0  0  0  0  0
    2.1964    4.4507    1.0063 H   0  0  0  0  0
    0.7369    4.8779   -0.8020 H   0  0  0  0  0
   -0.1783    4.3367    0.5860 H   0  0  0  0  0
   -0.9760    3.5472   -1.6150 H   0  0  0  0  0
    0.4571    2.6107   -1.8845 H   0  0  0  0  0
   -0.7386   -0.0885    1.2962 C   0  0  0  0  0
   -1.8926   -0.4719    1.3376 O   0  0  0  0  0
    0.3359   -0.6886    2.0988 C   0  0  0  0  0
    1.4620   -0.0076    1.8667 C   0  0  0  0  0
    2.7861   -0.3502    2.4644 C   0  0  0  0  0
    3.1307    0.4432    3.1322 H   0  0  0  0  0
    3.5352   -0.4985    1.6814 H   0  0  0  0  0
    2.7348   -1.2740    3.0510 H   0  0  0  0  0
    0.2036   -1.5424    2.7437 H   0  0  0  0  0
  1  2  2  0  0  0
  2  3  1  0  0  0
  2 36  1  0  0  0
  3  4  1  0  0  0
  4  5  1  0  0  0
  4 42  1  0  0  0
  4 53  1  0  0  0
  5  6  2  0  0  0
  5 50  1  0  0  0
  6  7  1  0  0  0
  6 33  1  0  0  0
  7  8  1  0  0  0
  7 31  1  0  0  0
  7 32  1  0  0  0
  8  9  1  0  0  0
  9 10  1  0  0  0
  9 18  1  0  0  0
  9 30  1  0  0  0
 10 11  1  0  0  0
 11 12  1  0  0  0
 11 24  1  0  0  0
 11 29  1  0  0  0
 12 13  1  0  0  0
 12 15  1  0  0  0
 12 23  1  0  0  0
 13 14  1  0  0  0
 15 16  1  0  0  0
 15 18  1  0  0  0
 15 22  1  0  0  0
 16 17  1  0  0  0
 18 19  1  0  0  0
 18 21  1  0  0  0
 19 20  1  0  0  0
 24 25  1  0  0  0
 24 27  1  0  0  0
 24 28  1  0  0  0
 25 26  1  0  0  0
 33 34  1  0  0  0
 33 48  1  0  0  0
 33 49  1  0  0  0
 34 35  1  0  0  0
 34 46  1  0  0  0
 34 47  1  0  0  0
 35 36  1  0  0  0
 35 42  1  0  0  0
 35 45  1  0  0  0
 36 37  1  0  0  0
 36 41  1  0  0  0
 37 38  1  0  0  0
 37 39  1  0  0  0
 37 40  1  0  0  0
 42 43  1  0  0  0
 42 44  1  0  0  0
 50 51  2  0  0  0
 50 52  1  0  0  0
 52 53  2  0  0  0
 52 58  1  0  0  0
 53 54  1  0  0  0
 54 55  1  0  0  0
 54 56  1  0  0  0
 54 57  1  0  0  0
M  END
> <Tumorigenic>
none

> <Score>
43.060314

> <Active/Decoy>
active

> <InChI>
InChI=1S/C21H28O9/c1-9-5-13(23)15-12(4-3-11-6-21(9,15)30-19(27)10(11)2)8-28-20-18(26)17(25)16(24)14(7-22)29-20/h5,10-11,14,16-18,20,22,24-26H,3-4,6-8H2,1-2H3/t10-,11-,14-,16-,17+,18-,20-,21-/m1/s1

> <Matching Features>
H:14924486185440016873|HBA:149238150533300697|HBA:14924321692640012300|HBA:14924486112070016868

> <Mol. Index>
1155

> <Pharmacophore Match>
Model -1

> <# Confs.>
25

> <Source Database>
Pharm-Screening-input-NANPDB_After_DataWarror.ldb

> <Pharmacophore-Fit Score>
43.06

> <formula>
C21H28O9

> <Mutagenic>
none

> <Reproductive Effective>
none

> <Irritant>
none

$$$$
2-methylphenylmethanol beta-gentiobioside
XX    ILIB03122402103D

 61 63  0  0  1  0              1 V2000
    0.3165    0.2395   -2.3193 O   0  0  0  0  0
    1.5438    0.6238   -1.6931 C   0  0  1  0  0
    2.0844   -0.4491   -0.9189 O   0  0  0  0  0
    1.2238   -0.9000    0.1195 C   0  0  0  0  0
    0.9527    0.2395    1.0518 C   0  0  0  0  0
    1.7670    0.5018    2.1738 C   0  0  0  0  0
    1.4479    1.5772    3.0176 C   0  0  0  0  0
    0.3336    2.3778    2.7659 C   0  0  0  0  0
   -0.4753    2.1138    1.6665 C   0  0  0  0  0
   -0.1697    1.0507    0.8172 C   0  0  0  0  0
   -0.8170    0.8581   -0.0354 H   0  0  0  0  0
   -1.3444    2.7334    1.4687 H   0  0  0  0  0
    0.0992    3.2057    3.4284 H   0  0  0  0  0
    2.0646    1.7988    3.8839 H   0  0  0  0  0
    2.9766   -0.3349    2.4863 C   0  0  0  0  0
    3.7185   -0.2445    1.6883 H   0  0  0  0  0
    2.6936   -1.3845    2.6082 H   0  0  0  0  0
    3.4550   -0.0152    3.4185 H   0  0  0  0  0
    1.6952   -1.7302    0.6615 H   0  0  0  0  0
    0.2824   -1.2684   -0.3072 H   0  0  0  0  0
    2.5894    0.9752   -2.7572 C   0  0  2  0  0
    3.7524    1.5049   -2.1215 O   0  0  0  0  0
    4.0466    0.8516   -1.4636 H   0  0  0  0  0
    2.0608    2.0208   -3.7365 C   0  0  1  0  0
    2.9637    2.1393   -4.8367 O   0  0  0  0  0
    3.0038    1.2777   -5.2859 H   0  0  0  0  0
    0.6737    1.6471   -4.2599 C   0  0  2  0  0
    0.1339    2.7504   -4.9816 O   0  0  0  0  0
    0.7599    2.9655   -5.6940 H   0  0  0  0  0
   -0.2703    1.2834   -3.0947 C   0  0  1  0  0
   -1.6156    0.7921   -3.5875 C   0  0  0  0  0
   -2.4372    0.4839   -2.4770 O   0  0  0  0  0
   -3.7334    0.0103   -2.8271 C   0  0  2  0  0
   -4.4490    0.9857   -3.5913 O   0  0  0  0  0
   -5.7552    0.5414   -3.9745 C   0  0  1  0  0
   -6.6098    0.3302   -2.7231 C   0  0  1  0  0
   -7.8819   -0.1914   -3.1013 O   0  0  0  0  0
   -8.3910   -0.3347   -2.2856 H   0  0  0  0  0
   -5.9311   -0.6491   -1.7659 C   0  0  2  0  0
   -6.6381   -0.6626   -0.5250 O   0  0  0  0  0
   -6.6073    0.2341   -0.1535 H   0  0  0  0  0
   -4.4741   -0.2668   -1.5150 C   0  0  1  0  0
   -3.8393   -1.3464   -0.8312 O   0  0  0  0  0
   -2.9019   -1.1119   -0.7256 H   0  0  0  0  0
   -4.4226    0.6054   -0.8508 H   0  0  0  0  0
   -5.9965   -1.6712   -2.1583 H   0  0  0  0  0
   -6.7812    1.2868   -2.2149 H   0  0  0  0  0
   -6.3477    1.6010   -4.8871 C   0  0  0  0  0
   -6.4299    2.8409   -4.1911 O   0  0  0  0  0
   -5.5332    3.0671   -3.8931 H   0  0  0  0  0
   -5.7318    1.7581   -5.7787 H   0  0  0  0  0
   -7.3610    1.3287   -5.1992 H   0  0  0  0  0
   -5.6561   -0.3964   -4.5438 H   0  0  0  0  0
   -3.6330   -0.9227   -3.4013 H   0  0  0  0  0
   -1.4767   -0.0863   -4.2412 H   0  0  0  0  0
   -2.0805    1.5817   -4.2128 H   0  0  0  0  0
   -0.4297    2.1577   -2.4503 H   0  0  0  0  0
    0.7555    0.8029   -4.9554 H   0  0  0  0  0
    2.0348    3.0093   -3.2631 H   0  0  0  0  0
    2.9047    0.0757   -3.3003 H   0  0  0  0  0
    1.3736    1.4918   -1.0385 H   0  0  0  0  0
  1  2  1  0  0  0
  1 30  1  0  0  0
  2  3  1  0  0  0
  2 21  1  0  0  0
  2 61  1  0  0  0
  3  4  1  0  0  0
  4  5  1  0  0  0
  4 19  1  0  0  0
  4 20  1  0  0  0
  5  6  2  0  0  0
  5 10  1  0  0  0
  6  7  1  0  0  0
  6 15  1  0  0  0
  7  8  2  0  0  0
  7 14  1  0  0  0
  8  9  1  0  0  0
  8 13  1  0  0  0
  9 10  2  0  0  0
  9 12  1  0  0  0
 10 11  1  0  0  0
 15 16  1  0  0  0
 15 17  1  0  0  0
 15 18  1  0  0  0
 21 22  1  0  0  0
 21 24  1  0  0  0
 21 60  1  0  0  0
 22 23  1  0  0  0
 24 25  1  0  0  0
 24 27  1  0  0  0
 24 59  1  0  0  0
 25 26  1  0  0  0
 27 28  1  0  0  0
 27 30  1  0  0  0
 27 58  1  0  0  0
 28 29  1  0  0  0
 30 31  1  0  0  0
 30 57  1  0  0  0
 31 32  1  0  0  0
 31 55  1  0  0  0
 31 56  1  0  0  0
 32 33  1  0  0  0
 33 34  1  0  0  0
 33 42  1  0  0  0
 33 54  1  0  0  0
 34 35  1  0  0  0
 35 36  1  0  0  0
 35 48  1  0  0  0
 35 53  1  0  0  0
 36 37  1  0  0  0
 36 39  1  0  0  0
 36 47  1  0  0  0
 37 38  1  0  0  0
 39 40  1  0  0  0
 39 42  1  0  0  0
 39 46  1  0  0  0
 40 41  1  0  0  0
 42 43  1  0  0  0
 42 45  1  0  0  0
 43 44  1  0  0  0
 48 49  1  0  0  0
 48 51  1  0  0  0
 48 52  1  0  0  0
 49 50  1  0  0  0
M  END
> <Tumorigenic>
none

> <Score>
43.05298

> <Active/Decoy>
active

> <InChI>
InChI=1S/C20H30O11/c1-9-4-2-3-5-10(9)7-28-19-18(27)16(25)14(23)12(31-19)8-29-20-17(26)15(24)13(22)11(6-21)30-20/h2-5,11-27H,6-8H2,1H3/t11-,12-,13-,14-,15+,16+,17-,18-,19-,20-/m1/s1

> <Matching Features>
H:14924486185440016873|HBA:149238150533300697|HBA:14924321692640012300|HBA:14924486112070016868

> <Mol. Index>
722

> <Pharmacophore Match>
Model -1

> <# Confs.>
25

> <Source Database>
Pharm-Screening-input-NANPDB_After_DataWarror.ldb

> <Pharmacophore-Fit Score>
43.05

> <formula>
C20H30O11

> <Mutagenic>
none

> <Reproductive Effective>
none

> <Irritant>
none

$$$$
samarcandin
XX    ILIB03122402103D

 61 64  0  0  1  0              1 V2000
   -5.8361    0.0445   -2.8135 O   0  0  0  0  0
   -4.8828   -0.6426   -2.4636 C   0  0  0  0  0
   -3.6887   -0.0796   -2.0223 O   0  0  0  0  0
   -2.5949   -0.8773   -1.6265 C   0  0  0  0  0
   -2.6861   -2.2656   -1.6612 C   0  0  0  0  0
   -1.5827   -3.0196   -1.2615 C   0  0  0  0  0
   -0.4254   -2.3782   -0.8090 C   0  0  0  0  0
   -0.3392   -0.9800   -0.7939 C   0  0  0  0  0
   -1.4474   -0.2213   -1.1782 C   0  0  0  0  0
   -1.4344    0.8639   -1.1679 H   0  0  0  0  0
    0.8378   -0.4769   -0.3386 O   0  0  0  0  0
    0.9648    0.9385   -0.3014 C   0  0  0  0  0
    2.3427    1.3212    0.2077 C   0  0  2  0  0
    3.5017    0.7840   -0.6849 C   0  0  1  0  0
    3.2834    1.3223   -2.0060 O   0  0  0  0  0
    4.0309    1.0565   -2.5679 H   0  0  0  0  0
    4.8558    1.3422   -0.2139 C   0  0  0  0  0
    5.1079    1.2165    1.2856 C   0  0  0  0  0
    3.9639    1.8638    2.0953 C   0  0  2  0  0
    4.2936    2.1173    3.6133 C   0  0  0  0  0
    3.0843    2.8151    4.3061 C   0  0  1  0  0
    2.9794    4.1871    3.9133 O   0  0  0  0  0
    2.8190    4.2277    2.9564 H   0  0  0  0  0
    1.7421    2.1375    4.0387 C   0  0  0  0  0
    1.4620    1.9254    2.5474 C   0  0  0  0  0
    2.5835    1.1650    1.7820 C   0  0  1  0  0
    2.5408   -0.3119    2.2360 C   0  0  0  0  0
    2.3252   -0.4183    3.2997 H   0  0  0  0  0
    1.7487   -0.8773    1.7455 H   0  0  0  0  0
    3.4771   -0.8430    2.0643 H   0  0  0  0  0
    0.5117    1.3849    2.4582 H   0  0  0  0  0
    1.2985    2.9055    2.0821 H   0  0  0  0  0
    1.6911    1.1846    4.5750 H   0  0  0  0  0
    0.9349    2.7598    4.4461 H   0  0  0  0  0
    3.2494    2.8356    5.3898 H   0  0  0  0  0
    5.5236    3.0592    3.7294 C   0  0  0  0  0
    6.4551    2.5478    3.4646 H   0  0  0  0  0
    5.6448    3.4210    4.7582 H   0  0  0  0  0
    5.4280    3.9354    3.0795 H   0  0  0  0  0
    4.6641    0.8380    4.3905 C   0  0  0  0  0
    3.8168    0.1787    4.5676 H   0  0  0  0  0
    5.0564    1.0923    5.3833 H   0  0  0  0  0
    5.4423    0.2627    3.8801 H   0  0  0  0  0
    3.8708    2.8774    1.6730 H   0  0  0  0  0
    5.2552    0.1671    1.5547 H   0  0  0  0  0
    6.0590    1.7179    1.4931 H   0  0  0  0  0
    4.9177    2.4048   -0.4897 H   0  0  0  0  0
    5.6762    0.8656   -0.7646 H   0  0  0  0  0
    3.5737   -0.7352   -0.8736 C   0  0  0  0  0
    3.7316   -1.2851    0.0509 H   0  0  0  0  0
    4.4005   -0.9956   -1.5462 H   0  0  0  0  0
    2.6787   -1.1226   -1.3699 H   0  0  0  0  0
    2.3541    2.4111    0.0418 H   0  0  0  0  0
    0.7934    1.3812   -1.2928 H   0  0  0  0  0
    0.1951    1.3661    0.3772 H   0  0  0  0  0
    0.4255   -2.9817   -0.5010 H   0  0  0  0  0
   -1.6125   -4.1062   -1.2831 H   0  0  0  0  0
   -3.9271   -2.8775   -2.1032 C   0  0  0  0  0
   -4.9568   -2.1152   -2.4771 C   0  0  0  0  0
   -5.8845   -2.5651   -2.8156 H   0  0  0  0  0
   -3.9991   -3.9588   -2.1312 H   0  0  0  0  0
  1  2  2  0  0  0
  2  3  1  0  0  0
  2 59  1  0  0  0
  3  4  1  0  0  0
  4  5  2  0  0  0
  4  9  1  0  0  0
  5  6  1  0  0  0
  5 58  1  0  0  0
  6  7  2  0  0  0
  6 57  1  0  0  0
  7  8  1  0  0  0
  7 56  1  0  0  0
  8  9  2  0  0  0
  8 11  1  0  0  0
  9 10  1  0  0  0
 11 12  1  0  0  0
 12 13  1  0  0  0
 12 54  1  0  0  0
 12 55  1  0  0  0
 13 14  1  0  0  0
 13 26  1  0  0  0
 13 53  1  0  0  0
 14 15  1  0  0  0
 14 17  1  0  0  0
 14 49  1  0  0  0
 15 16  1  0  0  0
 17 18  1  0  0  0
 17 47  1  0  0  0
 17 48  1  0  0  0
 18 19  1  0  0  0
 18 45  1  0  0  0
 18 46  1  0  0  0
 19 20  1  0  0  0
 19 26  1  0  0  0
 19 44  1  0  0  0
 20 21  1  0  0  0
 20 36  1  0  0  0
 20 40  1  0  0  0
 21 22  1  0  0  0
 21 24  1  0  0  0
 21 35  1  0  0  0
 22 23  1  0  0  0
 24 25  1  0  0  0
 24 33  1  0  0  0
 24 34  1  0  0  0
 25 26  1  0  0  0
 25 31  1  0  0  0
 25 32  1  0  0  0
 26 27  1  0  0  0
 27 28  1  0  0  0
 27 29  1  0  0  0
 27 30  1  0  0  0
 36 37  1  0  0  0
 36 38  1  0  0  0
 36 39  1  0  0  0
 40 41  1  0  0  0
 40 42  1  0  0  0
 40 43  1  0  0  0
 49 50  1  0  0  0
 49 51  1  0  0  0
 49 52  1  0  0  0
 58 59  2  0  0  0
 58 61  1  0  0  0
 59 60  1  0  0  0
M  END
> <Tumorigenic>
none

> <Score>
43.028423

> <Active/Decoy>
active

> <InChI>
InChI=1S/C24H32O5/c1-22(2)18-9-12-24(4,27)19(23(18,3)11-10-20(22)25)14-28-16-7-5-15-6-8-21(26)29-17(15)13-16/h5-8,13,18-20,25,27H,9-12,14H2,1-4H3/t18-,19+,20+,23-,24+/m1/s1

> <Matching Features>
H:14924486185440016873|HBA:149238150533300697|HBA:14924321692640012300|HBA:14924486112070016868

> <Mol. Index>
882

> <Pharmacophore Match>
Model -1

> <# Confs.>
25

> <Source Database>
Pharm-Screening-input-NANPDB_After_DataWarror.ldb

> <Pharmacophore-Fit Score>
43.03

> <formula>
C24H32O5

> <Mutagenic>
none

> <Reproductive Effective>
none

> <Irritant>
none

$$$$
(-)-samarcandone
XX    ILIB03122402103D

 59 62  0  0  1  0              1 V2000
    5.7745    1.4932   -1.4617 O   0  0  0  0  0
    5.0466    0.9687   -0.6264 C   0  0  0  0  0
    3.6693    1.1603   -0.6244 O   0  0  0  0  0
    2.8378    0.5570    0.3441 C   0  0  0  0  0
    3.3828   -0.2608    1.3295 C   0  0  0  0  0
    2.5296   -0.8388    2.2677 C   0  0  0  0  0
    1.1537   -0.5995    2.2032 C   0  0  0  0  0
    0.6149    0.2222    1.2036 C   0  0  0  0  0
    1.4645    0.7906    0.2519 C   0  0  0  0  0
    1.0950    1.4332   -0.5408 H   0  0  0  0  0
   -0.7503    0.3605    1.2411 O   0  0  0  0  0
   -1.3220    1.2016    0.2480 C   0  0  0  0  0
   -2.8253    1.2628    0.4468 C   0  0  1  0  0
   -3.2285    1.8402    1.8427 C   0  0  2  0  0
   -2.7239    0.9673    2.8718 O   0  0  0  0  0
   -3.0636    0.0722    2.7028 H   0  0  0  0  0
   -4.7530    1.8630    2.0223 C   0  0  0  0  0
   -5.5102    2.4800    0.8534 C   0  0  0  0  0
   -5.1657    1.7600   -0.4656 C   0  0  1  0  0
   -6.1583    2.0714   -1.6380 C   0  0  0  0  0
   -5.7026    1.3111   -2.8946 C   0  0  0  0  0
   -6.4990    0.7605   -3.6577 O   0  0  0  0  0
   -4.2381    1.3501   -3.2502 C   0  0  0  0  0
   -3.3561    1.0129   -2.0566 C   0  0  0  0  0
   -3.6270    1.8760   -0.7889 C   0  0  2  0  0
   -3.1614    3.3208   -1.0832 C   0  0  0  0  0
   -3.3727    3.6329   -2.1067 H   0  0  0  0  0
   -2.0791    3.4326   -0.9773 H   0  0  0  0  0
   -3.6332    4.0609   -0.4375 H   0  0  0  0  0
   -2.3140    1.1165   -2.3788 H   0  0  0  0  0
   -3.5036   -0.0471   -1.8086 H   0  0  0  0  0
   -4.0574    0.6123   -4.0402 H   0  0  0  0  0
   -4.0081    2.3296   -3.6761 H   0  0  0  0  0
   -7.5729    1.5527   -1.2723 C   0  0  0  0  0
   -7.5472    0.4935   -0.9920 H   0  0  0  0  0
   -8.2666    1.6429   -2.1174 H   0  0  0  0  0
   -8.0186    2.1145   -0.4469 H   0  0  0  0  0
   -6.3037    3.5648   -1.9854 C   0  0  0  0  0
   -7.0833    3.7002   -2.7482 H   0  0  0  0  0
   -6.5887    4.1548   -1.1167 H   0  0  0  0  0
   -5.3980    3.9875   -2.4174 H   0  0  0  0  0
   -5.3236    0.6877   -0.2612 H   0  0  0  0  0
   -5.3074    3.5521    0.7949 H   0  0  0  0  0
   -6.5765    2.3879    1.0813 H   0  0  0  0  0
   -5.0163    2.3871    2.9498 H   0  0  0  0  0
   -5.1152    0.8365    2.1702 H   0  0  0  0  0
   -2.6286    3.2102    2.1776 C   0  0  0  0  0
   -1.5352    3.1952    2.1297 H   0  0  0  0  0
   -2.9949    4.0144    1.5410 H   0  0  0  0  0
   -2.8664    3.4860    3.2130 H   0  0  0  0  0
   -3.1260    0.1969    0.4915 H   0  0  0  0  0
   -0.8971    2.2152    0.2802 H   0  0  0  0  0
   -1.1059    0.7959   -0.7637 H   0  0  0  0  0
    0.4998   -1.0752    2.9304 H   0  0  0  0  0
    2.9188   -1.4763    3.0579 H   0  0  0  0  0
    4.8169   -0.4892    1.3394 C   0  0  0  0  0
    5.5965    0.0868    0.4196 C   0  0  0  0  0
    6.6681   -0.0727    0.4251 H   0  0  0  0  0
    5.2433   -1.1255    2.1066 H   0  0  0  0  0
  1  2  2  0  0  0
  2  3  1  0  0  0
  2 57  1  0  0  0
  3  4  1  0  0  0
  4  5  2  0  0  0
  4  9  1  0  0  0
  5  6  1  0  0  0
  5 56  1  0  0  0
  6  7  2  0  0  0
  6 55  1  0  0  0
  7  8  1  0  0  0
  7 54  1  0  0  0
  8  9  2  0  0  0
  8 11  1  0  0  0
  9 10  1  0  0  0
 11 12  1  0  0  0
 12 13  1  0  0  0
 12 52  1  0  0  0
 12 53  1  0  0  0
 13 14  1  0  0  0
 13 25  1  0  0  0
 13 51  1  0  0  0
 14 15  1  0  0  0
 14 17  1  0  0  0
 14 47  1  0  0  0
 15 16  1  0  0  0
 17 18  1  0  0  0
 17 45  1  0  0  0
 17 46  1  0  0  0
 18 19  1  0  0  0
 18 43  1  0  0  0
 18 44  1  0  0  0
 19 20  1  0  0  0
 19 25  1  0  0  0
 19 42  1  0  0  0
 20 21  1  0  0  0
 20 34  1  0  0  0
 20 38  1  0  0  0
 21 22  2  0  0  0
 21 23  1  0  0  0
 23 24  1  0  0  0
 23 32  1  0  0  0
 23 33  1  0  0  0
 24 25  1  0  0  0
 24 30  1  0  0  0
 24 31  1  0  0  0
 25 26  1  0  0  0
 26 27  1  0  0  0
 26 28  1  0  0  0
 26 29  1  0  0  0
 34 35  1  0  0  0
 34 36  1  0  0  0
 34 37  1  0  0  0
 38 39  1  0  0  0
 38 40  1  0  0  0
 38 41  1  0  0  0
 47 48  1  0  0  0
 47 49  1  0  0  0
 47 50  1  0  0  0
 56 57  2  0  0  0
 56 59  1  0  0  0
 57 58  1  0  0  0
M  END
> <Tumorigenic>
none

> <Score>
43.02473

> <Active/Decoy>
active

> <InChI>
InChI=1S/C24H30O5/c1-22(2)18-9-12-24(4,27)19(23(18,3)11-10-20(22)25)14-28-16-7-5-15-6-8-21(26)29-17(15)13-16/h5-8,13,18-19,27H,9-12,14H2,1-4H3/t18-,19+,23-,24+/m0/s1

> <Matching Features>
H:14924486185440016873|HBA:149238150533300697|HBA:14924321692640012300|HBA:14924486112070016868

> <Mol. Index>
958

> <Pharmacophore Match>
Model -1

> <# Confs.>
25

> <Source Database>
Pharm-Screening-input-NANPDB_After_DataWarror.ldb

> <Pharmacophore-Fit Score>
43.02

> <formula>
C24H30O5

> <Mutagenic>
none

> <Reproductive Effective>
none

> <Irritant>
none

$$$$
sipholenol I
XX    ILIB03122402103D

 88 92  0  0  1  0              1 V2000
    3.5490    1.3008   -2.5700 O   0  0  0  0  0
    4.3744    2.3321   -3.1314 C   0  0  0  0  0
    4.4916    3.6262   -2.2802 C   0  0  2  0  0
    5.4723    3.4676   -1.2515 O   0  0  0  0  0
    5.6019    4.3334   -0.8296 H   0  0  0  0  0
    3.1933    4.1632   -1.6579 C   0  0  0  0  0
    2.1251    3.1428   -1.2398 C   0  0  0  0  0
    2.5668    1.9038   -0.3955 C   0  0  2  0  0
    3.6414    1.0690   -1.1643 C   0  0  1  0  0
    3.5182   -0.4472   -0.9775 C   0  0  0  0  0
    3.1214   -0.8099    0.4408 C   0  0  0  0  0
    1.6890   -0.3361    0.7401 C   0  0  2  0  0
    0.8234   -1.4023    0.3137 O   0  0  0  0  0
    1.0364   -2.1990    0.8277 H   0  0  0  0  0
    1.3012    1.0013   -0.0049 C   0  0  2  0  0
    0.3265    0.7694   -1.1547 C   0  0  0  0  0
   -0.9998    0.1559   -0.7431 C   0  0  0  0  0
   -1.9082   -0.0658   -1.9216 C   0  0  1  0  0
   -3.2893    0.0259   -1.5403 O   0  0  0  0  0
   -2.8393    1.1459   -2.3140 C   0  0  2  0  0
   -3.6188    1.3350   -3.5962 C   0  0  2  0  0
   -4.9632    1.7189   -3.2852 O   0  0  0  0  0
   -5.3492    1.0185   -2.7332 H   0  0  0  0  0
   -3.6473    0.2796   -4.6896 C   0  0  0  0  0
   -3.8580   -1.1948   -4.3727 C   0  0  2  0  0
   -5.2315   -1.6491   -3.8131 C   0  0  2  0  0
   -5.6591   -0.8376   -2.7287 O   0  0  0  0  0
   -6.4838   -1.2114   -2.3762 H   0  0  0  0  0
   -4.9292   -3.0439   -3.2702 C   0  0  0  0  0
   -3.5812   -2.8540   -2.5864 C   0  0  0  0  0
   -2.7818   -1.9352   -3.5421 C   0  0  2  0  0
   -1.5568   -1.1913   -2.9097 C   0  0  0  0  0
   -0.7139   -2.3060   -2.2128 C   0  0  0  0  0
   -1.2227   -2.7121   -1.3328 H   0  0  0  0  0
   -0.5151   -3.1385   -2.8990 H   0  0  0  0  0
    0.2648   -1.9426   -1.8815 H   0  0  0  0  0
   -0.6227   -0.6104   -4.0035 C   0  0  0  0  0
    0.4003   -0.4857   -3.6283 H   0  0  0  0  0
   -0.5644   -1.2692   -4.8755 H   0  0  0  0  0
   -0.9253    0.3841   -4.3369 H   0  0  0  0  0
   -2.3302   -2.6378   -4.2622 H   0  0  0  0  0
   -3.0861   -3.8190   -2.4352 H   0  0  0  0  0
   -3.7203   -2.3974   -1.6019 H   0  0  0  0  0
   -4.8401   -3.7773   -4.0800 H   0  0  0  0  0
   -5.6802   -3.3985   -2.5562 H   0  0  0  0  0
   -6.3367   -1.6587   -4.8640 C   0  0  0  0  0
   -7.2685   -2.0539   -4.4407 H   0  0  0  0  0
   -6.5581   -0.6432   -5.2066 H   0  0  0  0  0
   -6.0696   -2.2700   -5.7311 H   0  0  0  0  0
   -3.7924   -1.6731   -5.3670 H   0  0  0  0  0
   -4.4391    0.5677   -5.3952 H   0  0  0  0  0
   -2.7324    0.3636   -5.2829 H   0  0  0  0  0
   -3.1909    2.2249   -4.0773 H   0  0  0  0  0
   -2.7375    2.4238   -1.5012 C   0  0  0  0  0
   -1.7228    2.8286   -1.5606 H   0  0  0  0  0
   -3.4140    3.2022   -1.8720 H   0  0  0  0  0
   -2.9963    2.2623   -0.4501 H   0  0  0  0  0
   -1.4818    0.7847    0.0011 H   0  0  0  0  0
   -0.8158   -0.8200   -0.2701 H   0  0  0  0  0
    0.8101    0.1376   -1.9115 H   0  0  0  0  0
    0.1248    1.7388   -1.6578 H   0  0  0  0  0
    0.7199    1.6135    0.7112 H   0  0  0  0  0
    1.4713   -0.2164    2.2561 C   0  0  0  0  0
    1.7134   -1.1586    2.7610 H   0  0  0  0  0
    0.4178   -0.0125    2.4789 H   0  0  0  0  0
    2.0753    0.5727    2.7093 H   0  0  0  0  0
    3.8466   -0.3840    1.1411 H   0  0  0  0  0
    3.1955   -1.8989    0.5561 H   0  0  0  0  0
    2.8106   -0.8776   -1.6967 H   0  0  0  0  0
    4.4824   -0.9099   -1.2227 H   0  0  0  0  0
    4.6423    1.3259   -0.8056 H   0  0  0  0  0
    3.1803    2.4525    0.9226 C   0  0  0  0  0
    3.9910    3.1623    0.7403 H   0  0  0  0  0
    3.6107    1.6719    1.5503 H   0  0  0  0  0
    2.4252    2.9792    1.5166 H   0  0  0  0  0
    1.6527    2.8121   -2.1702 H   0  0  0  0  0
    1.3427    3.6851   -0.6916 H   0  0  0  0  0
    3.4282    4.8009   -0.7977 H   0  0  0  0  0
    2.7174    4.8249   -2.3943 H   0  0  0  0  0
    4.9051    4.4166   -2.9205 H   0  0  0  0  0
    5.7546    1.7196   -3.4241 C   0  0  0  0  0
    6.4133    2.4365   -3.9229 H   0  0  0  0  0
    5.6583    0.8349   -4.0647 H   0  0  0  0  0
    6.2477    1.3737   -2.5098 H   0  0  0  0  0
    3.7112    2.6739   -4.4777 C   0  0  0  0  0
    3.6076    1.7779   -5.1011 H   0  0  0  0  0
    4.2893    3.4167   -5.0370 H   0  0  0  0  0
    2.6985    3.0634   -4.3345 H   0  0  0  0  0
  1  2  1  0  0  0
  1  9  1  0  0  0
  2  3  1  0  0  0
  2 81  1  0  0  0
  2 85  1  0  0  0
  3  4  1  0  0  0
  3  6  1  0  0  0
  3 80  1  0  0  0
  4  5  1  0  0  0
  6  7  1  0  0  0
  6 78  1  0  0  0
  6 79  1  0  0  0
  7  8  1  0  0  0
  7 76  1  0  0  0
  7 77  1  0  0  0
  8  9  1  0  0  0
  8 15  1  0  0  0
  8 72  1  0  0  0
  9 10  1  0  0  0
  9 71  1  0  0  0
 10 11  1  0  0  0
 10 69  1  0  0  0
 10 70  1  0  0  0
 11 12  1  0  0  0
 11 67  1  0  0  0
 11 68  1  0  0  0
 12 13  1  0  0  0
 12 15  1  0  0  0
 12 63  1  0  0  0
 13 14  1  0  0  0
 15 16  1  0  0  0
 15 62  1  0  0  0
 16 17  1  0  0  0
 16 60  1  0  0  0
 16 61  1  0  0  0
 17 18  1  0  0  0
 17 58  1  0  0  0
 17 59  1  0  0  0
 18 19  1  0  0  0
 18 20  1  0  0  0
 18 32  1  0  0  0
 19 20  1  0  0  0
 20 21  1  0  0  0
 20 54  1  0  0  0
 21 22  1  0  0  0
 21 24  1  0  0  0
 21 53  1  0  0  0
 22 23  1  0  0  0
 24 25  1  0  0  0
 24 51  1  0  0  0
 24 52  1  0  0  0
 25 26  1  0  0  0
 25 31  1  0  0  0
 25 50  1  0  0  0
 26 27  1  0  0  0
 26 29  1  0  0  0
 26 46  1  0  0  0
 27 28  1  0  0  0
 29 30  1  0  0  0
 29 44  1  0  0  0
 29 45  1  0  0  0
 30 31  1  0  0  0
 30 42  1  0  0  0
 30 43  1  0  0  0
 31 32  1  0  0  0
 31 41  1  0  0  0
 32 33  1  0  0  0
 32 37  1  0  0  0
 33 34  1  0  0  0
 33 35  1  0  0  0
 33 36  1  0  0  0
 37 38  1  0  0  0
 37 39  1  0  0  0
 37 40  1  0  0  0
 46 47  1  0  0  0
 46 48  1  0  0  0
 46 49  1  0  0  0
 54 55  1  0  0  0
 54 56  1  0  0  0
 54 57  1  0  0  0
 63 64  1  0  0  0
 63 65  1  0  0  0
 63 66  1  0  0  0
 72 73  1  0  0  0
 72 74  1  0  0  0
 72 75  1  0  0  0
 81 82  1  0  0  0
 81 83  1  0  0  0
 81 84  1  0  0  0
 85 86  1  0  0  0
 85 87  1  0  0  0
 85 88  1  0  0  0
M  END
> <Tumorigenic>
none

> <Score>
43.01788

> <Active/Decoy>
active

> <InChI>
InChI=1S/C30H52O6/c1-24(2)18-9-14-27(6,33)19(18)17-22(32)29(8)30(24,36-29)16-10-20-26(5)13-11-21(31)25(3,4)35-23(26)12-15-28(20,7)34/h18-23,31-34H,9-17H2,1-8H3/t18-,19-,20+,21+,22+,23+,26-,27+,28-,29+,30-/m0/s1

> <Matching Features>
H:14924486185440016873|HBA:149238150533300697|HBA:14924321692640012300|HBA:14924486112070016868

> <Mol. Index>
159

> <Pharmacophore Match>
Model -1

> <# Confs.>
25

> <Source Database>
Pharm-Screening-input-NANPDB_After_DataWarror.ldb

> <Pharmacophore-Fit Score>
43.02

> <formula>
C30H52O6

> <Mutagenic>
none

> <Reproductive Effective>
none

> <Irritant>
none

$$$$
madiaol
XX    ILIB03122402103D

 61 62  0  0  1  0              1 V2000
   -2.4858   -0.0065   -2.5958 O   0  0  0  0  0
   -1.3371    0.6226   -1.9752 C   0  0  1  0  0
   -1.4335    0.4640   -0.5540 O   0  0  0  0  0
   -1.1603   -0.4383   -0.3200 H   0  0  0  0  0
   -0.0836    0.0144   -2.5351 C   0  0  0  0  0
   -0.0645   -0.9673   -3.4513 C   0  0  0  0  0
    0.8679   -1.3797   -3.8237 H   0  0  0  0  0
   -0.9760   -1.3667   -3.8807 H   0  0  0  0  0
    1.2311    0.5097   -1.9758 C   0  0  0  0  0
    1.7305   -0.2731   -0.7622 C   0  0  0  0  0
    3.0602    0.1883   -0.1502 C   0  0  2  0  0
    4.2660    0.1179   -1.1550 C   0  0  1  0  0
    4.0527    1.0896   -2.1973 O   0  0  0  0  0
    3.9625    1.9641   -1.7826 H   0  0  0  0  0
    5.5916    0.5092   -0.4787 C   0  0  0  0  0
    5.8547   -0.2533    0.8073 C   0  0  0  0  0
    4.7218   -0.0299    1.7972 C   0  0  0  0  0
    3.3328   -0.4598    1.2641 C   0  0  0  0  0
    2.2878    0.0542    2.2887 C   0  0  0  0  0
    2.5476   -0.2607    3.3066 H   0  0  0  0  0
    2.2365    1.1491    2.2886 H   0  0  0  0  0
    1.2845   -0.3307    2.0849 H   0  0  0  0  0
    3.2321   -1.9988    1.2737 C   0  0  0  0  0
    3.3929   -2.3896    2.2862 H   0  0  0  0  0
    3.9745   -2.4789    0.6371 H   0  0  0  0  0
    2.2431   -2.3450    0.9585 H   0  0  0  0  0
    4.6979    1.0378    2.0565 H   0  0  0  0  0
    4.9524   -0.5611    2.7281 H   0  0  0  0  0
    6.7934    0.1000    1.2500 H   0  0  0  0  0
    5.9900   -1.3211    0.6051 H   0  0  0  0  0
    6.4277    0.3662   -1.1738 H   0  0  0  0  0
    5.5863    1.5852   -0.2617 H   0  0  0  0  0
    4.4198   -1.2149   -1.8982 C   0  0  0  0  0
    4.6672   -2.0493   -1.2439 H   0  0  0  0  0
    3.5206   -1.4701   -2.4660 H   0  0  0  0  0
    5.2202   -1.1411   -2.6469 H   0  0  0  0  0
    2.9203    1.2635    0.0469 H   0  0  0  0  0
    1.8099   -1.3355   -1.0291 H   0  0  0  0  0
    0.9554   -0.2136    0.0143 H   0  0  0  0  0
    1.1249    1.5616   -1.6791 H   0  0  0  0  0
    1.9891    0.4968   -2.7687 H   0  0  0  0  0
   -1.4705    2.1014   -2.2860 C   0  0  0  0  0
   -2.9718    2.2934   -2.2779 C   0  0  0  0  0
   -3.4856    0.9886   -2.8939 C   0  0  2  0  0
   -4.8066    0.5405   -2.2664 C   0  0  1  0  0
   -5.8172    1.5100   -2.5480 O   0  0  0  0  0
   -5.9828    1.5026   -3.5062 H   0  0  0  0  0
   -5.3009   -0.8306   -2.7281 C   0  0  0  0  0
   -6.1256   -0.6878   -3.8722 O   0  0  0  0  0
   -6.4145   -1.5806   -4.1294 H   0  0  0  0  0
   -5.8675   -1.3313   -1.9355 H   0  0  0  0  0
   -4.4515   -1.4751   -2.9806 H   0  0  0  0  0
   -4.6842    0.5275   -1.1773 H   0  0  0  0  0
   -3.5680    1.0863   -4.4230 C   0  0  0  0  0
   -2.6019    1.3659   -4.8567 H   0  0  0  0  0
   -4.3095    1.8259   -4.7432 H   0  0  0  0  0
   -3.8258    0.1189   -4.8688 H   0  0  0  0  0
   -3.3120    2.3985   -1.2407 H   0  0  0  0  0
   -3.2862    3.1924   -2.8176 H   0  0  0  0  0
   -1.0809    2.3526   -3.2788 H   0  0  0  0  0
   -0.9749    2.7422   -1.5497 H   0  0  0  0  0
  1  2  1  0  0  0
  1 44  1  0  0  0
  2  3  1  0  0  0
  2  5  1  0  0  0
  2 42  1  0  0  0
  3  4  1  0  0  0
  5  6  2  0  0  0
  5  9  1  0  0  0
  6  7  1  0  0  0
  6  8  1  0  0  0
  9 10  1  0  0  0
  9 40  1  0  0  0
  9 41  1  0  0  0
 10 11  1  0  0  0
 10 38  1  0  0  0
 10 39  1  0  0  0
 11 12  1  0  0  0
 11 18  1  0  0  0
 11 37  1  0  0  0
 12 13  1  0  0  0
 12 15  1  0  0  0
 12 33  1  0  0  0
 13 14  1  0  0  0
 15 16  1  0  0  0
 15 31  1  0  0  0
 15 32  1  0  0  0
 16 17  1  0  0  0
 16 29  1  0  0  0
 16 30  1  0  0  0
 17 18  1  0  0  0
 17 27  1  0  0  0
 17 28  1  0  0  0
 18 19  1  0  0  0
 18 23  1  0  0  0
 19 20  1  0  0  0
 19 21  1  0  0  0
 19 22  1  0  0  0
 23 24  1  0  0  0
 23 25  1  0  0  0
 23 26  1  0  0  0
 33 34  1  0  0  0
 33 35  1  0  0  0
 33 36  1  0  0  0
 42 43  1  0  0  0
 42 60  1  0  0  0
 42 61  1  0  0  0
 43 44  1  0  0  0
 43 58  1  0  0  0
 43 59  1  0  0  0
 44 45  1  0  0  0
 44 54  1  0  0  0
 45 46  1  0  0  0
 45 48  1  0  0  0
 45 53  1  0  0  0
 46 47  1  0  0  0
 48 49  1  0  0  0
 48 51  1  0  0  0
 48 52  1  0  0  0
 49 50  1  0  0  0
 54 55  1  0  0  0
 54 56  1  0  0  0
 54 57  1  0  0  0
M  END
> <Tumorigenic>
none

> <Score>
43.00303

> <Active/Decoy>
active

> <InChI>
InChI=1S/C20H36O5/c1-14(20(24)12-11-19(5,25-20)16(22)13-21)7-8-15-17(2,3)9-6-10-18(15,4)23/h15-16,21-24H,1,6-13H2,2-5H3/t15-,16-,18-,19+,20+/m0/s1

> <Matching Features>
H:14924486185440016873|HBA:149238150533300697|HBA:14924321692640012300|HBA:14924486112070016868

> <Mol. Index>
1191

> <Pharmacophore Match>
Model -1

> <# Confs.>
25

> <Source Database>
Pharm-Screening-input-NANPDB_After_DataWarror.ldb

> <Pharmacophore-Fit Score>
43.0

> <formula>
C20H36O5

> <Mutagenic>
none

> <Reproductive Effective>
none

> <Irritant>
none

$$$$
neviotine A
XX    ILIB03122402103D

 86 90  0  0  1  0              1 V2000
    5.6630    1.4246   -1.3199 O   0  0  0  0  0
    5.0616    1.6271   -0.2649 C   0  0  0  0  0
    5.2324    2.9175    0.5251 C   0  0  1  0  0
    6.5414    3.4226    0.3192 O   0  0  0  0  0
    7.1678    2.7719    0.6822 H   0  0  0  0  0
    4.1726    3.9558    0.1253 C   0  0  0  0  0
    2.8931    3.3747   -0.1242 O   0  0  0  0  0
    2.3539    2.4230    0.7985 C   0  0  2  0  0
    2.5927    0.9727    0.2816 C   0  0  2  0  0
    4.1070    0.5878    0.3021 C   0  0  2  0  0
    4.5517    0.3494    1.6383 O   0  0  0  0  0
    5.4379   -0.0446    1.5876 H   0  0  0  0  0
    4.2621   -0.3498   -0.2445 H   0  0  0  0  0
    2.0515    0.9043   -1.1871 C   0  0  2  0  0
    0.6299    1.5567   -1.4335 C   0  0  1  0  0
   -0.2093    0.3901   -2.0624 C   0  0  1  0  0
   -1.4382    0.6841   -2.9464 C   0  0  1  0  0
   -1.0293    1.4618   -4.0647 O   0  0  0  0  0
   -0.4089    0.9331   -4.5935 H   0  0  0  0  0
   -2.0748   -0.6507   -3.4649 C   0  0  0  0  0
   -3.6074   -0.5871   -3.6792 C   0  0  1  0  0
   -4.0200    0.8477   -4.0602 C   0  0  1  0  0
   -5.4410    0.7181   -4.6545 C   0  0  1  0  0
   -6.4087    0.7505   -3.6015 O   0  0  0  0  0
   -7.2816    0.5786   -3.9909 H   0  0  0  0  0
   -5.8296    1.8094   -5.6711 C   0  0  0  0  0
   -4.8463    1.8540   -6.8455 C   0  0  0  0  0
   -5.1455    2.6148   -7.5737 H   0  0  0  0  0
   -3.8350    2.1046   -6.5097 H   0  0  0  0  0
   -4.8047    0.8896   -7.3637 H   0  0  0  0  0
   -7.2480    1.5957   -6.2038 C   0  0  0  0  0
   -7.5077    2.3665   -6.9401 H   0  0  0  0  0
   -7.3470    0.6199   -6.6912 H   0  0  0  0  0
   -7.9896    1.6513   -5.4007 H   0  0  0  0  0
   -5.8010    2.7872   -5.1725 H   0  0  0  0  0
   -5.4447   -0.7041   -5.2803 C   0  0  0  0  0
   -4.0924   -1.3479   -4.9225 C   0  0  0  0  0
   -3.4016   -1.2032   -5.7622 H   0  0  0  0  0
   -4.1884   -2.4262   -4.7610 H   0  0  0  0  0
   -6.2624   -1.3112   -4.8742 H   0  0  0  0  0
   -5.5644   -0.6914   -6.3695 H   0  0  0  0  0
   -3.7775    1.8298   -2.9178 C   0  0  0  0  0
   -2.4658    1.5411   -2.1592 C   0  0  0  0  0
   -2.7036    1.0542   -1.2059 H   0  0  0  0  0
   -2.0229    2.5105   -1.8980 H   0  0  0  0  0
   -3.7311    2.8464   -3.3247 H   0  0  0  0  0
   -4.6040    1.8300   -2.1996 H   0  0  0  0  0
   -3.3632    1.1583   -4.8854 H   0  0  0  0  0
   -4.3165   -1.1688   -2.4331 C   0  0  0  0  0
   -3.9837   -2.1979   -2.2522 H   0  0  0  0  0
   -5.4028   -1.2161   -2.5423 H   0  0  0  0  0
   -4.1060   -0.5997   -1.5254 H   0  0  0  0  0
   -1.5876   -0.9204   -4.4105 H   0  0  0  0  0
   -1.8510   -1.4709   -2.7721 H   0  0  0  0  0
    0.8563   -0.4562   -2.7988 C   0  0  0  0  0
    1.9914   -0.5103   -1.7938 C   0  0  0  0  0
    1.7662   -1.2747   -1.0454 H   0  0  0  0  0
    2.9368   -0.7885   -2.2725 H   0  0  0  0  0
    0.4958   -1.4597   -3.0465 H   0  0  0  0  0
    1.1919    0.0241   -3.7239 H   0  0  0  0  0
   -0.5482   -0.2542   -1.2354 H   0  0  0  0  0
   -0.0462    2.0945   -0.1588 C   0  0  0  0  0
    0.8589    2.7670    0.8824 C   0  0  0  0  0
    0.4856    2.4915    1.8764 H   0  0  0  0  0
    0.7301    3.8554    0.8055 H   0  0  0  0  0
   -0.5803    1.2808    0.3449 H   0  0  0  0  0
   -0.8435    2.8024   -0.4194 H   0  0  0  0  0
    0.7931    2.7351   -2.4314 C   0  0  0  0  0
    1.4280    3.5265   -2.0269 H   0  0  0  0  0
   -0.1685    3.2042   -2.6606 H   0  0  0  0  0
    1.2469    2.4130   -3.3743 H   0  0  0  0  0
    2.7697    1.4522   -1.8148 H   0  0  0  0  0
    1.8780   -0.0355    1.2263 C   0  0  0  0  0
    2.2750   -1.0491    1.1033 H   0  0  0  0  0
    0.8037   -0.1068    1.0536 H   0  0  0  0  0
    2.0218    0.2388    2.2774 H   0  0  0  0  0
    2.7913    2.5664    1.7931 H   0  0  0  0  0
    4.5398    4.6669   -1.1902 C   0  0  0  0  0
    3.7464    5.3618   -1.4885 H   0  0  0  0  0
    5.4724    5.2350   -1.1121 H   0  0  0  0  0
    4.6358    3.9482   -2.0107 H   0  0  0  0  0
    4.0323    5.0312    1.2152 C   0  0  0  0  0
    3.7512    4.5914    2.1779 H   0  0  0  0  0
    3.2413    5.7440    0.9596 H   0  0  0  0  0
    4.9660    5.5846    1.3580 H   0  0  0  0  0
    5.1552    2.6853    1.5928 H   0  0  0  0  0
  1  2  2  0  0  0
  2  3  1  0  0  0
  2 10  1  0  0  0
  3  4  1  0  0  0
  3  6  1  0  0  0
  3 86  1  0  0  0
  4  5  1  0  0  0
  6  7  1  0  0  0
  6 78  1  0  0  0
  6 82  1  0  0  0
  7  8  1  0  0  0
  8  9  1  0  0  0
  8 63  1  0  0  0
  8 77  1  0  0  0
  9 10  1  0  0  0
  9 14  1  0  0  0
  9 73  1  0  0  0
 10 11  1  0  0  0
 10 13  1  0  0  0
 11 12  1  0  0  0
 14 15  1  0  0  0
 14 56  1  0  0  0
 14 72  1  0  0  0
 15 16  1  0  0  0
 15 62  1  0  0  0
 15 68  1  0  0  0
 16 17  1  0  0  0
 16 55  1  0  0  0
 16 61  1  0  0  0
 17 18  1  0  0  0
 17 20  1  0  0  0
 17 43  1  0  0  0
 18 19  1  0  0  0
 20 21  1  0  0  0
 20 53  1  0  0  0
 20 54  1  0  0  0
 21 22  1  0  0  0
 21 37  1  0  0  0
 21 49  1  0  0  0
 22 23  1  0  0  0
 22 42  1  0  0  0
 22 48  1  0  0  0
 23 24  1  0  0  0
 23 26  1  0  0  0
 23 36  1  0  0  0
 24 25  1  0  0  0
 26 27  1  0  0  0
 26 31  1  0  0  0
 26 35  1  0  0  0
 27 28  1  0  0  0
 27 29  1  0  0  0
 27 30  1  0  0  0
 31 32  1  0  0  0
 31 33  1  0  0  0
 31 34  1  0  0  0
 36 37  1  0  0  0
 36 40  1  0  0  0
 36 41  1  0  0  0
 37 38  1  0  0  0
 37 39  1  0  0  0
 42 43  1  0  0  0
 42 46  1  0  0  0
 42 47  1  0  0  0
 43 44  1  0  0  0
 43 45  1  0  0  0
 49 50  1  0  0  0
 49 51  1  0  0  0
 49 52  1  0  0  0
 55 56  1  0  0  0
 55 59  1  0  0  0
 55 60  1  0  0  0
 56 57  1  0  0  0
 56 58  1  0  0  0
 62 63  1  0  0  0
 62 66  1  0  0  0
 62 67  1  0  0  0
 63 64  1  0  0  0
 63 65  1  0  0  0
 68 69  1  0  0  0
 68 70  1  0  0  0
 68 71  1  0  0  0
 73 74  1  0  0  0
 73 75  1  0  0  0
 73 76  1  0  0  0
 78 79  1  0  0  0
 78 80  1  0  0  0
 78 81  1  0  0  0
 82 83  1  0  0  0
 82 84  1  0  0  0
 82 85  1  0  0  0
M  END
> <Tumorigenic>
none

> <Score>
42.9993

> <Active/Decoy>
active

> <InChI>
InChI=1S/C30H50O6/c1-17(2)30(35)15-14-26(5)16-29(34,13-10-18(26)30)20-9-8-19-27(20,6)12-11-21-28(19,7)24(33)22(31)23(32)25(3,4)36-21/h17-21,23-24,32-35H,8-16H2,1-7H3/t18-,19-,20-,21-,23+,24+,26-,27-,28+,29-,30-/m0/s1

> <Matching Features>
H:14924486185440016873|HBA:149238150533300697|HBA:14924321692640012300|HBA:14924486112070016868

> <Mol. Index>
167

> <Pharmacophore Match>
Model -1

> <# Confs.>
25

> <Source Database>
Pharm-Screening-input-NANPDB_After_DataWarror.ldb

> <Pharmacophore-Fit Score>
43.0

> <formula>
C30H50O6

> <Mutagenic>
none

> <Reproductive Effective>
none

> <Irritant>
none

$$$$
subereamine A
XX    ILIB03122402103D

 46 46  0  0  1  0              1 V2000
    2.3296    0.3369    1.2320 Br  0  0  0  0  0
    1.8608    1.4400   -0.2431 C   0  0  0  0  0
    2.6993    1.5591   -1.3590 C   0  0  0  0  0
    3.8671    0.8491   -1.3387 O   0  0  0  0  0
    4.6905    0.9998   -2.4936 C   0  0  0  0  0
    4.1772    0.6407   -3.3925 H   0  0  0  0  0
    5.5798    0.3837   -2.3489 H   0  0  0  0  0
    5.0151    2.0370   -2.6156 H   0  0  0  0  0
    2.2960    2.3864   -2.4106 C   0  0  0  0  0
    1.0826    3.0826   -2.3474 C   0  0  0  0  0
    0.2414    2.9659   -1.2333 C   0  0  0  0  0
    0.6428    2.1354   -0.1727 C   0  0  0  0  0
    0.0107    2.0287    0.6978 H   0  0  0  0  0
   -1.0294    3.6817   -1.1193 C   0  0  0  0  0
   -2.2635    3.1745   -0.9792 C   0  0  0  0  0
   -2.6252    1.7330   -1.0030 C   0  0  0  0  0
   -2.1567    0.9447   -0.1894 O   0  0  0  0  0
   -3.4825    1.4311   -2.0405 N   0  0  0  0  0
   -3.9772    0.1036   -2.2878 C   0  0  1  0  0
   -5.3506    0.2102   -2.8929 C   0  0  0  0  0
   -6.0649   -0.7285   -3.2165 O   0  0  0  0  0
   -5.7340    1.5084   -3.0056 O   0  0  0  0  0
   -6.6273    1.5919   -3.4019 H   0  0  0  0  0
   -3.0314   -0.7075   -3.1706 C   0  0  0  0  0
   -1.6041   -0.9131   -2.6441 C   0  0  0  0  0
   -0.6540   -1.7184   -3.5403 C   0  0  0  0  0
    0.6539   -1.8404   -2.9347 N   0  0  0  0  0
    1.7294   -2.5056   -3.4897 C   0  0  0  0  0
    1.7004   -3.1131   -4.6422 N   0  0  0  0  0
    2.6252   -3.5216   -4.8204 H   0  0  0  0  0
    2.8527   -2.4665   -2.7041 N   0  0  0  0  0
    3.7153   -2.9169   -2.9932 H   0  0  0  0  0
    2.8580   -1.9851   -1.8111 H   0  0  0  0  0
    0.7839   -1.3797   -2.0383 H   0  0  0  0  0
   -0.5644   -1.2334   -4.5200 H   0  0  0  0  0
   -1.0624   -2.7201   -3.7173 H   0  0  0  0  0
   -1.6525   -1.3900   -1.6560 H   0  0  0  0  0
   -1.1643    0.0799   -2.4796 H   0  0  0  0  0
   -2.9817   -0.2311   -4.1591 H   0  0  0  0  0
   -3.4840   -1.6950   -3.3331 H   0  0  0  0  0
   -4.0765   -0.4009   -1.3044 H   0  0  0  0  0
   -3.7596    2.1635   -2.6874 H   0  0  0  0  0
   -3.0917    3.8723   -0.8762 H   0  0  0  0  0
   -0.9392    4.7664   -1.1451 H   0  0  0  0  0
    0.8144    3.7161   -3.1888 H   0  0  0  0  0
    2.9034    2.5185   -3.3017 H   0  0  0  0  0
  1  2  1  0  0  0
  2  3  2  0  0  0
  2 12  1  0  0  0
  3  4  1  0  0  0
  3  9  1  0  0  0
  4  5  1  0  0  0
  5  6  1  0  0  0
  5  7  1  0  0  0
  5  8  1  0  0  0
  9 10  2  0  0  0
  9 46  1  0  0  0
 10 11  1  0  0  0
 10 45  1  0  0  0
 11 12  2  0  0  0
 11 14  1  0  0  0
 12 13  1  0  0  0
 14 15  2  0  0  0
 14 44  1  0  0  0
 15 16  1  0  0  0
 15 43  1  0  0  0
 16 17  2  0  0  0
 16 18  1  0  0  0
 18 19  1  0  0  0
 18 42  1  0  0  0
 19 20  1  0  0  0
 19 24  1  0  0  0
 19 41  1  0  0  0
 20 21  2  0  0  0
 20 22  1  0  0  0
 22 23  1  0  0  0
 24 25  1  0  0  0
 24 39  1  0  0  0
 24 40  1  0  0  0
 25 26  1  0  0  0
 25 37  1  0  0  0
 25 38  1  0  0  0
 26 27  1  0  0  0
 26 35  1  0  0  0
 26 36  1  0  0  0
 27 28  1  0  0  0
 27 34  1  0  0  0
 28 29  2  0  0  0
 28 31  1  0  0  0
 29 30  1  0  0  0
 31 32  1  0  0  0
 31 33  1  0  0  0
M  END
> <Tumorigenic>
none

> <Score>
43.00406

> <Active/Decoy>
active

> <InChI>
InChI=1S/C16H21BrN4O4/c1-25-13-6-4-10(9-11(13)17)5-7-14(22)21-12(15(23)24)3-2-8-20-16(18)19/h4-7,9,12H,2-3,8H2,1H3,(H,21,22)(H,23,24)(H4,18,19,20)/b7-5+/t12-/m1/s1

> <Matching Features>
H:14924486185440016873|HBA:149238150533300697|HBA:14924321692640012300|HBA:14924486112070016868

> <Mol. Index>
85

> <Pharmacophore Match>
Model -1

> <# Confs.>
25

> <Source Database>
Pharm-Screening-input-NANPDB_After_DataWarror.ldb

> <Pharmacophore-Fit Score>
43.0

> <formula>
C16H21BrN4O4

> <Mutagenic>
none

> <Reproductive Effective>
none

> <Irritant>
none

$$$$
3,4-dihydroxy-3-(O-beta-D-glucopyranosyl)phenethanol
XX    ILIB03122402103D

 42 43  0  0  1  0              1 V2000
   -2.1051    0.8748   -1.1232 O   0  0  0  0  0
   -2.5088   -0.3202   -0.4385 C   0  0  1  0  0
   -2.0490   -0.3024    0.9114 O   0  0  0  0  0
   -0.7026   -0.2246    1.0964 C   0  0  0  0  0
   -0.2663   -0.2113    2.4317 C   0  0  0  0  0
   -1.1550   -0.2506    3.4729 O   0  0  0  0  0
   -2.0531   -0.2902    3.1003 H   0  0  0  0  0
    1.0878   -0.1310    2.7434 C   0  0  0  0  0
    2.0293   -0.0755    1.7174 C   0  0  0  0  0
    1.6226   -0.0846    0.3765 C   0  0  0  0  0
    0.2491   -0.1652    0.0803 C   0  0  0  0  0
   -0.0518   -0.1803   -0.9640 H   0  0  0  0  0
    2.6495   -0.0257   -0.7190 C   0  0  0  0  0
    2.9819    1.3944   -1.1632 C   0  0  0  0  0
    3.9548    1.3632   -2.1949 O   0  0  0  0  0
    4.1353    2.2848   -2.4445 H   0  0  0  0  0
    3.3657    1.9888   -0.3262 H   0  0  0  0  0
    2.0841    1.8959   -1.5376 H   0  0  0  0  0
    2.2719   -0.5947   -1.5765 H   0  0  0  0  0
    3.5623   -0.5419   -0.3911 H   0  0  0  0  0
    3.0845   -0.0125    1.9728 H   0  0  0  0  0
    1.4179   -0.1197    3.7779 H   0  0  0  0  0
   -4.0377   -0.3895   -0.4093 C   0  0  2  0  0
   -4.4313   -1.6459    0.1667 O   0  0  0  0  0
   -4.0611   -2.3600   -0.3806 H   0  0  0  0  0
   -4.6384   -0.2826   -1.8096 C   0  0  1  0  0
   -6.0497   -0.1087   -1.6715 O   0  0  0  0  0
   -6.4357   -0.1247   -2.5633 H   0  0  0  0  0
   -4.0492    0.9084   -2.5671 C   0  0  2  0  0
   -4.4483    0.8454   -3.9336 O   0  0  0  0  0
   -5.4131    0.9582   -3.9651 H   0  0  0  0  0
   -2.5200    0.8920   -2.4926 C   0  0  1  0  0
   -1.9149    2.1269   -3.1349 C   0  0  0  0  0
   -2.3716    3.2919   -2.4692 O   0  0  0  0  0
   -1.9601    4.0528   -2.9124 H   0  0  0  0  0
   -2.1842    2.1897   -4.1959 H   0  0  0  0  0
   -0.8215    2.0890   -3.0769 H   0  0  0  0  0
   -2.1128    0.0054   -2.9973 H   0  0  0  0  0
   -4.4404    1.8427   -2.1463 H   0  0  0  0  0
   -4.4925   -1.2130   -2.3723 H   0  0  0  0  0
   -4.4469    0.3826    0.2395 H   0  0  0  0  0
   -2.0812   -1.1964   -0.9314 H   0  0  0  0  0
  1  2  1  0  0  0
  1 32  1  0  0  0
  2  3  1  0  0  0
  2 23  1  0  0  0
  2 42  1  0  0  0
  3  4  1  0  0  0
  4  5  2  0  0  0
  4 11  1  0  0  0
  5  6  1  0  0  0
  5  8  1  0  0  0
  6  7  1  0  0  0
  8  9  2  0  0  0
  8 22  1  0  0  0
  9 10  1  0  0  0
  9 21  1  0  0  0
 10 11  2  0  0  0
 10 13  1  0  0  0
 11 12  1  0  0  0
 13 14  1  0  0  0
 13 19  1  0  0  0
 13 20  1  0  0  0
 14 15  1  0  0  0
 14 17  1  0  0  0
 14 18  1  0  0  0
 15 16  1  0  0  0
 23 24  1  0  0  0
 23 26  1  0  0  0
 23 41  1  0  0  0
 24 25  1  0  0  0
 26 27  1  0  0  0
 26 29  1  0  0  0
 26 40  1  0  0  0
 27 28  1  0  0  0
 29 30  1  0  0  0
 29 32  1  0  0  0
 29 39  1  0  0  0
 30 31  1  0  0  0
 32 33  1  0  0  0
 32 38  1  0  0  0
 33 34  1  0  0  0
 33 36  1  0  0  0
 33 37  1  0  0  0
 34 35  1  0  0  0
M  END
> <Tumorigenic>
none

> <Score>
42.993767

> <Active/Decoy>
active

> <InChI>
InChI=1S/C14H20O8/c15-4-3-7-1-2-8(17)9(5-7)21-14-13(20)12(19)11(18)10(6-16)22-14/h1-2,5,10-20H,3-4,6H2/t10-,11-,12+,13-,14-/m1/s1

> <Matching Features>
H:14924486185440016873|HBA:149238150533300697|HBA:14924321692640012300|HBA:14924486112070016868

> <Mol. Index>
1330

> <Pharmacophore Match>
Model -1

> <# Confs.>
25

> <Source Database>
Pharm-Screening-input-NANPDB_After_DataWarror.ldb

> <Pharmacophore-Fit Score>
42.99

> <formula>
C14H20O8

> <Mutagenic>
none

> <Reproductive Effective>
none

> <Irritant>
none

$$$$
crispioside B
XX    ILIB03122402103D

 77 81  0  0  1  0              1 V2000
   -2.4219    0.9781   -2.5443 O   0  0  0  0  0
   -1.9132    0.1811   -1.7664 C   0  0  0  0  0
   -2.1614   -1.1480   -1.6907 O   0  0  0  0  0
   -3.1173   -1.6601   -2.6477 C   0  0  2  0  0
   -4.3863   -1.0401   -2.4837 O   0  0  0  0  0
   -5.3566   -1.5047   -3.4271 C   0  0  1  0  0
   -5.6195   -2.9969   -3.2027 C   0  0  1  0  0
   -6.5199   -3.4628   -4.2019 O   0  0  0  0  0
   -6.7549   -4.3809   -3.9843 H   0  0  0  0  0
   -4.3159   -3.7931   -3.2803 C   0  0  2  0  0
   -4.5434   -5.1246   -2.8150 O   0  0  0  0  0
   -5.1640   -5.5488   -3.4304 H   0  0  0  0  0
   -3.2398   -3.1648   -2.4002 C   0  0  1  0  0
   -1.9878   -3.7965   -2.7203 O   0  0  0  0  0
   -1.3017   -3.3725   -2.1772 H   0  0  0  0  0
   -3.4355   -3.3704   -1.3506 H   0  0  0  0  0
   -3.9719   -3.8813   -4.3184 H   0  0  0  0  0
   -6.0914   -3.1574   -2.2250 H   0  0  0  0  0
   -6.6163   -0.6779   -3.2311 C   0  0  0  0  0
   -6.3539    0.6994   -3.4497 O   0  0  0  0  0
   -5.6670    0.9697   -2.8168 H   0  0  0  0  0
   -7.0120   -0.8061   -2.2178 H   0  0  0  0  0
   -7.4050   -0.9963   -3.9196 H   0  0  0  0  0
   -4.9806   -1.3221   -4.4427 H   0  0  0  0  0
   -2.7260   -1.4665   -3.6634 H   0  0  0  0  0
   -0.9244    0.5989   -0.6827 C   0  0  1  0  0
    0.4450   -0.1584   -0.9233 C   0  0  2  0  0
    1.6423    0.2877    0.0136 C   0  0  1  0  0
    3.0073   -0.4178   -0.4303 C   0  0  1  0  0
    3.3069   -0.5023   -1.9638 C   0  0  1  0  0
    3.9750    0.7751   -2.5564 C   0  0  0  0  0
    5.5050    0.5633   -2.4402 C   0  0  2  0  0
    6.1051    1.6328   -1.7157 O   0  0  0  0  0
    5.9180    2.4600   -2.1928 H   0  0  0  0  0
    6.1521    0.5272   -3.8144 C   0  0  0  0  0
    7.5532    0.3333   -3.7084 O   0  0  0  0  0
    7.9096    1.0695   -3.1828 H   0  0  0  0  0
    5.9648    1.4598   -4.3571 H   0  0  0  0  0
    5.7345   -0.2813   -4.4242 H   0  0  0  0  0
    5.6471   -0.7706   -1.6743 C   0  0  2  0  0
    4.4291   -1.5447   -2.1681 C   0  0  0  0  0
    4.5363   -1.8187   -3.2239 H   0  0  0  0  0
    4.2606   -2.4716   -1.6085 H   0  0  0  0  0
    5.5523   -0.6233   -0.1442 C   0  0  0  0  0
    4.2683    0.0755    0.3252 C   0  0  0  0  0
    4.3885    1.1558    0.1994 H   0  0  0  0  0
    4.1783   -0.0942    1.4025 H   0  0  0  0  0
    5.5898   -1.6235    0.3054 H   0  0  0  0  0
    6.4244   -0.0814    0.2399 H   0  0  0  0  0
    6.5766   -1.2978   -1.9182 H   0  0  0  0  0
    3.6907    0.8921   -3.6096 H   0  0  0  0  0
    3.6678    1.6911   -2.0537 H   0  0  0  0  0
    2.0616   -0.9269   -2.7307 C   0  0  0  0  0
    0.8700   -0.0411   -2.4130 C   0  0  0  0  0
    1.0895    0.9976   -2.6807 H   0  0  0  0  0
    0.0627   -0.3640   -3.0765 H   0  0  0  0  0
    1.8088   -1.9675   -2.4883 H   0  0  0  0  0
    2.2500   -0.9063   -3.8117 H   0  0  0  0  0
    2.8745   -1.4663   -0.1172 H   0  0  0  0  0
    1.7416    1.8342    0.0219 C   0  0  0  0  0
    0.4267    2.5563    0.2909 C   0  0  0  0  0
   -0.6845    2.1247   -0.6623 C   0  0  0  0  0
   -1.6095    2.6514   -0.3933 H   0  0  0  0  0
   -0.4224    2.4786   -1.6681 H   0  0  0  0  0
    0.1136    2.4122    1.3335 H   0  0  0  0  0
    0.5828    3.6365    0.1822 H   0  0  0  0  0
    2.0987    2.1967   -0.9428 H   0  0  0  0  0
    2.4704    2.1685    0.7686 H   0  0  0  0  0
    1.3813   -0.1927    1.4698 C   0  0  0  0  0
    1.1600   -1.2654    1.4971 H   0  0  0  0  0
    2.2423   -0.0195    2.1203 H   0  0  0  0  0
    0.5642    0.3271    1.9624 H   0  0  0  0  0
    0.2616   -1.2274   -0.7397 H   0  0  0  0  0
   -1.6542    0.1730    0.6142 C   0  0  0  0  0
   -1.5302   -0.8980    0.8067 H   0  0  0  0  0
   -1.3324    0.7236    1.4982 H   0  0  0  0  0
   -2.7335    0.3583    0.5394 H   0  0  0  0  0
  1  2  2  0  0  0
  2  3  1  0  0  0
  2 26  1  0  0  0
  3  4  1  0  0  0
  4  5  1  0  0  0
  4 13  1  0  0  0
  4 25  1  0  0  0
  5  6  1  0  0  0
  6  7  1  0  0  0
  6 19  1  0  0  0
  6 24  1  0  0  0
  7  8  1  0  0  0
  7 10  1  0  0  0
  7 18  1  0  0  0
  8  9  1  0  0  0
 10 11  1  0  0  0
 10 13  1  0  0  0
 10 17  1  0  0  0
 11 12  1  0  0  0
 13 14  1  0  0  0
 13 16  1  0  0  0
 14 15  1  0  0  0
 19 20  1  0  0  0
 19 22  1  0  0  0
 19 23  1  0  0  0
 20 21  1  0  0  0
 26 27  1  0  0  0
 26 62  1  0  0  0
 26 74  1  0  0  0
 27 28  1  0  0  0
 27 54  1  0  0  0
 27 73  1  0  0  0
 28 29  1  0  0  0
 28 60  1  0  0  0
 28 69  1  0  0  0
 29 30  1  0  0  0
 29 45  1  0  0  0
 29 59  1  0  0  0
 30 31  1  0  0  0
 30 41  1  0  0  0
 30 53  1  0  0  0
 31 32  1  0  0  0
 31 51  1  0  0  0
 31 52  1  0  0  0
 32 33  1  0  0  0
 32 35  1  0  0  0
 32 40  1  0  0  0
 33 34  1  0  0  0
 35 36  1  0  0  0
 35 38  1  0  0  0
 35 39  1  0  0  0
 36 37  1  0  0  0
 40 41  1  0  0  0
 40 44  1  0  0  0
 40 50  1  0  0  0
 41 42  1  0  0  0
 41 43  1  0  0  0
 44 45  1  0  0  0
 44 48  1  0  0  0
 44 49  1  0  0  0
 45 46  1  0  0  0
 45 47  1  0  0  0
 53 54  1  0  0  0
 53 57  1  0  0  0
 53 58  1  0  0  0
 54 55  1  0  0  0
 54 56  1  0  0  0
 60 61  1  0  0  0
 60 67  1  0  0  0
 60 68  1  0  0  0
 61 62  1  0  0  0
 61 65  1  0  0  0
 61 66  1  0  0  0
 62 63  1  0  0  0
 62 64  1  0  0  0
 69 70  1  0  0  0
 69 71  1  0  0  0
 69 72  1  0  0  0
 74 75  1  0  0  0
 74 76  1  0  0  0
 74 77  1  0  0  0
M  END
> <Tumorigenic>
none

> <Score>
42.89859

> <Active/Decoy>
active

> <InChI>
InChI=1S/C26H42O9/c1-23-7-3-8-24(2,22(32)35-21-20(31)19(30)18(29)15(11-27)34-21)16(23)6-9-25-10-14(4-5-17(23)25)26(33,12-25)13-28/h14-21,27-31,33H,3-13H2,1-2H3/t14-,15+,16-,17-,18+,19-,20+,21-,23-,24+,25+,26-/m0/s1

> <Matching Features>
H:14924486185440016873|HBA:149238150533300697|HBA:14924321692640012300|HBA:14924486112070016868

> <Mol. Index>
1149

> <Pharmacophore Match>
Model -1

> <# Confs.>
25

> <Source Database>
Pharm-Screening-input-NANPDB_After_DataWarror.ldb

> <Pharmacophore-Fit Score>
42.9

> <formula>
C26H42O9

> <Mutagenic>
none

> <Reproductive Effective>
none

> <Irritant>
none

$$$$
1alpha-hydroxypinoresinol
XX    ILIB03122402103D

 49 52  0  0  1  0              1 V2000
   -2.4164   -0.8929    0.6260 O   0  0  0  0  0
   -2.6580    0.2107   -0.2664 C   0  0  2  0  0
   -4.0014    0.1100   -0.9197 C   0  0  0  0  0
   -4.2459    0.6198   -2.1940 C   0  0  0  0  0
   -5.5060    0.5002   -2.7933 C   0  0  0  0  0
   -5.8340    0.9681   -4.0329 O   0  0  0  0  0
   -4.7835    1.6278   -4.7344 C   0  0  0  0  0
   -4.4508    2.5212   -4.1953 H   0  0  0  0  0
   -5.1787    1.9496   -5.7015 H   0  0  0  0  0
   -3.9466    0.9484   -4.9233 H   0  0  0  0  0
   -6.5203   -0.1559   -2.1000 C   0  0  0  0  0
   -7.7749   -0.2963   -2.6294 O   0  0  0  0  0
   -7.7777    0.1256   -3.5068 H   0  0  0  0  0
   -6.3050   -0.6718   -0.8200 C   0  0  0  0  0
   -5.0484   -0.5459   -0.2307 C   0  0  0  0  0
   -4.8886   -0.9589    0.7620 H   0  0  0  0  0
   -7.1038   -1.1760   -0.2834 H   0  0  0  0  0
   -3.4256    1.1103   -2.7118 H   0  0  0  0  0
   -1.5023    0.2247   -1.2764 C   0  0  2  0  0
   -0.4020   -0.4855   -0.5294 C   0  0  1  0  0
    0.4860   -1.1312   -1.4241 O   0  0  0  0  0
    0.8713   -0.4584   -2.0102 H   0  0  0  0  0
    0.2630    0.6564    0.2562 C   0  0  2  0  0
    0.0642    1.8520   -0.5285 O   0  0  0  0  0
   -0.9070    1.5910   -1.5514 C   0  0  0  0  0
   -1.6498    2.3943   -1.5664 H   0  0  0  0  0
   -0.3759    1.5989   -2.5092 H   0  0  0  0  0
    1.7172    0.4515    0.5835 C   0  0  0  0  0
    2.7275    0.9046   -0.2849 C   0  0  0  0  0
    4.0794    0.7174    0.0283 C   0  0  0  0  0
    5.1303    1.1190   -0.7470 O   0  0  0  0  0
    4.7744    1.7717   -1.9645 C   0  0  0  0  0
    4.2047    1.1027   -2.6173 H   0  0  0  0  0
    5.7010    2.0372   -2.4815 H   0  0  0  0  0
    4.2225    2.6970   -1.7701 H   0  0  0  0  0
    4.4116    0.0758    1.2253 C   0  0  0  0  0
    5.7164   -0.1326    1.5818 O   0  0  0  0  0
    6.2835    0.2215    0.8737 H   0  0  0  0  0
    3.4248   -0.3743    2.0982 C   0  0  0  0  0
    2.0826   -0.1854    1.7779 C   0  0  0  0  0
    1.3203   -0.5400    2.4677 H   0  0  0  0  0
    3.6923   -0.8710    3.0262 H   0  0  0  0  0
    2.4321    1.4076   -1.2009 H   0  0  0  0  0
   -0.2708    0.8467    1.1968 H   0  0  0  0  0
   -1.1593   -1.4909    0.3077 C   0  0  0  0  0
   -0.6394   -1.7644    1.2296 H   0  0  0  0  0
   -1.3579   -2.4151   -0.2476 H   0  0  0  0  0
   -1.7788   -0.2726   -2.2127 H   0  0  0  0  0
   -2.6376    1.1202    0.3691 H   0  0  0  0  0
  1  2  1  0  0  0
  1 45  1  0  0  0
  2  3  1  0  0  0
  2 19  1  0  0  0
  2 49  1  0  0  0
  3  4  2  0  0  0
  3 15  1  0  0  0
  4  5  1  0  0  0
  4 18  1  0  0  0
  5  6  1  0  0  0
  5 11  2  0  0  0
  6  7  1  0  0  0
  7  8  1  0  0  0
  7  9  1  0  0  0
  7 10  1  0  0  0
 11 12  1  0  0  0
 11 14  1  0  0  0
 12 13  1  0  0  0
 14 15  2  0  0  0
 14 17  1  0  0  0
 15 16  1  0  0  0
 19 20  1  0  0  0
 19 25  1  0  0  0
 19 48  1  0  0  0
 20 21  1  0  0  0
 20 23  1  0  0  0
 20 45  1  0  0  0
 21 22  1  0  0  0
 23 24  1  0  0  0
 23 28  1  0  0  0
 23 44  1  0  0  0
 24 25  1  0  0  0
 25 26  1  0  0  0
 25 27  1  0  0  0
 28 29  2  0  0  0
 28 40  1  0  0  0
 29 30  1  0  0  0
 29 43  1  0  0  0
 30 31  1  0  0  0
 30 36  2  0  0  0
 31 32  1  0  0  0
 32 33  1  0  0  0
 32 34  1  0  0  0
 32 35  1  0  0  0
 36 37  1  0  0  0
 36 39  1  0  0  0
 37 38  1  0  0  0
 39 40  2  0  0  0
 39 42  1  0  0  0
 40 41  1  0  0  0
 45 46  1  0  0  0
 45 47  1  0  0  0
M  END
> <Tumorigenic>
none

> <Score>
42.90119

> <Active/Decoy>
active

> <InChI>
InChI=1S/C20H22O7/c1-24-16-7-11(3-5-14(16)21)18-13-9-26-19(20(13,23)10-27-18)12-4-6-15(22)17(8-12)25-2/h3-8,13,18-19,21-23H,9-10H2,1-2H3/t13-,18-,19-,20-/m1/s1

> <Matching Features>
H:14924486185440016873|HBA:149238150533300697|HBA:14924321692640012300|HBA:14924486112070016868

> <Mol. Index>
222

> <Pharmacophore Match>
Model -1

> <# Confs.>
25

> <Source Database>
Pharm-Screening-input-NANPDB_After_DataWarror.ldb

> <Pharmacophore-Fit Score>
42.9

> <formula>
C20H22O7

> <Mutagenic>
none

> <Reproductive Effective>
none

> <Irritant>
none

$$$$
helioscopinolide C
XX    ILIB03122402103D

 50 53  0  0  1  0              1 V2000
    3.2206    1.3244   -2.0425 O   0  0  0  0  0
    2.5118    0.9661   -1.1006 C   0  0  0  0  0
    3.0787    0.1965    0.0718 C   0  0  1  0  0
    4.4629    0.5030    0.1699 O   0  0  0  0  0
    4.8965    0.1635   -0.6316 H   0  0  0  0  0
    2.3360    0.5261    1.3841 C   0  0  0  0  0
    0.8088    0.1523    1.2398 C   0  0  2  0  0
    0.1710    0.3745   -0.2149 C   0  0  1  0  0
   -1.2796    1.0039   -0.0889 C   0  0  2  0  0
   -2.1015    0.2933    0.9871 C   0  0  0  0  0
   -3.3210   -0.2347    0.7670 C   0  0  0  0  0
   -3.9126   -0.1926   -0.5373 C   0  0  0  0  0
   -5.1910   -0.2621   -0.9029 C   0  0  0  0  0
   -6.4327   -0.4535   -0.1191 C   0  0  0  0  0
   -6.2312   -0.5592    0.9505 H   0  0  0  0  0
   -7.1017    0.4017   -0.2488 H   0  0  0  0  0
   -6.9549   -1.3550   -0.4517 H   0  0  0  0  0
   -5.2025    0.0308   -2.3484 C   0  0  0  0  0
   -3.9261    0.2960   -2.7670 O   0  0  0  0  0
   -3.0240    0.0231   -1.6962 C   0  0  1  0  0
   -2.0671    1.1766   -1.4238 C   0  0  0  0  0
   -1.4121    1.3266   -2.2864 H   0  0  0  0  0
   -2.6510    2.1074   -1.3627 H   0  0  0  0  0
   -2.4798   -0.8923   -1.9477 H   0  0  0  0  0
   -6.1956    0.0679   -3.0532 O   0  0  0  0  0
   -3.8888   -0.6712    1.5817 H   0  0  0  0  0
   -1.4831    0.2270    2.3537 C   0  0  0  0  0
   -0.0542    0.7656    2.3678 C   0  0  0  0  0
   -0.0801    1.8581    2.2782 H   0  0  0  0  0
    0.3773    0.5467    3.3502 H   0  0  0  0  0
   -1.4726   -0.8155    2.6964 H   0  0  0  0  0
   -2.0864    0.8031    3.0650 H   0  0  0  0  0
   -1.1379    2.0346    0.2711 H   0  0  0  0  0
    1.0417    1.3157   -1.0738 C   0  0  0  0  0
    0.7043    1.3026   -2.1163 H   0  0  0  0  0
    0.9585    2.3500   -0.7244 H   0  0  0  0  0
    0.0925   -0.9990   -0.9199 C   0  0  0  0  0
    1.0558   -1.5160   -0.9283 H   0  0  0  0  0
   -0.2114   -0.8934   -1.9659 H   0  0  0  0  0
   -0.6203   -1.6682   -0.4258 H   0  0  0  0  0
    0.7576   -0.9334    1.4161 H   0  0  0  0  0
    2.5662    2.0018    1.7917 C   0  0  0  0  0
    2.1936    2.2033    2.8023 H   0  0  0  0  0
    2.0735    2.7050    1.1170 H   0  0  0  0  0
    3.6335    2.2530    1.8030 H   0  0  0  0  0
    2.9632   -0.3374    2.5119 C   0  0  0  0  0
    4.0264   -0.1124    2.6462 H   0  0  0  0  0
    2.4760   -0.1660    3.4761 H   0  0  0  0  0
    2.8796   -1.4056    2.2828 H   0  0  0  0  0
    2.9998   -0.8725   -0.1512 H   0  0  0  0  0
  1  2  2  0  0  0
  2  3  1  0  0  0
  2 34  1  0  0  0
  3  4  1  0  0  0
  3  6  1  0  0  0
  3 50  1  0  0  0
  4  5  1  0  0  0
  6  7  1  0  0  0
  6 42  1  0  0  0
  6 46  1  0  0  0
  7  8  1  0  0  0
  7 28  1  0  0  0
  7 41  1  0  0  0
  8  9  1  0  0  0
  8 34  1  0  0  0
  8 37  1  0  0  0
  9 10  1  0  0  0
  9 21  1  0  0  0
  9 33  1  0  0  0
 10 11  2  0  0  0
 10 27  1  0  0  0
 11 12  1  0  0  0
 11 26  1  0  0  0
 12 13  2  0  0  0
 12 20  1  0  0  0
 13 14  1  0  0  0
 13 18  1  0  0  0
 14 15  1  0  0  0
 14 16  1  0  0  0
 14 17  1  0  0  0
 18 19  1  0  0  0
 18 25  2  0  0  0
 19 20  1  0  0  0
 20 21  1  0  0  0
 20 24  1  0  0  0
 21 22  1  0  0  0
 21 23  1  0  0  0
 27 28  1  0  0  0
 27 31  1  0  0  0
 27 32  1  0  0  0
 28 29  1  0  0  0
 28 30  1  0  0  0
 34 35  1  0  0  0
 34 36  1  0  0  0
 37 38  1  0  0  0
 37 39  1  0  0  0
 37 40  1  0  0  0
 42 43  1  0  0  0
 42 44  1  0  0  0
 42 45  1  0  0  0
 46 47  1  0  0  0
 46 48  1  0  0  0
 46 49  1  0  0  0
M  END
> <Tumorigenic>
none

> <Score>
42.87642

> <Active/Decoy>
active

> <InChI>
InChI=1S/C20H26O4/c1-10-12-7-11-5-6-16-19(2,3)17(22)14(21)9-20(16,4)13(11)8-15(12)24-18(10)23/h7,13,15-17,22H,5-6,8-9H2,1-4H3/t13-,15-,16+,17+,20+/m0/s1

> <Matching Features>
H:14924486185440016873|HBA:149238150533300697|HBA:14924321692640012300|HBA:14924486112070016868

> <Mol. Index>
477

> <Pharmacophore Match>
Model -1

> <# Confs.>
6

> <Source Database>
Pharm-Screening-input-NANPDB_After_DataWarror.ldb

> <Pharmacophore-Fit Score>
42.88

> <formula>
C20H26O4

> <Mutagenic>
none

> <Reproductive Effective>
none

> <Irritant>
none

$$$$
diosmetin 7-O-beta-D-apiofuranoside
XX    ILIB03122402103D

 51 54  0  0  1  0              1 V2000
   -2.2366   -3.0996    2.7120 O   0  0  0  0  0
   -1.8739   -2.1542    2.0253 C   0  0  0  0  0
   -2.8034   -1.3545    1.2046 C   0  0  0  0  0
   -2.2795   -0.3003    0.4564 C   0  0  0  0  0
   -0.9444    0.0168    0.4398 O   0  0  0  0  0
   -0.0666   -0.7356    1.2030 C   0  0  0  0  0
   -0.4481   -1.7698    1.9695 C   0  0  0  0  0
    0.2397   -2.3631    2.5635 H   0  0  0  0  0
    1.3412   -0.3077    1.0950 C   0  0  0  0  0
    1.8213    0.2842   -0.0819 C   0  0  0  0  0
    3.1548    0.6966   -0.1814 C   0  0  0  0  0
    3.6033    1.2728   -1.3415 O   0  0  0  0  0
    2.8640    1.3200   -1.9719 H   0  0  0  0  0
    4.0461    0.5362    0.8816 C   0  0  0  0  0
    5.3232    0.9766    0.6756 O   0  0  0  0  0
    6.2116    0.8015    1.7754 C   0  0  0  0  0
    5.8781    1.3710    2.6494 H   0  0  0  0  0
    6.3338   -0.2585    2.0194 H   0  0  0  0  0
    7.1888    1.1896    1.4779 H   0  0  0  0  0
    3.5777   -0.0491    2.0576 C   0  0  0  0  0
    2.2437   -0.4649    2.1617 C   0  0  0  0  0
    1.9263   -0.9098    3.1031 H   0  0  0  0  0
    4.2202   -0.1995    2.9201 H   0  0  0  0  0
    1.1641    0.4277   -0.9363 H   0  0  0  0  0
   -3.1125    0.4917   -0.3426 C   0  0  0  0  0
   -4.4876    0.2574   -0.3824 C   0  0  0  0  0
   -5.4097    0.9425   -1.1059 O   0  0  0  0  0
   -4.9193    1.5297   -2.3299 C   0  0  1  0  0
   -4.4083    0.5352   -3.2431 O   0  0  0  0  0
   -5.3997    0.2660   -4.2584 C   0  0  0  0  0
   -6.6672    1.0065   -3.8492 C   0  0  1  0  0
   -7.4046    0.1574   -2.9670 O   0  0  0  0  0
   -8.1886    0.6482   -2.6669 H   0  0  0  0  0
   -6.0746    2.1792   -3.0857 C   0  0  1  0  0
   -6.9933    2.8511   -2.2533 O   0  0  0  0  0
   -7.2823    2.2301   -1.5643 H   0  0  0  0  0
   -5.6665    2.9058   -3.7998 H   0  0  0  0  0
   -7.5680    1.4048   -5.0036 C   0  0  0  0  0
   -8.7147    2.0860   -4.5052 O   0  0  0  0  0
   -8.4000    2.8539   -3.9993 H   0  0  0  0  0
   -7.0596    2.0757   -5.7048 H   0  0  0  0  0
   -7.9188    0.5237   -5.5511 H   0  0  0  0  0
   -4.9927    0.6376   -5.2048 H   0  0  0  0  0
   -5.5350   -0.8175   -4.3250 H   0  0  0  0  0
   -4.1403    2.2728   -2.1144 H   0  0  0  0  0
   -5.0161   -0.8029    0.3797 C   0  0  0  0  0
   -4.1804   -1.5948    1.1732 C   0  0  0  0  0
   -4.7231   -2.6203    1.8968 O   0  0  0  0  0
   -5.6821   -2.6458    1.7371 H   0  0  0  0  0
   -6.0840   -1.0063    0.3426 H   0  0  0  0  0
   -2.6683    1.3166   -0.8936 H   0  0  0  0  0
  1  2  2  0  0  0
  2  3  1  0  0  0
  2  7  1  0  0  0
  3  4  2  0  0  0
  3 47  1  0  0  0
  4  5  1  0  0  0
  4 25  1  0  0  0
  5  6  1  0  0  0
  6  7  2  0  0  0
  6  9  1  0  0  0
  7  8  1  0  0  0
  9 10  2  0  0  0
  9 21  1  0  0  0
 10 11  1  0  0  0
 10 24  1  0  0  0
 11 12  1  0  0  0
 11 14  2  0  0  0
 12 13  1  0  0  0
 14 15  1  0  0  0
 14 20  1  0  0  0
 15 16  1  0  0  0
 16 17  1  0  0  0
 16 18  1  0  0  0
 16 19  1  0  0  0
 20 21  2  0  0  0
 20 23  1  0  0  0
 21 22  1  0  0  0
 25 26  2  0  0  0
 25 51  1  0  0  0
 26 27  1  0  0  0
 26 46  1  0  0  0
 27 28  1  0  0  0
 28 29  1  0  0  0
 28 34  1  0  0  0
 28 45  1  0  0  0
 29 30  1  0  0  0
 30 31  1  0  0  0
 30 43  1  0  0  0
 30 44  1  0  0  0
 31 32  1  0  0  0
 31 34  1  0  0  0
 31 38  1  0  0  0
 32 33  1  0  0  0
 34 35  1  0  0  0
 34 37  1  0  0  0
 35 36  1  0  0  0
 38 39  1  0  0  0
 38 41  1  0  0  0
 38 42  1  0  0  0
 39 40  1  0  0  0
 46 47  2  0  0  0
 46 50  1  0  0  0
 47 48  1  0  0  0
 48 49  1  0  0  0
M  END
> <Tumorigenic>
none

> <Score>
42.86797

> <Active/Decoy>
active

> <InChI>
InChI=1S/C21H20O10/c1-28-15-3-2-10(4-12(15)23)16-7-14(25)18-13(24)5-11(6-17(18)31-16)30-20-19(26)21(27,8-22)9-29-20/h2-7,19-20,22-24,26-27H,8-9H2,1H3/t19-,20+,21+/m0/s1

> <Matching Features>
H:14924486185440016873|HBA:149238150533300697|HBA:14924321692640012300|HBA:14924486112070016868

> <Mol. Index>
104

> <Pharmacophore Match>
Model -1

> <# Confs.>
25

> <Source Database>
Pharm-Screening-input-NANPDB_After_DataWarror.ldb

> <Pharmacophore-Fit Score>
42.87

> <formula>
C21H20O10

> <Mutagenic>
none

> <Reproductive Effective>
none

> <Irritant>
none

$$$$
3beta-hydroxy-8alpha-(3,4-dimethoxybenzoyloxy)-11beta,13-dihydro-1alphaH,5alphaH,6betaH,7alphaH-guai-4(15),10(14)-dien-6,12-olide
XX    ILIB03122402103D

 59 62  0  0  1  0              1 V2000
    3.2485    1.3494   -2.0994 O   0  0  0  0  0
    2.3014    1.4744   -1.3402 C   0  0  0  0  0
    2.3331    1.1509   -0.0175 O   0  0  0  0  0
    1.0797    1.4627    0.6273 C   0  0  1  0  0
    0.0835    1.5524   -0.5260 C   0  0  1  0  0
   -1.1162    2.4716   -0.2827 C   0  0  1  0  0
   -2.1441    2.1234   -1.2259 O   0  0  0  0  0
   -2.5468    3.0820   -2.0982 C   0  0  0  0  0
   -2.1379    4.2428   -2.1486 O   0  0  0  0  0
   -3.5993    2.5688   -2.9933 C   0  0  0  0  0
   -4.4669    1.5416   -2.6131 C   0  0  0  0  0
   -5.4414    1.0867   -3.5094 C   0  0  0  0  0
   -6.2503    0.0705   -3.0867 O   0  0  0  0  0
   -7.4811    0.4785   -2.4945 C   0  0  0  0  0
   -7.3062    1.0700   -1.5897 H   0  0  0  0  0
   -8.0248   -0.4250   -2.2037 H   0  0  0  0  0
   -8.1018    1.0279   -3.2101 H   0  0  0  0  0
   -5.5289    1.6073   -4.8079 C   0  0  0  0  0
   -6.4782    1.0575   -5.6229 O   0  0  0  0  0
   -6.5444    1.6063   -6.9369 C   0  0  0  0  0
   -6.8058    2.6696   -6.9075 H   0  0  0  0  0
   -7.3393    1.0809   -7.4777 H   0  0  0  0  0
   -5.6082    1.4464   -7.4809 H   0  0  0  0  0
   -4.6463    2.6226   -5.1855 C   0  0  0  0  0
   -3.6854    3.0975   -4.2854 C   0  0  0  0  0
   -3.0147    3.8874   -4.6141 H   0  0  0  0  0
   -4.6686    3.0656   -6.1763 H   0  0  0  0  0
   -4.4181    1.0946   -1.6240 H   0  0  0  0  0
   -1.7225    2.4032    1.1325 C   0  0  0  0  0
   -1.7702    1.0148    1.7207 C   0  0  0  0  0
   -0.5490    0.4807    2.4344 C   0  0  1  0  0
    0.7542    0.3242    1.6167 C   0  0  2  0  0
    1.7889    0.2125    2.7276 C   0  0  0  0  0
    2.9895   -0.3663    2.6027 C   0  0  0  0  0
    3.6605   -0.4525    3.4527 H   0  0  0  0  0
    3.3238   -0.7754    1.6563 H   0  0  0  0  0
    1.2395    0.7258    4.0320 C   0  0  1  0  0
    2.0673    1.7176    4.6137 O   0  0  0  0  0
    2.2386    2.4027    3.9449 H   0  0  0  0  0
   -0.1174    1.3084    3.6545 C   0  0  0  0  0
   -0.0266    2.3782    3.4380 H   0  0  0  0  0
   -0.8320    1.2139    4.4804 H   0  0  0  0  0
    1.1163   -0.0987    4.7437 H   0  0  0  0  0
    0.7240   -0.6275    1.0682 H   0  0  0  0  0
   -0.7967   -0.5236    2.8180 H   0  0  0  0  0
   -2.8966    0.2865    1.6414 C   0  0  0  0  0
   -2.9617   -0.7075    2.0708 H   0  0  0  0  0
   -3.7805    0.6677    1.1423 H   0  0  0  0  0
   -1.1535    3.0651    1.7933 H   0  0  0  0  0
   -2.7352    2.8260    1.1193 H   0  0  0  0  0
   -0.8219    3.5164   -0.4532 H   0  0  0  0  0
    0.9521    2.0336   -1.6935 C   0  0  2  0  0
    0.4808    1.5373   -3.0507 C   0  0  0  0  0
    0.4095    0.4445   -3.0752 H   0  0  0  0  0
   -0.4978    1.9514   -3.3078 H   0  0  0  0  0
    1.1839    1.8326   -3.8372 H   0  0  0  0  0
    1.0472    3.1259   -1.6969 H   0  0  0  0  0
   -0.2771    0.5417   -0.7709 H   0  0  0  0  0
    1.2101    2.4222    1.1423 H   0  0  0  0  0
  1  2  2  0  0  0
  2  3  1  0  0  0
  2 52  1  0  0  0
  3  4  1  0  0  0
  4  5  1  0  0  0
  4 32  1  0  0  0
  4 59  1  0  0  0
  5  6  1  0  0  0
  5 52  1  0  0  0
  5 58  1  0  0  0
  6  7  1  0  0  0
  6 29  1  0  0  0
  6 51  1  0  0  0
  7  8  1  0  0  0
  8  9  2  0  0  0
  8 10  1  0  0  0
 10 11  2  0  0  0
 10 25  1  0  0  0
 11 12  1  0  0  0
 11 28  1  0  0  0
 12 13  1  0  0  0
 12 18  2  0  0  0
 13 14  1  0  0  0
 14 15  1  0  0  0
 14 16  1  0  0  0
 14 17  1  0  0  0
 18 19  1  0  0  0
 18 24  1  0  0  0
 19 20  1  0  0  0
 20 21  1  0  0  0
 20 22  1  0  0  0
 20 23  1  0  0  0
 24 25  2  0  0  0
 24 27  1  0  0  0
 25 26  1  0  0  0
 29 30  1  0  0  0
 29 49  1  0  0  0
 29 50  1  0  0  0
 30 31  1  0  0  0
 30 46  2  0  0  0
 31 32  1  0  0  0
 31 40  1  0  0  0
 31 45  1  0  0  0
 32 33  1  0  0  0
 32 44  1  0  0  0
 33 34  2  0  0  0
 33 37  1  0  0  0
 34 35  1  0  0  0
 34 36  1  0  0  0
 37 38  1  0  0  0
 37 40  1  0  0  0
 37 43  1  0  0  0
 38 39  1  0  0  0
 40 41  1  0  0  0
 40 42  1  0  0  0
 46 47  1  0  0  0
 46 48  1  0  0  0
 52 53  1  0  0  0
 52 57  1  0  0  0
 53 54  1  0  0  0
 53 55  1  0  0  0
 53 56  1  0  0  0
M  END
> <Tumorigenic>
none

> <Score>
42.861774

> <Active/Decoy>
active

> <InChI>
InChI=1S/C24H28O7/c1-11-8-19(30-24(27)14-6-7-17(28-4)18(9-14)29-5)21-13(3)23(26)31-22(21)20-12(2)16(25)10-15(11)20/h6-7,9,13,15-16,19-22,25H,1-2,8,10H2,3-5H3/t13-,15-,16-,19-,20-,21+,22+/m0/s1

> <Matching Features>
H:14924486185440016873|HBA:149238150533300697|HBA:14924321692640012300|HBA:14924486112070016868

> <Mol. Index>
1129

> <Pharmacophore Match>
Model -1

> <# Confs.>
25

> <Source Database>
Pharm-Screening-input-NANPDB_After_DataWarror.ldb

> <Pharmacophore-Fit Score>
42.86

> <formula>
C24H28O7

> <Mutagenic>
none

> <Reproductive Effective>
none

> <Irritant>
none

$$$$
(?)-pinoresinol
XX    ILIB03122402103D

 48 51  0  0  1  0              1 V2000
   -2.6505    0.1581    1.1358 O   0  0  0  0  0
   -2.6447   -0.3191   -0.2147 C   0  0  1  0  0
   -4.0121   -0.1559   -0.8360 C   0  0  0  0  0
   -4.1356    0.0598   -2.2290 C   0  0  0  0  0
   -5.3975    0.2168   -2.8133 C   0  0  0  0  0
   -5.6285    0.4239   -4.1432 O   0  0  0  0  0
   -4.4636    0.4805   -4.9632 C   0  0  0  0  0
   -3.8188    1.3190   -4.6755 H   0  0  0  0  0
   -3.9132   -0.4665   -4.9345 H   0  0  0  0  0
   -4.7889    0.6466   -5.9941 H   0  0  0  0  0
   -6.5337    0.1621   -1.9870 C   0  0  0  0  0
   -7.7889    0.2920   -2.5148 O   0  0  0  0  0
   -7.7077    0.3927   -3.4793 H   0  0  0  0  0
   -6.4179   -0.0377   -0.6203 C   0  0  0  0  0
   -5.1579   -0.1889   -0.0469 C   0  0  0  0  0
   -5.0778   -0.3394    1.0268 H   0  0  0  0  0
   -7.3041   -0.0755    0.0070 H   0  0  0  0  0
   -3.2298    0.0942   -2.8291 H   0  0  0  0  0
   -1.5521    0.4598   -0.9739 C   0  0  2  0  0
   -0.6727   -0.3941   -1.8591 C   0  0  0  0  0
    0.2940   -1.0209   -1.0061 O   0  0  0  0  0
    0.3068   -0.3429    0.2670 C   0  0  1  0  0
    1.7114    0.0289    0.6525 C   0  0  0  0  0
    2.6661    0.3072   -0.3401 C   0  0  0  0  0
    3.9792    0.6499    0.0087 C   0  0  0  0  0
    4.9775    0.9399   -0.8772 O   0  0  0  0  0
    4.6124    0.8719   -2.2525 C   0  0  0  0  0
    4.3024   -0.1416   -2.5301 H   0  0  0  0  0
    3.8295    1.6002   -2.4895 H   0  0  0  0  0
    5.4967    1.1266   -2.8448 H   0  0  0  0  0
    4.3206    0.7119    1.3633 C   0  0  0  0  0
    5.5854    1.0545    1.7616 O   0  0  0  0  0
    6.1089    1.2512    0.9651 H   0  0  0  0  0
    3.3881    0.4262    2.3573 C   0  0  0  0  0
    2.0849    0.0820    2.0006 C   0  0  0  0  0
    1.3625   -0.1414    2.7814 H   0  0  0  0  0
    3.6656    0.4712    3.4065 H   0  0  0  0  0
    2.3586    0.2519   -1.3804 H   0  0  0  0  0
   -0.6216    0.8718    0.1337 C   0  0  2  0  0
   -1.5547    1.0795    1.3051 C   0  0  0  0  0
   -1.9700    2.0930    1.2975 H   0  0  0  0  0
   -1.0825    0.9067    2.2757 H   0  0  0  0  0
   -0.0632    1.7834   -0.1076 H   0  0  0  0  0
   -0.0810   -1.0679    0.9942 H   0  0  0  0  0
   -0.1227    0.2246   -2.5769 H   0  0  0  0  0
   -1.2231   -1.1593   -2.4149 H   0  0  0  0  0
   -1.9626    1.3185   -1.5158 H   0  0  0  0  0
   -2.4118   -1.3848   -0.1629 H   0  0  0  0  0
  1  2  1  0  0  0
  1 40  1  0  0  0
  2  3  1  0  0  0
  2 19  1  0  0  0
  2 48  1  0  0  0
  3  4  2  0  0  0
  3 15  1  0  0  0
  4  5  1  0  0  0
  4 18  1  0  0  0
  5  6  1  0  0  0
  5 11  2  0  0  0
  6  7  1  0  0  0
  7  8  1  0  0  0
  7  9  1  0  0  0
  7 10  1  0  0  0
 11 12  1  0  0  0
 11 14  1  0  0  0
 12 13  1  0  0  0
 14 15  2  0  0  0
 14 17  1  0  0  0
 15 16  1  0  0  0
 19 20  1  0  0  0
 19 39  1  0  0  0
 19 47  1  0  0  0
 20 21  1  0  0  0
 20 45  1  0  0  0
 20 46  1  0  0  0
 21 22  1  0  0  0
 22 23  1  0  0  0
 22 39  1  0  0  0
 22 44  1  0  0  0
 23 24  2  0  0  0
 23 35  1  0  0  0
 24 25  1  0  0  0
 24 38  1  0  0  0
 25 26  1  0  0  0
 25 31  2  0  0  0
 26 27  1  0  0  0
 27 28  1  0  0  0
 27 29  1  0  0  0
 27 30  1  0  0  0
 31 32  1  0  0  0
 31 34  1  0  0  0
 32 33  1  0  0  0
 34 35  2  0  0  0
 34 37  1  0  0  0
 35 36  1  0  0  0
 39 40  1  0  0  0
 39 43  1  0  0  0
 40 41  1  0  0  0
 40 42  1  0  0  0
M  END
> <Tumorigenic>
none

> <Score>
42.86243

> <Active/Decoy>
active

> <InChI>
InChI=1S/C20H22O6/c1-23-17-7-11(3-5-15(17)21)19-13-9-26-20(14(13)10-25-19)12-4-6-16(22)18(8-12)24-2/h3-8,13-14,19-22H,9-10H2,1-2H3/t13-,14-,19+,20+/m1/s1

> <Matching Features>
H:14924486185440016873|HBA:149238150533300697|HBA:14924321692640012300|HBA:14924486112070016868

> <Mol. Index>
981

> <Pharmacophore Match>
Model -1

> <# Confs.>
25

> <Source Database>
Pharm-Screening-input-NANPDB_After_DataWarror.ldb

> <Pharmacophore-Fit Score>
42.86

> <formula>
C20H22O6

> <Mutagenic>
none

> <Reproductive Effective>
none

> <Irritant>
none

$$$$
tanzawaic acid H
XX    ILIB03122402103D

 48 49  0  0  1  0              1 V2000
    3.6147    1.5704   -2.5449 O   0  0  0  0  0
    4.5801    0.8247   -2.4727 C   0  0  0  0  0
    5.8647    1.2403   -2.5866 O   0  0  0  0  0
    6.5572    0.5490   -2.5118 H   0  0  0  0  0
    4.5135   -0.6286   -2.2457 C   0  0  0  0  0
    3.5708   -1.2887   -1.5702 C   0  0  0  0  0
    2.4219   -0.7856   -0.8756 C   0  0  0  0  0
    1.5145   -1.5170   -0.2142 C   0  0  0  0  0
    0.3463   -0.9340    0.5166 C   0  0  1  0  0
    0.8583    0.0018    1.6109 C   0  0  0  0  0
    0.4236    1.2656    1.7412 C   0  0  0  0  0
   -0.6623    1.8512    0.8988 C   0  0  2  0  0
   -1.4372    2.7366    1.7078 O   0  0  0  0  0
   -1.8574    2.2135    2.4131 H   0  0  0  0  0
   -1.5767    0.7654    0.3061 C   0  0  2  0  0
   -0.7443   -0.3126   -0.4335 C   0  0  2  0  0
   -1.7112   -1.3834   -1.0350 C   0  0  1  0  0
   -2.7680   -0.7251   -1.9446 C   0  0  0  0  0
   -3.5706    0.3553   -1.2122 C   0  0  2  0  0
   -4.5830    1.0145   -2.1319 C   0  0  0  0  0
   -5.4932    0.0359   -2.6236 O   0  0  0  0  0
   -5.9094   -0.3860   -1.8537 H   0  0  0  0  0
   -5.1652    1.7809   -1.6116 H   0  0  0  0  0
   -4.0898    1.4713   -2.9950 H   0  0  0  0  0
   -2.6295    1.4029   -0.6156 C   0  0  0  0  0
   -2.1294    1.9556   -1.4214 H   0  0  0  0  0
   -3.2232    2.1359   -0.0529 H   0  0  0  0  0
   -4.1206   -0.1351   -0.3978 H   0  0  0  0  0
   -3.4527   -1.4962   -2.3193 H   0  0  0  0  0
   -2.2741   -0.2891   -2.8234 H   0  0  0  0  0
   -1.0188   -2.4938   -1.8295 C   0  0  0  0  0
   -0.3981   -2.0837   -2.6315 H   0  0  0  0  0
   -1.7587   -3.1590   -2.2900 H   0  0  0  0  0
   -0.3997   -3.1229   -1.1840 H   0  0  0  0  0
   -2.2436   -1.8659   -0.2036 H   0  0  0  0  0
   -0.2452    0.1929   -1.2725 H   0  0  0  0  0
   -2.1245    0.2825    1.1306 H   0  0  0  0  0
   -0.2094    2.4571    0.1066 H   0  0  0  0  0
    0.8467    1.9037    2.5138 H   0  0  0  0  0
    1.8662   -0.5510    2.5854 C   0  0  0  0  0
    2.0468    0.1320    3.4231 H   0  0  0  0  0
    1.5046   -1.4937    3.0088 H   0  0  0  0  0
    2.8275   -0.7307    2.0958 H   0  0  0  0  0
   -0.1419   -1.7673    1.0416 H   0  0  0  0  0
    1.6116   -2.6000   -0.1901 H   0  0  0  0  0
    2.3270    0.3072   -0.8759 H   0  0  0  0  0
    3.6786   -2.3798   -1.5304 H   0  0  0  0  0
    5.3100   -1.2143   -2.7023 H   0  0  0  0  0
  1  2  2  0  0  0
  2  3  1  0  0  0
  2  5  1  0  0  0
  3  4  1  0  0  0
  5  6  2  0  0  0
  5 48  1  0  0  0
  6  7  1  0  0  0
  6 47  1  0  0  0
  7  8  2  0  0  0
  7 46  1  0  0  0
  8  9  1  0  0  0
  8 45  1  0  0  0
  9 10  1  0  0  0
  9 16  1  0  0  0
  9 44  1  0  0  0
 10 11  2  0  0  0
 10 40  1  0  0  0
 11 12  1  0  0  0
 11 39  1  0  0  0
 12 13  1  0  0  0
 12 15  1  0  0  0
 12 38  1  0  0  0
 13 14  1  0  0  0
 15 16  1  0  0  0
 15 25  1  0  0  0
 15 37  1  0  0  0
 16 17  1  0  0  0
 16 36  1  0  0  0
 17 18  1  0  0  0
 17 31  1  0  0  0
 17 35  1  0  0  0
 18 19  1  0  0  0
 18 29  1  0  0  0
 18 30  1  0  0  0
 19 20  1  0  0  0
 19 25  1  0  0  0
 19 28  1  0  0  0
 20 21  1  0  0  0
 20 23  1  0  0  0
 20 24  1  0  0  0
 21 22  1  0  0  0
 25 26  1  0  0  0
 25 27  1  0  0  0
 31 32  1  0  0  0
 31 33  1  0  0  0
 31 34  1  0  0  0
 40 41  1  0  0  0
 40 42  1  0  0  0
 40 43  1  0  0  0
M  END
> <Tumorigenic>
none

> <Score>
42.86151

> <Active/Decoy>
active

> <InChI>
InChI=1S/C18H26O4/c1-11-8-16(20)15-9-13(10-19)7-12(2)18(15)14(11)5-3-4-6-17(21)22/h3-6,8,12-16,18-20H,7,9-10H2,1-2H3,(H,21,22)/b5-3+,6-4+/t12-,13+,14+,15-,16+,18-/m1/s1

> <Matching Features>
H:14924486185440016873|HBA:149238150533300697|HBA:14924321692640012300|HBA:14924486112070016868

> <Mol. Index>
846

> <Pharmacophore Match>
Model -1

> <# Confs.>
25

> <Source Database>
Pharm-Screening-input-NANPDB_After_DataWarror.ldb

> <Pharmacophore-Fit Score>
42.86

> <formula>
C18H26O4

> <Mutagenic>
none

> <Reproductive Effective>
none

> <Irritant>
none

$$$$
apigenin-7-galacturonic acid methyl ester
XX    ILIB03122402103D

 53 56  0  0  1  0              1 V2000
    3.5135    1.5982   -2.6721 O   0  0  0  0  0
    2.5842    1.4207   -1.8961 C   0  0  0  0  0
    1.1966    1.8127   -2.2108 C   0  0  0  0  0
    0.2156    1.5661   -1.2515 C   0  0  0  0  0
    0.4785    0.9762   -0.0394 O   0  0  0  0  0
    1.7812    0.6067    0.2565 C   0  0  0  0  0
    2.8143    0.7917   -0.5805 C   0  0  0  0  0
    3.8328    0.5017   -0.3503 H   0  0  0  0  0
    1.9423   -0.0184    1.5841 C   0  0  0  0  0
    1.0926    0.3297    2.6497 C   0  0  0  0  0
    1.2370   -0.2539    3.9116 C   0  0  0  0  0
    2.2382   -1.1957    4.1221 C   0  0  0  0  0
    2.4073   -1.7825    5.3446 O   0  0  0  0  0
    1.7444   -1.4198    5.9555 H   0  0  0  0  0
    3.0948   -1.5588    3.0898 C   0  0  0  0  0
    2.9464   -0.9721    1.8294 C   0  0  0  0  0
    3.6374   -1.2761    1.0461 H   0  0  0  0  0
    3.8768   -2.2926    3.2524 H   0  0  0  0  0
    0.5636    0.0328    4.7133 H   0  0  0  0  0
    0.2965    1.0595    2.5160 H   0  0  0  0  0
   -1.1148    1.9192   -1.4908 C   0  0  0  0  0
   -1.4796    2.5313   -2.6974 C   0  0  0  0  0
   -2.8162    2.8332   -2.8222 O   0  0  0  0  0
   -3.3594    2.7968   -4.1432 C   0  0  1  0  0
   -3.2263    1.5230   -4.7858 O   0  0  0  0  0
   -4.3519    0.6583   -4.7423 C   0  0  1  0  0
   -4.5522    0.0481   -3.3825 C   0  0  0  0  0
   -5.6173    0.0699   -2.7793 O   0  0  0  0  0
   -3.3855   -0.4909   -2.9318 O   0  0  0  0  0
   -3.4487   -1.0762   -1.6274 C   0  0  0  0  0
   -4.1812   -1.8884   -1.6110 H   0  0  0  0  0
   -2.4636   -1.4862   -1.3904 H   0  0  0  0  0
   -3.7008   -0.3141   -0.8840 H   0  0  0  0  0
   -5.6192    1.3201   -5.3124 C   0  0  2  0  0
   -5.7792    0.9298   -6.6809 O   0  0  0  0  0
   -5.8850   -0.0363   -6.6974 H   0  0  0  0  0
   -5.5754    2.8465   -5.2805 C   0  0  1  0  0
   -6.9168    3.3284   -5.2047 O   0  0  0  0  0
   -6.8743    4.2985   -5.1501 H   0  0  0  0  0
   -4.7884    3.3128   -4.0684 C   0  0  2  0  0
   -4.7729    4.7396   -4.0344 O   0  0  0  0  0
   -4.2524    5.0054   -3.2569 H   0  0  0  0  0
   -5.2822    2.9869   -3.1448 H   0  0  0  0  0
   -5.1501    3.2565   -6.2038 H   0  0  0  0  0
   -6.5204    0.9633   -4.8016 H   0  0  0  0  0
   -4.0714   -0.1913   -5.3780 H   0  0  0  0  0
   -2.7667    3.5060   -4.7631 H   0  0  0  0  0
   -0.5021    2.7709   -3.6620 C   0  0  0  0  0
    0.8302    2.4159   -3.4193 C   0  0  0  0  0
    1.7163    2.6958   -4.4224 O   0  0  0  0  0
    2.6042    2.4069   -4.1554 H   0  0  0  0  0
   -0.7481    3.2383   -4.6116 H   0  0  0  0  0
   -1.8701    1.7217   -0.7329 H   0  0  0  0  0
  1  2  2  0  0  0
  2  3  1  0  0  0
  2  7  1  0  0  0
  3  4  2  0  0  0
  3 49  1  0  0  0
  4  5  1  0  0  0
  4 21  1  0  0  0
  5  6  1  0  0  0
  6  7  2  0  0  0
  6  9  1  0  0  0
  7  8  1  0  0  0
  9 10  2  0  0  0
  9 16  1  0  0  0
 10 11  1  0  0  0
 10 20  1  0  0  0
 11 12  2  0  0  0
 11 19  1  0  0  0
 12 13  1  0  0  0
 12 15  1  0  0  0
 13 14  1  0  0  0
 15 16  2  0  0  0
 15 18  1  0  0  0
 16 17  1  0  0  0
 21 22  2  0  0  0
 21 53  1  0  0  0
 22 23  1  0  0  0
 22 48  1  0  0  0
 23 24  1  0  0  0
 24 25  1  0  0  0
 24 40  1  0  0  0
 24 47  1  0  0  0
 25 26  1  0  0  0
 26 27  1  0  0  0
 26 34  1  0  0  0
 26 46  1  0  0  0
 27 28  2  0  0  0
 27 29  1  0  0  0
 29 30  1  0  0  0
 30 31  1  0  0  0
 30 32  1  0  0  0
 30 33  1  0  0  0
 34 35  1  0  0  0
 34 37  1  0  0  0
 34 45  1  0  0  0
 35 36  1  0  0  0
 37 38  1  0  0  0
 37 40  1  0  0  0
 37 44  1  0  0  0
 38 39  1  0  0  0
 40 41  1  0  0  0
 40 43  1  0  0  0
 41 42  1  0  0  0
 48 49  2  0  0  0
 48 52  1  0  0  0
 49 50  1  0  0  0
 50 51  1  0  0  0
M  END
> <Tumorigenic>
none

> <Score>
42.830208

> <Active/Decoy>
active

> <InChI>
InChI=1S/C22H20O11/c1-30-21(29)20-18(27)17(26)19(28)22(33-20)31-11-6-12(24)16-13(25)8-14(32-15(16)7-11)9-2-4-10(23)5-3-9/h2-8,17-20,22-24,26-28H,1H3/t17-,18-,19+,20-,22+/m1/s1

> <Matching Features>
H:14924486185440016873|HBA:149238150533300697|HBA:14924321692640012300|HBA:14924486112070016868

> <Mol. Index>
1096

> <Pharmacophore Match>
Model -1

> <# Confs.>
25

> <Source Database>
Pharm-Screening-input-NANPDB_After_DataWarror.ldb

> <Pharmacophore-Fit Score>
42.83

> <formula>
C22H20O11

> <Mutagenic>
none

> <Reproductive Effective>
none

> <Irritant>
none

$$$$
marmesinin
XX    ILIB03122402103D

 53 56  0  0  1  0              1 V2000
   -6.6874    0.6840   -3.5211 O   0  0  0  0  0
   -5.5521    1.0263   -3.2075 C   0  0  0  0  0
   -4.7353    0.2299   -2.4128 O   0  0  0  0  0
   -3.4305    0.6276   -2.0568 C   0  0  0  0  0
   -2.9159    1.8528   -2.5034 C   0  0  0  0  0
   -1.6198    2.2319   -2.1340 C   0  0  0  0  0
   -0.8846    1.3662   -1.3412 C   0  0  0  0  0
    0.4659    1.5425   -0.7616 C   0  0  0  0  0
    0.7283    0.0918   -0.2904 C   0  0  2  0  0
   -0.5669   -0.5524   -0.1178 O   0  0  0  0  0
   -1.4155    0.1584   -0.9134 C   0  0  0  0  0
   -2.6936   -0.2392   -1.2502 C   0  0  0  0  0
   -3.1028   -1.1811   -0.9051 H   0  0  0  0  0
    1.5349    0.0092    1.0221 C   0  0  0  0  0
    2.8010    0.6406    0.9344 O   0  0  0  0  0
    3.6411    0.0795   -0.0900 C   0  0  2  0  0
    4.4477   -0.9838    0.4285 O   0  0  0  0  0
    5.2907   -1.5711   -0.5659 C   0  0  1  0  0
    6.2989   -0.5308   -1.0658 C   0  0  1  0  0
    7.1077   -1.0865   -2.0976 O   0  0  0  0  0
    6.5194   -1.3771   -2.8158 H   0  0  0  0  0
    5.5747    0.7074   -1.5970 C   0  0  2  0  0
    6.5291    1.7401   -1.8539 O   0  0  0  0  0
    6.9683    1.9593   -1.0142 H   0  0  0  0  0
    4.5389    1.2155   -0.5947 C   0  0  1  0  0
    3.7366    2.2026   -1.2421 O   0  0  0  0  0
    3.0677    2.4984   -0.6014 H   0  0  0  0  0
    5.0392    1.7118    0.2459 H   0  0  0  0  0
    5.1007    0.4914   -2.5619 H   0  0  0  0  0
    6.9730   -0.2260   -0.2573 H   0  0  0  0  0
    5.9527   -2.7943    0.0451 C   0  0  0  0  0
    4.9822   -3.7417    0.4631 O   0  0  0  0  0
    4.4613   -3.3377    1.1780 H   0  0  0  0  0
    6.6061   -3.2766   -0.6896 H   0  0  0  0  0
    6.5843   -2.5262    0.8998 H   0  0  0  0  0
    4.6654   -1.9247   -1.3959 H   0  0  0  0  0
    3.0131   -0.2897   -0.9149 H   0  0  0  0  0
    1.6839   -1.4626    1.4866 C   0  0  0  0  0
    0.7093   -1.9205    1.6872 H   0  0  0  0  0
    2.1952   -2.0775    0.7383 H   0  0  0  0  0
    2.2885   -1.5212    2.3992 H   0  0  0  0  0
    0.7999    0.7759    2.1351 C   0  0  0  0  0
    1.3397    0.7029    3.0848 H   0  0  0  0  0
    0.7415    1.8446    1.8991 H   0  0  0  0  0
   -0.2153    0.3980    2.2931 H   0  0  0  0  0
    1.2536   -0.4524   -1.0805 H   0  0  0  0  0
    0.4251    2.2600    0.0634 H   0  0  0  0  0
    1.2115    1.8630   -1.4937 H   0  0  0  0  0
   -1.1969    3.1804   -2.4484 H   0  0  0  0  0
   -3.7564    2.7001   -3.3311 C   0  0  0  0  0
   -4.9895    2.3122   -3.6606 C   0  0  0  0  0
   -5.6214    2.9423   -4.2789 H   0  0  0  0  0
   -3.3666    3.6524   -3.6766 H   0  0  0  0  0
  1  2  2  0  0  0
  2  3  1  0  0  0
  2 51  1  0  0  0
  3  4  1  0  0  0
  4  5  2  0  0  0
  4 12  1  0  0  0
  5  6  1  0  0  0
  5 50  1  0  0  0
  6  7  2  0  0  0
  6 49  1  0  0  0
  7  8  1  0  0  0
  7 11  1  0  0  0
  8  9  1  0  0  0
  8 47  1  0  0  0
  8 48  1  0  0  0
  9 10  1  0  0  0
  9 14  1  0  0  0
  9 46  1  0  0  0
 10 11  1  0  0  0
 11 12  2  0  0  0
 12 13  1  0  0  0
 14 15  1  0  0  0
 14 38  1  0  0  0
 14 42  1  0  0  0
 15 16  1  0  0  0
 16 17  1  0  0  0
 16 25  1  0  0  0
 16 37  1  0  0  0
 17 18  1  0  0  0
 18 19  1  0  0  0
 18 31  1  0  0  0
 18 36  1  0  0  0
 19 20  1  0  0  0
 19 22  1  0  0  0
 19 30  1  0  0  0
 20 21  1  0  0  0
 22 23  1  0  0  0
 22 25  1  0  0  0
 22 29  1  0  0  0
 23 24  1  0  0  0
 25 26  1  0  0  0
 25 28  1  0  0  0
 26 27  1  0  0  0
 31 32  1  0  0  0
 31 34  1  0  0  0
 31 35  1  0  0  0
 32 33  1  0  0  0
 38 39  1  0  0  0
 38 40  1  0  0  0
 38 41  1  0  0  0
 42 43  1  0  0  0
 42 44  1  0  0  0
 42 45  1  0  0  0
 50 51  2  0  0  0
 50 53  1  0  0  0
 51 52  1  0  0  0
M  END
> <Tumorigenic>
none

> <Score>
42.82734

> <Active/Decoy>
active

> <InChI>
InChI=1S/C20H24O9/c1-20(2,29-19-18(25)17(24)16(23)13(8-21)28-19)14-6-10-5-9-3-4-15(22)27-11(9)7-12(10)26-14/h3-5,7,13-14,16-19,21,23-25H,6,8H2,1-2H3/t13-,14+,16-,17+,18-,19+/m1/s1

> <Matching Features>
H:14924486185440016873|HBA:149238150533300697|HBA:14924321692640012300|HBA:14924486112070016868

> <Mol. Index>
978

> <Pharmacophore Match>
Model -1

> <# Confs.>
10

> <Source Database>
Pharm-Screening-input-NANPDB_After_DataWarror.ldb

> <Pharmacophore-Fit Score>
42.83

> <formula>
C20H24O9

> <Mutagenic>
none

> <Reproductive Effective>
none

> <Irritant>
none

$$$$
13-hydroxyfeselol
XX    ILIB03122402103D

 59 62  0  0  1  0              1 V2000
    5.8993    1.4634   -1.3421 O   0  0  0  0  0
    5.0848    0.9598   -0.5788 C   0  0  0  0  0
    3.7154    1.1687   -0.7188 O   0  0  0  0  0
    2.7838    0.5936    0.1700 C   0  0  0  0  0
    3.2144   -0.2136    1.2179 C   0  0  0  0  0
    2.2621   -0.7584    2.0778 C   0  0  0  0  0
    0.9041   -0.4914    1.8781 C   0  0  0  0  0
    0.4816    0.3280    0.8288 C   0  0  0  0  0
    1.4322    0.8709   -0.0441 C   0  0  0  0  0
    1.1541    1.5074   -0.8781 H   0  0  0  0  0
   -0.8757    0.5023    0.7249 O   0  0  0  0  0
   -1.3058    1.7463    0.1868 C   0  0  0  0  0
   -2.8204    1.8184    0.1317 C   0  0  2  0  0
   -3.5209    0.6723   -0.7351 C   0  0  2  0  0
   -5.0563    1.0335   -0.8406 C   0  0  2  0  0
   -6.0557   -0.1096   -1.2914 C   0  0  2  0  0
   -5.7343   -1.3906   -0.4654 C   0  0  1  0  0
   -6.5440   -2.4871   -0.8881 O   0  0  0  0  0
   -6.3333   -3.2456   -0.3183 H   0  0  0  0  0
   -4.2708   -1.7952   -0.5590 C   0  0  0  0  0
   -3.3610   -0.6987   -0.0247 C   0  0  0  0  0
   -3.5601   -0.5819    1.0480 H   0  0  0  0  0
   -2.3328   -1.0636   -0.1115 H   0  0  0  0  0
   -4.0034   -2.0638   -1.5876 H   0  0  0  0  0
   -4.1079   -2.7112    0.0230 H   0  0  0  0  0
   -5.9802   -1.2090    0.5890 H   0  0  0  0  0
   -6.0832   -0.4379   -2.7735 C   0  0  0  0  0
   -6.4562    0.7117   -3.5161 O   0  0  0  0  0
   -6.4587    0.4555   -4.4539 H   0  0  0  0  0
   -6.7900   -1.2473   -2.9843 H   0  0  0  0  0
   -5.0939   -0.7706   -3.1068 H   0  0  0  0  0
   -7.5061    0.3191   -0.9155 C   0  0  0  0  0
   -7.8401    1.1925   -1.4824 H   0  0  0  0  0
   -7.5834    0.5661    0.1491 H   0  0  0  0  0
   -8.2235   -0.4843   -1.1157 H   0  0  0  0  0
   -5.2347    2.3765   -1.5750 C   0  0  0  0  0
   -4.3538    3.4528   -1.0244 C   0  0  0  0  0
   -3.2887    3.2343   -0.2350 C   0  0  0  0  0
   -2.5646    4.4125    0.3618 C   0  0  0  0  0
   -3.1025    5.3539    0.2021 H   0  0  0  0  0
   -1.5724    4.5259   -0.0858 H   0  0  0  0  0
   -2.4566    4.2851    1.4438 H   0  0  0  0  0
   -4.6419    4.4722   -1.2715 H   0  0  0  0  0
   -6.2683    2.7203   -1.4783 H   0  0  0  0  0
   -5.0202    2.2900   -2.6433 H   0  0  0  0  0
   -5.3530    1.2335    0.2036 H   0  0  0  0  0
   -2.8330    0.5892   -2.1196 C   0  0  0  0  0
   -2.8119    1.5535   -2.6348 H   0  0  0  0  0
   -3.3092   -0.1279   -2.7844 H   0  0  0  0  0
   -1.7943    0.2536   -2.0269 H   0  0  0  0  0
   -3.1582    1.6671    1.1751 H   0  0  0  0  0
   -0.8848    2.5933    0.7420 H   0  0  0  0  0
   -0.8997    1.7997   -0.8417 H   0  0  0  0  0
    0.1749   -0.9245    2.5583 H   0  0  0  0  0
    2.5596   -1.3922    2.9090 H   0  0  0  0  0
    4.6372   -0.4565    1.3785 C   0  0  0  0  0
    5.5138    0.0957    0.5363 C   0  0  0  0  0
    6.5774   -0.0801    0.6518 H   0  0  0  0  0
    4.9757   -1.0912    2.1909 H   0  0  0  0  0
  1  2  2  0  0  0
  2  3  1  0  0  0
  2 57  1  0  0  0
  3  4  1  0  0  0
  4  5  2  0  0  0
  4  9  1  0  0  0
  5  6  1  0  0  0
  5 56  1  0  0  0
  6  7  2  0  0  0
  6 55  1  0  0  0
  7  8  1  0  0  0
  7 54  1  0  0  0
  8  9  2  0  0  0
  8 11  1  0  0  0
  9 10  1  0  0  0
 11 12  1  0  0  0
 12 13  1  0  0  0
 12 52  1  0  0  0
 12 53  1  0  0  0
 13 14  1  0  0  0
 13 38  1  0  0  0
 13 51  1  0  0  0
 14 15  1  0  0  0
 14 21  1  0  0  0
 14 47  1  0  0  0
 15 16  1  0  0  0
 15 36  1  0  0  0
 15 46  1  0  0  0
 16 17  1  0  0  0
 16 27  1  0  0  0
 16 32  1  0  0  0
 17 18  1  0  0  0
 17 20  1  0  0  0
 17 26  1  0  0  0
 18 19  1  0  0  0
 20 21  1  0  0  0
 20 24  1  0  0  0
 20 25  1  0  0  0
 21 22  1  0  0  0
 21 23  1  0  0  0
 27 28  1  0  0  0
 27 30  1  0  0  0
 27 31  1  0  0  0
 28 29  1  0  0  0
 32 33  1  0  0  0
 32 34  1  0  0  0
 32 35  1  0  0  0
 36 37  1  0  0  0
 36 44  1  0  0  0
 36 45  1  0  0  0
 37 38  2  0  0  0
 37 43  1  0  0  0
 38 39  1  0  0  0
 39 40  1  0  0  0
 39 41  1  0  0  0
 39 42  1  0  0  0
 47 48  1  0  0  0
 47 49  1  0  0  0
 47 50  1  0  0  0
 56 57  2  0  0  0
 56 59  1  0  0  0
 57 58  1  0  0  0
M  END
> <Tumorigenic>
none

> <Score>
42.816307

> <Active/Decoy>
active

> <InChI>
InChI=1S/C24H30O5/c1-15-4-8-20-23(2,11-10-21(26)24(20,3)14-25)18(15)13-28-17-7-5-16-6-9-22(27)29-19(16)12-17/h4-7,9,12,18,20-21,25-26H,8,10-11,13-14H2,1-3H3/t18-,20+,21-,23+,24+/m0/s1

> <Matching Features>
H:14924486185440016873|HBA:149238150533300697|HBA:14924321692640012300|HBA:14924486112070016868

> <Mol. Index>
954

> <Pharmacophore Match>
Model -1

> <# Confs.>
25

> <Source Database>
Pharm-Screening-input-NANPDB_After_DataWarror.ldb

> <Pharmacophore-Fit Score>
42.82

> <formula>
C24H30O5

> <Mutagenic>
none

> <Reproductive Effective>
none

> <Irritant>
none

$$$$
apigenin 7-glucoside
XX    ILIB03122402113D

 51 54  0  0  1  0              1 V2000
    3.7873    1.9909   -2.3736 O   0  0  0  0  0
    2.9481    1.2986   -1.8150 C   0  0  0  0  0
    1.6874    0.8914   -2.4674 C   0  0  0  0  0
    0.8009    0.1024   -1.7360 C   0  0  0  0  0
    1.0595   -0.3396   -0.4628 O   0  0  0  0  0
    2.2359    0.0544    0.1560 C   0  0  0  0  0
    3.1662    0.8182   -0.4362 C   0  0  0  0  0
    4.0967    1.1088    0.0386 H   0  0  0  0  0
    2.4026   -0.4764    1.5224 C   0  0  0  0  0
    1.8157   -1.6900    1.9086 C   0  0  0  0  0
    1.9570   -2.1853    3.2080 C   0  0  0  0  0
    2.6827   -1.4599    4.1447 C   0  0  0  0  0
    2.8429   -1.9253    5.4183 O   0  0  0  0  0
    2.3669   -2.7608    5.5082 H   0  0  0  0  0
    3.2692   -0.2476    3.8000 C   0  0  0  0  0
    3.1242    0.2451    2.4986 C   0  0  0  0  0
    3.5920    1.1988    2.2653 H   0  0  0  0  0
    3.8363    0.3213    4.5304 H   0  0  0  0  0
    1.4973   -3.1338    3.4711 H   0  0  0  0  0
    1.2441   -2.2833    1.1981 H   0  0  0  0  0
   -0.4015   -0.3270   -2.3063 C   0  0  0  0  0
   -0.7512    0.0456   -3.6032 C   0  0  0  0  0
   -1.9519   -0.4155   -4.0373 O   0  0  0  0  0
   -2.6350    0.4202   -4.9964 C   0  0  1  0  0
   -3.4577   -0.3252   -5.9005 O   0  0  0  0  0
   -4.5067   -1.0532   -5.2478 C   0  0  1  0  0
   -5.4390   -0.0988   -4.4943 C   0  0  1  0  0
   -6.3932   -0.8580   -3.7568 O   0  0  0  0  0
   -6.9574   -0.2276   -3.2781 H   0  0  0  0  0
   -4.6566    0.7971   -3.5343 C   0  0  2  0  0
   -5.5397    1.8086   -3.0470 O   0  0  0  0  0
   -5.0196    2.3938   -2.4707 H   0  0  0  0  0
   -3.4885    1.4568   -4.2630 C   0  0  1  0  0
   -2.6950    2.1738   -3.3233 O   0  0  0  0  0
   -1.9501    2.5678   -3.8079 H   0  0  0  0  0
   -3.8880    2.1856   -4.9798 H   0  0  0  0  0
   -4.3158    0.2312   -2.6582 H   0  0  0  0  0
   -5.9935    0.5251   -5.2061 H   0  0  0  0  0
   -5.2549   -1.8266   -6.3205 C   0  0  0  0  0
   -5.7968   -0.9285   -7.2747 O   0  0  0  0  0
   -6.2635   -1.4656   -7.9384 H   0  0  0  0  0
   -6.0651   -2.4203   -5.8839 H   0  0  0  0  0
   -4.5776   -2.5208   -6.8305 H   0  0  0  0  0
   -4.0591   -1.7807   -4.5583 H   0  0  0  0  0
   -1.8790    0.9499   -5.5896 H   0  0  0  0  0
    0.1417    0.8442   -4.3433 C   0  0  0  0  0
    1.3425    1.2762   -3.7680 C   0  0  0  0  0
    2.1547    2.0284   -4.5719 O   0  0  0  0  0
    2.9636    2.2572   -4.0867 H   0  0  0  0  0
   -0.0899    1.1614   -5.3560 H   0  0  0  0  0
   -1.0800   -0.9505   -1.7281 H   0  0  0  0  0
  1  2  2  0  0  0
  2  3  1  0  0  0
  2  7  1  0  0  0
  3  4  2  0  0  0
  3 47  1  0  0  0
  4  5  1  0  0  0
  4 21  1  0  0  0
  5  6  1  0  0  0
  6  7  2  0  0  0
  6  9  1  0  0  0
  7  8  1  0  0  0
  9 10  2  0  0  0
  9 16  1  0  0  0
 10 11  1  0  0  0
 10 20  1  0  0  0
 11 12  2  0  0  0
 11 19  1  0  0  0
 12 13  1  0  0  0
 12 15  1  0  0  0
 13 14  1  0  0  0
 15 16  2  0  0  0
 15 18  1  0  0  0
 16 17  1  0  0  0
 21 22  2  0  0  0
 21 51  1  0  0  0
 22 23  1  0  0  0
 22 46  1  0  0  0
 23 24  1  0  0  0
 24 25  1  0  0  0
 24 33  1  0  0  0
 24 45  1  0  0  0
 25 26  1  0  0  0
 26 27  1  0  0  0
 26 39  1  0  0  0
 26 44  1  0  0  0
 27 28  1  0  0  0
 27 30  1  0  0  0
 27 38  1  0  0  0
 28 29  1  0  0  0
 30 31  1  0  0  0
 30 33  1  0  0  0
 30 37  1  0  0  0
 31 32  1  0  0  0
 33 34  1  0  0  0
 33 36  1  0  0  0
 34 35  1  0  0  0
 39 40  1  0  0  0
 39 42  1  0  0  0
 39 43  1  0  0  0
 40 41  1  0  0  0
 46 47  2  0  0  0
 46 50  1  0  0  0
 47 48  1  0  0  0
 48 49  1  0  0  0
M  END
> <Tumorigenic>
none

> <Score>
42.8172

> <Active/Decoy>
active

> <InChI>
InChI=1S/C21H20O10/c22-8-16-18(26)19(27)20(28)21(31-16)29-11-5-12(24)17-13(25)7-14(30-15(17)6-11)9-1-3-10(23)4-2-9/h1-7,16,18-24,26-28H,8H2/t16-,18-,19+,20-,21+/m1/s1

> <Matching Features>
H:14924486185440016873|HBA:149238150533300697|HBA:14924321692640012300|HBA:14924486112070016868

> <Mol. Index>
472

> <Pharmacophore Match>
Model -1

> <# Confs.>
25

> <Source Database>
Pharm-Screening-input-NANPDB_After_DataWarror.ldb

> <Pharmacophore-Fit Score>
42.82

> <formula>
C21H20O10

> <Mutagenic>
none

> <Reproductive Effective>
none

> <Irritant>
none

$$$$
S-(-)-trans-N-feruloyloctopamine
XX    ILIB03122402113D

 43 44  0  0  1  0              1 V2000
    1.9558    0.2985   -3.8898 O   0  0  0  0  0
    1.2333   -0.1808   -3.0243 C   0  0  0  0  0
    1.6455   -0.9436   -1.9602 N   0  0  0  0  0
    3.0206   -1.3102   -1.7475 C   0  0  0  0  0
    3.7213   -0.2723   -0.8698 C   0  0  1  0  0
    3.6676    0.9985   -1.5165 O   0  0  0  0  0
    4.1291    0.9138   -2.3678 H   0  0  0  0  0
    3.1184   -0.1213    0.5004 C   0  0  0  0  0
    3.5611   -0.9310    1.5570 C   0  0  0  0  0
    3.0025   -0.8083    2.8295 C   0  0  0  0  0
    1.9949    0.1256    3.0515 C   0  0  0  0  0
    1.4640    0.2205    4.3081 O   0  0  0  0  0
    0.7731    0.9056    4.3003 H   0  0  0  0  0
    1.5409    0.9405    2.0197 C   0  0  0  0  0
    2.1017    0.8160    0.7476 C   0  0  0  0  0
    1.7363    1.4540   -0.0531 H   0  0  0  0  0
    0.7545    1.6701    2.1897 H   0  0  0  0  0
    3.3576   -1.4434    3.6369 H   0  0  0  0  0
    4.3463   -1.6651    1.3955 H   0  0  0  0  0
    4.7813   -0.5397   -0.7723 H   0  0  0  0  0
    3.0335   -2.2922   -1.2702 H   0  0  0  0  0
    3.5224   -1.3875   -2.7150 H   0  0  0  0  0
    0.9579   -1.2372   -1.2622 H   0  0  0  0  0
   -0.2443    0.0335   -3.0246 C   0  0  0  0  0
   -0.8926    0.7564   -3.9500 C   0  0  0  0  0
   -2.3432    0.9762   -3.9624 C   0  0  0  0  0
   -3.2026    0.1297   -3.2484 C   0  0  0  0  0
   -4.5886    0.3345   -3.2423 C   0  0  0  0  0
   -5.3294   -0.5733   -2.5394 O   0  0  0  0  0
   -5.6170   -0.2127   -1.1908 C   0  0  0  0  0
   -4.6970   -0.1144   -0.6038 H   0  0  0  0  0
   -6.2132    0.7052   -1.1452 H   0  0  0  0  0
   -6.2097   -1.0213   -0.7460 H   0  0  0  0  0
   -5.1362    1.3767   -3.9907 C   0  0  0  0  0
   -6.4921    1.5369   -4.0596 O   0  0  0  0  0
   -6.6893    2.2992   -4.6318 H   0  0  0  0  0
   -4.3008    2.2372   -4.6991 C   0  0  0  0  0
   -2.9170    2.0459   -4.6779 C   0  0  0  0  0
   -2.3009    2.7345   -5.2508 H   0  0  0  0  0
   -4.7147    3.0548   -5.2835 H   0  0  0  0  0
   -2.8046   -0.7060   -2.6755 H   0  0  0  0  0
   -0.3477    1.2292   -4.7631 H   0  0  0  0  0
   -0.7706   -0.4450   -2.2039 H   0  0  0  0  0
  1  2  2  0  0  0
  2  3  1  0  0  0
  2 24  1  0  0  0
  3  4  1  0  0  0
  3 23  1  0  0  0
  4  5  1  0  0  0
  4 21  1  0  0  0
  4 22  1  0  0  0
  5  6  1  0  0  0
  5  8  1  0  0  0
  5 20  1  0  0  0
  6  7  1  0  0  0
  8  9  2  0  0  0
  8 15  1  0  0  0
  9 10  1  0  0  0
  9 19  1  0  0  0
 10 11  2  0  0  0
 10 18  1  0  0  0
 11 12  1  0  0  0
 11 14  1  0  0  0
 12 13  1  0  0  0
 14 15  2  0  0  0
 14 17  1  0  0  0
 15 16  1  0  0  0
 24 25  2  0  0  0
 24 43  1  0  0  0
 25 26  1  0  0  0
 25 42  1  0  0  0
 26 27  2  0  0  0
 26 38  1  0  0  0
 27 28  1  0  0  0
 27 41  1  0  0  0
 28 29  1  0  0  0
 28 34  2  0  0  0
 29 30  1  0  0  0
 30 31  1  0  0  0
 30 32  1  0  0  0
 30 33  1  0  0  0
 34 35  1  0  0  0
 34 37  1  0  0  0
 35 36  1  0  0  0
 37 38  2  0  0  0
 37 40  1  0  0  0
 38 39  1  0  0  0
M  END
> <Tumorigenic>
none

> <Score>
42.80835

> <Active/Decoy>
active

> <InChI>
InChI=1S/C18H19NO5/c1-24-17-10-12(2-8-15(17)21)3-9-18(23)19-11-16(22)13-4-6-14(20)7-5-13/h2-10,16,20-22H,11H2,1H3,(H,19,23)/b9-3+/t16-/m1/s1

> <Matching Features>
H:14924486185440016873|HBA:149238150533300697|HBA:14924321692640012300|HBA:14924486112070016868

> <Mol. Index>
210

> <Pharmacophore Match>
Model -1

> <# Confs.>
25

> <Source Database>
Pharm-Screening-input-NANPDB_After_DataWarror.ldb

> <Pharmacophore-Fit Score>
42.81

> <formula>
C18H19NO5

> <Mutagenic>
none

> <Reproductive Effective>
none

> <Irritant>
none

$$$$
pinoresinol
XX    ILIB03122402113D

 48 51  0  0  1  0              1 V2000
   -2.6029    0.0912    1.0270 O   0  0  0  0  0
   -2.6535    0.6328   -0.3204 C   0  0  2  0  0
   -3.9966    0.3949   -0.9374 C   0  0  0  0  0
   -4.2851    0.8265   -2.2386 C   0  0  0  0  0
   -5.5422    0.5984   -2.8121 C   0  0  0  0  0
   -5.9142    0.9831   -4.0675 O   0  0  0  0  0
   -4.9221    1.6889   -4.8098 C   0  0  0  0  0
   -4.6415    2.6209   -4.3203 H   0  0  0  0  0
   -5.3481    1.9350   -5.7851 H   0  0  0  0  0
   -4.0414    1.0515   -4.9812 H   0  0  0  0  0
   -6.5100   -0.0767   -2.0635 C   0  0  0  0  0
   -7.7534   -0.3307   -2.5761 O   0  0  0  0  0
   -7.7940    0.0472   -3.4723 H   0  0  0  0  0
   -6.2421   -0.5213   -0.7716 C   0  0  0  0  0
   -4.9901   -0.2846   -0.2069 C   0  0  0  0  0
   -4.7921   -0.6375    0.8013 H   0  0  0  0  0
   -6.9997   -1.0505   -0.2004 H   0  0  0  0  0
   -3.5111    1.3614   -2.7838 H   0  0  0  0  0
   -1.5060   -0.0175   -1.0931 C   0  0  1  0  0
   -0.6902    0.9423   -1.9281 C   0  0  0  0  0
    0.2099    1.6062   -1.0311 O   0  0  0  0  0
    0.2961    0.8463    0.1926 C   0  0  2  0  0
    1.7334    0.5527    0.5300 C   0  0  0  0  0
    2.7791    1.0006   -0.2983 C   0  0  0  0  0
    4.1157    0.7301    0.0243 C   0  0  0  0  0
    5.1972    1.1203   -0.7128 O   0  0  0  0  0
    4.8934    1.8519   -1.8974 C   0  0  0  0  0
    4.3040    1.2478   -2.5945 H   0  0  0  0  0
    5.8407    2.0990   -2.3865 H   0  0  0  0  0
    4.3842    2.7925   -1.6634 H   0  0  0  0  0
    4.3952    0.0113    1.1905 C   0  0  0  0  0
    5.6818   -0.2806    1.5540 O   0  0  0  0  0
    6.2743    0.0821    0.8733 H   0  0  0  0  0
    3.3715   -0.4357    2.0226 C   0  0  0  0  0
    2.0464   -0.1639    1.6934 C   0  0  0  0  0
    1.2554   -0.5161    2.3520 H   0  0  0  0  0
    3.5988   -0.9929    2.9272 H   0  0  0  0  0
    2.5230    1.5649   -1.1905 H   0  0  0  0  0
   -0.5449   -0.4224   -0.0074 C   0  0  1  0  0
   -1.4611   -0.7575    1.1481 C   0  0  0  0  0
   -1.8172   -1.7908    1.0759 H   0  0  0  0  0
   -0.9978   -0.6187    2.1285 H   0  0  0  0  0
    0.0749   -1.2786   -0.2954 H   0  0  0  0  0
   -0.1259    1.4911    0.9740 H   0  0  0  0  0
   -0.0818    0.4021   -2.6613 H   0  0  0  0  0
   -1.2933    1.6845   -2.4589 H   0  0  0  0  0
   -1.8560   -0.8720   -1.6826 H   0  0  0  0  0
   -2.4991    1.7187   -0.1981 H   0  0  0  0  0
  1  2  1  0  0  0
  1 40  1  0  0  0
  2  3  1  0  0  0
  2 19  1  0  0  0
  2 48  1  0  0  0
  3  4  2  0  0  0
  3 15  1  0  0  0
  4  5  1  0  0  0
  4 18  1  0  0  0
  5  6  1  0  0  0
  5 11  2  0  0  0
  6  7  1  0  0  0
  7  8  1  0  0  0
  7  9  1  0  0  0
  7 10  1  0  0  0
 11 12  1  0  0  0
 11 14  1  0  0  0
 12 13  1  0  0  0
 14 15  2  0  0  0
 14 17  1  0  0  0
 15 16  1  0  0  0
 19 20  1  0  0  0
 19 39  1  0  0  0
 19 47  1  0  0  0
 20 21  1  0  0  0
 20 45  1  0  0  0
 20 46  1  0  0  0
 21 22  1  0  0  0
 22 23  1  0  0  0
 22 39  1  0  0  0
 22 44  1  0  0  0
 23 24  2  0  0  0
 23 35  1  0  0  0
 24 25  1  0  0  0
 24 38  1  0  0  0
 25 26  1  0  0  0
 25 31  2  0  0  0
 26 27  1  0  0  0
 27 28  1  0  0  0
 27 29  1  0  0  0
 27 30  1  0  0  0
 31 32  1  0  0  0
 31 34  1  0  0  0
 32 33  1  0  0  0
 34 35  2  0  0  0
 34 37  1  0  0  0
 35 36  1  0  0  0
 39 40  1  0  0  0
 39 43  1  0  0  0
 40 41  1  0  0  0
 40 42  1  0  0  0
M  END
> <Tumorigenic>
none

> <Score>
42.80326

> <Active/Decoy>
active

> <InChI>
InChI=1S/C20H22O6/c1-23-17-7-11(3-5-15(17)21)19-13-9-26-20(14(13)10-25-19)12-4-6-16(22)18(8-12)24-2/h3-8,13-14,19-22H,9-10H2,1-2H3/t13-,14-,19+,20+/m0/s1

> <Matching Features>
H:14924486185440016873|HBA:149238150533300697|HBA:14924321692640012300|HBA:14924486112070016868

> <Mol. Index>
88

> <Pharmacophore Match>
Model -1

> <# Confs.>
25

> <Source Database>
Pharm-Screening-input-NANPDB_After_DataWarror.ldb

> <Pharmacophore-Fit Score>
42.8

> <formula>
C20H22O6

> <Mutagenic>
none

> <Reproductive Effective>
none

> <Irritant>
none

$$$$
euphohelin E
XX    ILIB03122402113D

 81 85  0  0  1  0              1 V2000
   -2.8554   -3.5650   -0.8185 O   0  0  0  0  0
   -1.9660   -2.8755   -0.3361 C   0  0  0  0  0
   -2.1772   -1.6258    0.5170 C   0  0  1  0  0
   -0.8371   -1.4506    1.0101 O   0  0  0  0  0
    0.0774   -1.8867   -0.0121 C   0  0  1  0  0
    1.5390   -2.0083    0.4678 C   0  0  2  0  0
    1.5848   -2.9767    1.5208 O   0  0  0  0  0
    2.5144   -3.2166    1.6670 H   0  0  0  0  0
    2.3396   -0.7085    0.8764 C   0  0  0  0  0
    1.9307    0.5463    0.0120 C   0  0  2  0  0
    2.9971    1.5102    0.0297 O   0  0  0  0  0
    3.5533    1.8451   -1.1679 C   0  0  0  0  0
    3.2347    1.4056   -2.2643 O   0  0  0  0  0
    4.6189    2.8758   -0.9568 C   0  0  0  0  0
    5.2469    2.9357   -1.8523 H   0  0  0  0  0
    4.1600    3.8492   -0.7725 H   0  0  0  0  0
    5.2619    2.5870   -0.1200 H   0  0  0  0  0
    0.6904    1.2694    0.5635 C   0  0  0  0  0
   -0.2712    1.9096   -0.4561 C   0  0  1  0  0
   -0.3972    1.0989   -1.6367 O   0  0  0  0  0
   -0.6575    1.7424   -2.8080 C   0  0  0  0  0
   -0.7954    2.9492   -2.9588 O   0  0  0  0  0
   -0.7246    0.7471   -3.9264 C   0  0  0  0  0
   -1.2031    1.2094   -4.7945 H   0  0  0  0  0
    0.2835    0.4284   -4.1970 H   0  0  0  0  0
   -1.3313   -0.1119   -3.6280 H   0  0  0  0  0
   -1.6096    2.0907    0.2321 C   0  0  1  0  0
   -2.7818    1.9861   -0.5623 O   0  0  0  0  0
   -2.6061    0.9332    0.4208 C   0  0  1  0  0
   -2.7471   -0.4140   -0.2653 C   0  0  2  0  0
   -4.2593   -0.7398   -0.2910 C   0  0  1  0  0
   -4.5973   -1.6171   -1.3889 O   0  0  0  0  0
   -4.9173   -1.0125   -2.5747 C   0  0  0  0  0
   -5.4715    0.0715   -2.7133 O   0  0  0  0  0
   -4.5332   -1.8731   -3.7036 C   0  0  0  0  0
   -4.5154   -3.2572   -3.5348 C   0  0  0  0  0
   -4.1546   -4.0665   -4.6105 C   0  0  0  0  0
   -3.8212   -3.4915   -5.8384 C   0  0  0  0  0
   -3.8478   -2.1047   -5.9954 C   0  0  0  0  0
   -4.2070   -1.2867   -4.9269 C   0  0  0  0  0
   -4.2287   -0.2082   -5.0550 H   0  0  0  0  0
   -3.5899   -1.6634   -6.9551 H   0  0  0  0  0
   -3.5422   -4.1263   -6.6755 H   0  0  0  0  0
   -4.1341   -5.1464   -4.4949 H   0  0  0  0  0
   -4.7774   -3.7095   -2.5832 H   0  0  0  0  0
   -4.5473   -1.4353    1.0741 C   0  0  2  0  0
   -3.1824   -1.8987    1.6282 C   0  0  0  0  0
   -2.9258   -1.3200    2.5238 H   0  0  0  0  0
   -3.1928   -2.9510    1.9341 H   0  0  0  0  0
   -5.5817   -2.5525    1.0298 C   0  0  0  0  0
   -5.7841   -2.9254    2.0395 H   0  0  0  0  0
   -6.5258   -2.1895    0.6114 H   0  0  0  0  0
   -5.2433   -3.3996    0.4262 H   0  0  0  0  0
   -4.9254   -0.6685    1.7638 H   0  0  0  0  0
   -4.8866    0.1538   -0.3673 H   0  0  0  0  0
   -2.3351   -0.3920   -1.2746 H   0  0  0  0  0
   -3.1945    0.9896    1.3311 H   0  0  0  0  0
   -1.6850    3.2360    1.2068 C   0  0  0  0  0
   -1.3335    4.1621    0.7416 H   0  0  0  0  0
   -1.0676    3.0345    2.0873 H   0  0  0  0  0
   -2.7093    3.4088    1.5546 H   0  0  0  0  0
    0.1311    2.8926   -0.7353 H   0  0  0  0  0
    0.1037    0.5837    1.1681 H   0  0  0  0  0
    1.0026    2.0518    1.2667 H   0  0  0  0  0
    1.7931    0.2090   -1.0224 H   0  0  0  0  0
    2.2259   -0.4216    2.3931 C   0  0  0  0  0
    2.7379   -1.1871    2.9877 H   0  0  0  0  0
    1.1862   -0.4033    2.7347 H   0  0  0  0  0
    2.6839    0.5396    2.6479 H   0  0  0  0  0
    3.8464   -1.0155    0.6217 C   0  0  0  0  0
    4.0411   -1.1461   -0.4478 H   0  0  0  0  0
    4.1646   -1.9311    1.1319 H   0  0  0  0  0
    4.4919   -0.2104    0.9863 H   0  0  0  0  0
    2.0803   -2.4579   -0.3753 H   0  0  0  0  0
   -0.5143   -3.2184   -0.4640 C   0  0  2  0  0
   -0.1251   -3.6303   -1.8696 C   0  0  0  0  0
    0.9511   -3.8061   -1.9489 H   0  0  0  0  0
   -0.4030   -2.8663   -2.6038 H   0  0  0  0  0
   -0.6368   -4.5547   -2.1564 H   0  0  0  0  0
   -0.3134   -4.0217    0.2541 H   0  0  0  0  0
    0.0299   -1.1775   -0.8419 H   0  0  0  0  0
  1  2  2  0  0  0
  2  3  1  0  0  0
  2 75  1  0  0  0
  3  4  1  0  0  0
  3 30  1  0  0  0
  3 47  1  0  0  0
  4  5  1  0  0  0
  5  6  1  0  0  0
  5 75  1  0  0  0
  5 81  1  0  0  0
  6  7  1  0  0  0
  6  9  1  0  0  0
  6 74  1  0  0  0
  7  8  1  0  0  0
  9 10  1  0  0  0
  9 66  1  0  0  0
  9 70  1  0  0  0
 10 11  1  0  0  0
 10 18  1  0  0  0
 10 65  1  0  0  0
 11 12  1  0  0  0
 12 13  2  0  0  0
 12 14  1  0  0  0
 14 15  1  0  0  0
 14 16  1  0  0  0
 14 17  1  0  0  0
 18 19  1  0  0  0
 18 63  1  0  0  0
 18 64  1  0  0  0
 19 20  1  0  0  0
 19 27  1  0  0  0
 19 62  1  0  0  0
 20 21  1  0  0  0
 21 22  2  0  0  0
 21 23  1  0  0  0
 23 24  1  0  0  0
 23 25  1  0  0  0
 23 26  1  0  0  0
 27 28  1  0  0  0
 27 29  1  0  0  0
 27 58  1  0  0  0
 28 29  1  0  0  0
 29 30  1  0  0  0
 29 57  1  0  0  0
 30 31  1  0  0  0
 30 56  1  0  0  0
 31 32  1  0  0  0
 31 46  1  0  0  0
 31 55  1  0  0  0
 32 33  1  0  0  0
 33 34  2  0  0  0
 33 35  1  0  0  0
 35 36  2  0  0  0
 35 40  1  0  0  0
 36 37  1  0  0  0
 36 45  1  0  0  0
 37 38  2  0  0  0
 37 44  1  0  0  0
 38 39  1  0  0  0
 38 43  1  0  0  0
 39 40  2  0  0  0
 39 42  1  0  0  0
 40 41  1  0  0  0
 46 47  1  0  0  0
 46 50  1  0  0  0
 46 54  1  0  0  0
 47 48  1  0  0  0
 47 49  1  0  0  0
 50 51  1  0  0  0
 50 52  1  0  0  0
 50 53  1  0  0  0
 58 59  1  0  0  0
 58 60  1  0  0  0
 58 61  1  0  0  0
 66 67  1  0  0  0
 66 68  1  0  0  0
 66 69  1  0  0  0
 70 71  1  0  0  0
 70 72  1  0  0  0
 70 73  1  0  0  0
 75 76  1  0  0  0
 75 80  1  0  0  0
 76 77  1  0  0  0
 76 78  1  0  0  0
 76 79  1  0  0  0
M  END
> <Tumorigenic>
none

> <Score>
42.733418

> <Active/Decoy>
active

> <InChI>
InChI=1S/C31H40O10/c1-15-14-31-22(23(15)39-28(36)19-11-9-8-10-12-19)27-30(7,41-27)21(38-18(4)33)13-20(37-17(3)32)29(5,6)26(35)24(40-31)16(2)25(31)34/h8-12,15-16,20-24,26-27,35H,13-14H2,1-7H3/t15-,16-,20+,21+,22-,23-,24+,26-,27-,30+,31-/m0/s1

> <Matching Features>
H:14924486185440016873|HBA:149238150533300697|HBA:14924321692640012300|HBA:14924486112070016868

> <Mol. Index>
484

> <Pharmacophore Match>
Model -1

> <# Confs.>
25

> <Source Database>
Pharm-Screening-input-NANPDB_After_DataWarror.ldb

> <Pharmacophore-Fit Score>
42.73

> <formula>
C31H40O10

> <Mutagenic>
none

> <Reproductive Effective>
none

> <Irritant>
none

$$$$
5-O-caffeoylquinic acid
XX    ILIB03122402113D

 43 44  0  0  1  0              1 V2000
   -1.0921    0.3092   -0.0075 O   0  0  0  0  0
   -1.5893    0.3540    1.0999 C   0  0  0  0  0
   -2.7946    0.8600    1.4356 O   0  0  0  0  0
   -3.5986    1.4134    0.3844 C   0  0  2  0  0
   -4.4560    2.5353    0.9860 C   0  0  1  0  0
   -3.5966    3.5789    1.4421 O   0  0  0  0  0
   -4.1581    4.2749    1.8240 H   0  0  0  0  0
   -5.4519    3.1036   -0.0266 C   0  0  1  0  0
   -4.7642    3.7495   -1.0949 O   0  0  0  0  0
   -4.1796    4.4202   -0.7018 H   0  0  0  0  0
   -6.3450    2.0060   -0.6007 C   0  0  0  0  0
   -5.5793    0.7894   -1.1452 C   0  0  1  0  0
   -6.5427   -0.2720   -1.2611 O   0  0  0  0  0
   -6.0691   -1.0822   -1.5174 H   0  0  0  0  0
   -5.1428    0.9999   -2.5749 C   0  0  0  0  0
   -5.8379    0.8093   -3.5638 O   0  0  0  0  0
   -3.8606    1.4428   -2.6416 O   0  0  0  0  0
   -3.5720    1.5858   -3.5685 H   0  0  0  0  0
   -4.4713    0.3063   -0.2012 C   0  0  0  0  0
   -4.9236   -0.2584    0.6269 H   0  0  0  0  0
   -3.8353   -0.4315   -0.7085 H   0  0  0  0  0
   -7.0327    1.6693    0.1857 H   0  0  0  0  0
   -6.9755    2.4252   -1.3960 H   0  0  0  0  0
   -6.0729    3.8706    0.4507 H   0  0  0  0  0
   -4.9875    2.1542    1.8663 H   0  0  0  0  0
   -2.9225    1.8420   -0.3713 H   0  0  0  0  0
   -0.9539   -0.1543    2.3375 C   0  0  0  0  0
    0.3675   -0.1996    2.5839 C   0  0  0  0  0
    1.4751    0.1319    1.6872 C   0  0  0  0  0
    2.3896    1.1454    2.0215 C   0  0  0  0  0
    3.4436    1.4647    1.1629 C   0  0  0  0  0
    4.3029    2.4584    1.5408 O   0  0  0  0  0
    4.9717    2.5608    0.8431 H   0  0  0  0  0
    3.6051    0.7868   -0.0385 C   0  0  0  0  0
    4.6461    1.1179   -0.8595 O   0  0  0  0  0
    4.6069    0.5550   -1.6515 H   0  0  0  0  0
    2.7106   -0.2177   -0.3932 C   0  0  0  0  0
    1.6545   -0.5411    0.4641 C   0  0  0  0  0
    0.9721   -1.3286    0.1514 H   0  0  0  0  0
    2.8207   -0.7551   -1.3311 H   0  0  0  0  0
    2.2950    1.6968    2.9549 H   0  0  0  0  0
    0.6746   -0.5402    3.5714 H   0  0  0  0  0
   -1.6275   -0.4681    3.1282 H   0  0  0  0  0
  1  2  2  0  0  0
  2  3  1  0  0  0
  2 27  1  0  0  0
  3  4  1  0  0  0
  4  5  1  0  0  0
  4 19  1  0  0  0
  4 26  1  0  0  0
  5  6  1  0  0  0
  5  8  1  0  0  0
  5 25  1  0  0  0
  6  7  1  0  0  0
  8  9  1  0  0  0
  8 11  1  0  0  0
  8 24  1  0  0  0
  9 10  1  0  0  0
 11 12  1  0  0  0
 11 22  1  0  0  0
 11 23  1  0  0  0
 12 13  1  0  0  0
 12 15  1  0  0  0
 12 19  1  0  0  0
 13 14  1  0  0  0
 15 16  2  0  0  0
 15 17  1  0  0  0
 17 18  1  0  0  0
 19 20  1  0  0  0
 19 21  1  0  0  0
 27 28  2  0  0  0
 27 43  1  0  0  0
 28 29  1  0  0  0
 28 42  1  0  0  0
 29 30  2  0  0  0
 29 38  1  0  0  0
 30 31  1  0  0  0
 30 41  1  0  0  0
 31 32  1  0  0  0
 31 34  2  0  0  0
 32 33  1  0  0  0
 34 35  1  0  0  0
 34 37  1  0  0  0
 35 36  1  0  0  0
 37 38  2  0  0  0
 37 40  1  0  0  0
 38 39  1  0  0  0
M  END
> <Tumorigenic>
none

> <Score>
42.720688

> <Active/Decoy>
active

> <InChI>
InChI=1S/C16H18O9/c17-9-3-1-8(5-10(9)18)2-4-13(20)25-12-7-16(24,15(22)23)6-11(19)14(12)21/h1-5,11-12,14,17-19,21,24H,6-7H2,(H,22,23)/b4-2+/t11-,12-,14-,16-/m0/s1

> <Matching Features>
H:14924486185440016873|HBA:149238150533300697|HBA:14924321692640012300|HBA:14924486112070016868

> <Mol. Index>
567

> <Pharmacophore Match>
Model -1

> <# Confs.>
25

> <Source Database>
Pharm-Screening-input-NANPDB_After_DataWarror.ldb

> <Pharmacophore-Fit Score>
42.72

> <formula>
C16H18O9

> <Mutagenic>
none

> <Reproductive Effective>
none

> <Irritant>
none

$$$$
8-C-p-hydroxybenzyldiosmetin
XX    ILIB03122402113D

 48 51  0  0  1  0              1 V2000
   -4.4423    1.2048   -3.5756 O   0  0  0  0  0
   -3.3870    0.7631   -3.1428 C   0  0  0  0  0
   -3.3197   -0.2986   -2.1160 C   0  0  0  0  0
   -2.0586   -0.7391   -1.6954 C   0  0  0  0  0
   -0.8921   -0.2166   -2.2055 O   0  0  0  0  0
   -0.9414    0.7579   -3.1827 C   0  0  0  0  0
   -2.1000    1.2615   -3.6638 C   0  0  0  0  0
   -2.1480    2.0272   -4.4290 H   0  0  0  0  0
    0.3699    1.2094   -3.6436 C   0  0  0  0  0
    1.4462    1.1738   -2.7742 C   0  0  0  0  0
    2.7106    1.5981   -3.1868 C   0  0  0  0  0
    3.7256    1.5423   -2.2690 O   0  0  0  0  0
    4.5372    1.8617   -2.6976 H   0  0  0  0  0
    2.9343    2.0624   -4.4856 C   0  0  0  0  0
    4.2100    2.4518   -4.7756 O   0  0  0  0  0
    4.4168    2.9226   -6.1061 C   0  0  0  0  0
    4.2063    2.1355   -6.8387 H   0  0  0  0  0
    5.4699    3.1978   -6.2018 H   0  0  0  0  0
    3.8171    3.8164   -6.3069 H   0  0  0  0  0
    1.8597    2.0952   -5.3758 C   0  0  0  0  0
    0.5880    1.6714   -4.9677 C   0  0  0  0  0
   -0.2203    1.7147   -5.6940 H   0  0  0  0  0
    1.9703    2.4448   -6.3977 H   0  0  0  0  0
    1.3122    0.8186   -1.7546 H   0  0  0  0  0
   -1.9319   -1.7303   -0.6999 C   0  0  0  0  0
   -3.1058   -2.2869   -0.1679 C   0  0  0  0  0
   -3.0103   -3.2714    0.7806 O   0  0  0  0  0
   -3.9074   -3.5405    1.0433 H   0  0  0  0  0
   -4.3660   -1.8595   -0.5868 C   0  0  0  0  0
   -4.4701   -0.8644   -1.5579 C   0  0  0  0  0
   -5.7109   -0.4532   -1.9593 O   0  0  0  0  0
   -6.3852   -0.9548   -1.4684 H   0  0  0  0  0
   -5.2621   -2.3013   -0.1582 H   0  0  0  0  0
   -0.5798   -2.2082   -0.2513 C   0  0  0  0  0
    0.1389   -1.2370    0.6419 C   0  0  0  0  0
    1.4964   -0.9570    0.4277 C   0  0  0  0  0
    2.1765   -0.0573    1.2497 C   0  0  0  0  0
    1.5004    0.5677    2.2935 C   0  0  0  0  0
    2.1909    1.4461    3.0807 O   0  0  0  0  0
    1.5870    1.7959    3.7564 H   0  0  0  0  0
    0.1542    0.3026    2.5272 C   0  0  0  0  0
   -0.5228   -0.5977    1.7023 C   0  0  0  0  0
   -1.5735   -0.7996    1.8948 H   0  0  0  0  0
   -0.3763    0.7862    3.3415 H   0  0  0  0  0
    3.2274    0.1491    1.0694 H   0  0  0  0  0
    2.0358   -1.4380   -0.3841 H   0  0  0  0  0
   -0.6833   -3.1736    0.2627 H   0  0  0  0  0
    0.0422   -2.4273   -1.1300 H   0  0  0  0  0
  1  2  2  0  0  0
  2  3  1  0  0  0
  2  7  1  0  0  0
  3  4  2  0  0  0
  3 30  1  0  0  0
  4  5  1  0  0  0
  4 25  1  0  0  0
  5  6  1  0  0  0
  6  7  2  0  0  0
  6  9  1  0  0  0
  7  8  1  0  0  0
  9 10  2  0  0  0
  9 21  1  0  0  0
 10 11  1  0  0  0
 10 24  1  0  0  0
 11 12  1  0  0  0
 11 14  2  0  0  0
 12 13  1  0  0  0
 14 15  1  0  0  0
 14 20  1  0  0  0
 15 16  1  0  0  0
 16 17  1  0  0  0
 16 18  1  0  0  0
 16 19  1  0  0  0
 20 21  2  0  0  0
 20 23  1  0  0  0
 21 22  1  0  0  0
 25 26  2  0  0  0
 25 34  1  0  0  0
 26 27  1  0  0  0
 26 29  1  0  0  0
 27 28  1  0  0  0
 29 30  2  0  0  0
 29 33  1  0  0  0
 30 31  1  0  0  0
 31 32  1  0  0  0
 34 35  1  0  0  0
 34 47  1  0  0  0
 34 48  1  0  0  0
 35 36  2  0  0  0
 35 42  1  0  0  0
 36 37  1  0  0  0
 36 46  1  0  0  0
 37 38  2  0  0  0
 37 45  1  0  0  0
 38 39  1  0  0  0
 38 41  1  0  0  0
 39 40  1  0  0  0
 41 42  2  0  0  0
 41 44  1  0  0  0
 42 43  1  0  0  0
M  END
> <Tumorigenic>
none

> <Score>
42.713757

> <Active/Decoy>
active

> <InChI>
InChI=1S/C23H18O7/c1-29-20-7-4-13(9-17(20)26)21-11-19(28)22-18(27)10-16(25)15(23(22)30-21)8-12-2-5-14(24)6-3-12/h2-7,9-11,24-27H,8H2,1H3

> <Matching Features>
H:14924486185440016873|HBA:149238150533300697|HBA:14924321692640012300|HBA:14924486112070016868

> <Mol. Index>
1312

> <Pharmacophore Match>
Model -1

> <# Confs.>
25

> <Source Database>
Pharm-Screening-input-NANPDB_After_DataWarror.ldb

> <Pharmacophore-Fit Score>
42.71

> <formula>
C23H18O7

> <Mutagenic>
none

> <Reproductive Effective>
none

> <Irritant>
none

$$$$
1-O-caffeoylquinic acid
XX    ILIB03122402113D

 43 44  0  0  1  0              1 V2000
   -3.5952   -0.8640   -0.7133 O   0  0  0  0  0
   -2.7357   -0.8426   -1.5755 C   0  0  0  0  0
   -2.9095   -1.0592   -2.8952 O   0  0  0  0  0
   -4.2419   -1.3446   -3.3350 C   0  0  0  0  0
   -5.1247   -0.1902   -2.9806 C   0  0  0  0  0
   -6.3156   -0.2904   -2.7195 O   0  0  0  0  0
   -4.4570    0.9905   -2.9866 O   0  0  0  0  0
   -3.5061    0.9276   -3.2193 H   0  0  0  0  0
   -4.1749   -1.4521   -4.8725 C   0  0  0  0  0
   -3.3667   -2.6680   -5.3423 C   0  0  2  0  0
   -3.4155   -2.7257   -6.7644 O   0  0  0  0  0
   -2.8995   -3.5010   -7.0445 H   0  0  0  0  0
   -3.9084   -3.9697   -4.7460 C   0  0  0  0  0
   -5.2439   -4.1890   -5.2088 O   0  0  0  0  0
   -5.2167   -4.1935   -6.1806 H   0  0  0  0  0
   -3.9245   -3.8824   -3.2181 C   0  0  2  0  0
   -4.4628   -5.0812   -2.6689 O   0  0  0  0  0
   -5.3624   -5.1909   -3.0219 H   0  0  0  0  0
   -4.7447   -2.6808   -2.7281 C   0  0  0  0  0
   -5.8031   -2.8438   -2.9703 H   0  0  0  0  0
   -4.7111   -2.6523   -1.6316 H   0  0  0  0  0
   -2.8968   -3.7988   -2.8483 H   0  0  0  0  0
   -3.3211   -4.8334   -5.0778 H   0  0  0  0  0
   -2.3156   -2.5402   -5.0576 H   0  0  0  0  0
   -3.7151   -0.5469   -5.2922 H   0  0  0  0  0
   -5.1830   -1.4922   -5.3060 H   0  0  0  0  0
   -1.3165   -0.5557   -1.2566 C   0  0  0  0  0
   -0.8719   -0.3052   -0.0160 C   0  0  0  0  0
    0.5274   -0.0232    0.3213 C   0  0  0  0  0
    1.3922    0.3978   -0.6970 C   0  0  0  0  0
    2.7328    0.6847   -0.4246 C   0  0  0  0  0
    3.4958    1.1116   -1.4753 O   0  0  0  0  0
    4.3462    1.4487   -1.1496 H   0  0  0  0  0
    3.2303    0.5383    0.8662 C   0  0  0  0  0
    4.5334    0.7761    1.1984 O   0  0  0  0  0
    5.0634    0.8855    0.3941 H   0  0  0  0  0
    2.3818    0.1217    1.8905 C   0  0  0  0  0
    1.0414   -0.1618    1.6226 C   0  0  0  0  0
    0.4111   -0.4862    2.4474 H   0  0  0  0  0
    2.7598    0.0083    2.9052 H   0  0  0  0  0
    1.0240    0.5169   -1.7143 H   0  0  0  0  0
   -1.5599   -0.2974    0.8258 H   0  0  0  0  0
   -0.6420   -0.5878   -2.1076 H   0  0  0  0  0
  1  2  2  0  0  0
  2  3  1  0  0  0
  2 27  1  0  0  0
  3  4  1  0  0  0
  4  5  1  0  0  0
  4  9  1  0  0  0
  4 19  1  0  0  0
  5  6  2  0  0  0
  5  7  1  0  0  0
  7  8  1  0  0  0
  9 10  1  0  0  0
  9 25  1  0  0  0
  9 26  1  0  0  0
 10 11  1  0  0  0
 10 13  1  0  0  0
 10 24  1  0  0  0
 11 12  1  0  0  0
 13 14  1  0  0  0
 13 16  1  0  0  0
 13 23  1  0  0  0
 14 15  1  0  0  0
 16 17  1  0  0  0
 16 19  1  0  0  0
 16 22  1  0  0  0
 17 18  1  0  0  0
 19 20  1  0  0  0
 19 21  1  0  0  0
 27 28  2  0  0  0
 27 43  1  0  0  0
 28 29  1  0  0  0
 28 42  1  0  0  0
 29 30  2  0  0  0
 29 38  1  0  0  0
 30 31  1  0  0  0
 30 41  1  0  0  0
 31 32  1  0  0  0
 31 34  2  0  0  0
 32 33  1  0  0  0
 34 35  1  0  0  0
 34 37  1  0  0  0
 35 36  1  0  0  0
 37 38  2  0  0  0
 37 40  1  0  0  0
 38 39  1  0  0  0
M  END
> <Tumorigenic>
none

> <Score>
42.705193

> <Active/Decoy>
active

> <InChI>
InChI=1S/C16H18O9/c17-9-3-1-8(5-10(9)18)2-4-13(21)25-16(15(23)24)6-11(19)14(22)12(20)7-16/h1-5,11-12,14,17-20,22H,6-7H2,(H,23,24)/b4-2+/t11-,12+,14-,16-

> <Matching Features>
H:14924486185440016873|HBA:149238150533300697|HBA:14924321692640012300|HBA:14924486112070016868

> <Mol. Index>
1088

> <Pharmacophore Match>
Model -1

> <# Confs.>
25

> <Source Database>
Pharm-Screening-input-NANPDB_After_DataWarror.ldb

> <Pharmacophore-Fit Score>
42.71

> <formula>
C16H18O9

> <Mutagenic>
none

> <Reproductive Effective>
none

> <Irritant>
none

$$$$
(-)-3,4-divanillyltetrahydrofuran
XX    ILIB03122402113D

 49 51  0  0  1  0              1 V2000
   -1.3547   -3.3007    1.4549 O   0  0  0  0  0
   -1.9972   -3.0942    0.1888 C   0  0  0  0  0
   -1.7555   -1.6414   -0.2090 C   0  0  1  0  0
   -0.3639   -1.4132    0.4083 C   0  0  2  0  0
   -0.4982   -2.1803    1.7185 C   0  0  0  0  0
   -0.9728   -1.5797    2.5031 H   0  0  0  0  0
    0.4636   -2.5437    2.0937 H   0  0  0  0  0
    0.0126    0.0511    0.5850 C   0  0  0  0  0
    1.4792    0.2818    0.7915 C   0  0  0  0  0
    2.3264    0.4737   -0.3134 C   0  0  0  0  0
    3.6983    0.6775   -0.1334 C   0  0  0  0  0
    4.6032    0.8764   -1.1376 O   0  0  0  0  0
    4.0623    0.8612   -2.4564 C   0  0  0  0  0
    3.6208   -0.1124   -2.6912 H   0  0  0  0  0
    3.3355    1.6687   -2.5943 H   0  0  0  0  0
    4.8866    1.0321   -3.1560 H   0  0  0  0  0
    4.2130    0.6902    1.1674 C   0  0  0  0  0
    5.5450    0.8982    1.4027 O   0  0  0  0  0
    5.9827    1.0512    0.5467 H   0  0  0  0  0
    3.3872    0.4874    2.2712 C   0  0  0  0  0
    2.0226    0.2805    2.0818 C   0  0  0  0  0
    1.3855    0.1218    2.9479 H   0  0  0  0  0
    3.7973    0.4925    3.2774 H   0  0  0  0  0
    1.8853    0.4615   -1.3069 H   0  0  0  0  0
   -0.3387    0.6386   -0.2789 H   0  0  0  0  0
   -0.5291    0.4615    1.4551 H   0  0  0  0  0
    0.3913   -1.9143   -0.2147 H   0  0  0  0  0
   -1.8025   -1.3881   -1.7063 C   0  0  0  0  0
   -3.2219   -1.2136   -2.2136 C   0  0  0  0  0
   -3.8148    0.0611   -2.2331 C   0  0  0  0  0
   -5.1232    0.2327   -2.7002 C   0  0  0  0  0
   -5.7856    1.4250   -2.7630 O   0  0  0  0  0
   -5.0499    2.5560   -2.3038 C   0  0  0  0  0
   -4.7918    2.4556   -1.2441 H   0  0  0  0  0
   -4.1544    2.7194   -2.9129 H   0  0  0  0  0
   -5.6926    3.4373   -2.4104 H   0  0  0  0  0
   -5.8302   -0.8876   -3.1471 C   0  0  0  0  0
   -7.1084   -0.7764   -3.6270 O   0  0  0  0  0
   -7.3545    0.1641   -3.6101 H   0  0  0  0  0
   -5.2610   -2.1589   -3.1209 C   0  0  0  0  0
   -3.9596   -2.3209   -2.6508 C   0  0  0  0  0
   -3.5225   -3.3158   -2.6308 H   0  0  0  0  0
   -5.8210   -3.0232   -3.4652 H   0  0  0  0  0
   -3.2280    0.9055   -1.8816 H   0  0  0  0  0
   -1.2192   -0.5046   -1.9668 H   0  0  0  0  0
   -1.3598   -2.2310   -2.2379 H   0  0  0  0  0
   -2.4686   -1.0009    0.3209 H   0  0  0  0  0
   -3.0623   -3.3216    0.2855 H   0  0  0  0  0
   -1.5544   -3.7981   -0.5253 H   0  0  0  0  0
  1  2  1  0  0  0
  1  5  1  0  0  0
  2  3  1  0  0  0
  2 48  1  0  0  0
  2 49  1  0  0  0
  3  4  1  0  0  0
  3 28  1  0  0  0
  3 47  1  0  0  0
  4  5  1  0  0  0
  4  8  1  0  0  0
  4 27  1  0  0  0
  5  6  1  0  0  0
  5  7  1  0  0  0
  8  9  1  0  0  0
  8 25  1  0  0  0
  8 26  1  0  0  0
  9 10  2  0  0  0
  9 21  1  0  0  0
 10 11  1  0  0  0
 10 24  1  0  0  0
 11 12  1  0  0  0
 11 17  2  0  0  0
 12 13  1  0  0  0
 13 14  1  0  0  0
 13 15  1  0  0  0
 13 16  1  0  0  0
 17 18  1  0  0  0
 17 20  1  0  0  0
 18 19  1  0  0  0
 20 21  2  0  0  0
 20 23  1  0  0  0
 21 22  1  0  0  0
 28 29  1  0  0  0
 28 45  1  0  0  0
 28 46  1  0  0  0
 29 30  2  0  0  0
 29 41  1  0  0  0
 30 31  1  0  0  0
 30 44  1  0  0  0
 31 32  1  0  0  0
 31 37  2  0  0  0
 32 33  1  0  0  0
 33 34  1  0  0  0
 33 35  1  0  0  0
 33 36  1  0  0  0
 37 38  1  0  0  0
 37 40  1  0  0  0
 38 39  1  0  0  0
 40 41  2  0  0  0
 40 43  1  0  0  0
 41 42  1  0  0  0
M  END
> <Tumorigenic>
none

> <Score>
42.711773

> <Active/Decoy>
active

> <InChI>
InChI=1S/C20H24O5/c1-23-19-9-13(3-5-17(19)21)7-15-11-25-12-16(15)8-14-4-6-18(22)20(10-14)24-2/h3-6,9-10,15-16,21-22H,7-8,11-12H2,1-2H3/t15-,16-/m0/s1

> <Matching Features>
H:14924486185440016873|HBA:149238150533300697|HBA:14924321692640012300|HBA:14924486112070016868

> <Mol. Index>
986

> <Pharmacophore Match>
Model -1

> <# Confs.>
25

> <Source Database>
Pharm-Screening-input-NANPDB_After_DataWarror.ldb

> <Pharmacophore-Fit Score>
42.71

> <formula>
C20H24O5

> <Mutagenic>
none

> <Reproductive Effective>
none

> <Irritant>
none

$$$$
(1R*,2R*,3E,7R*,11R*,12S*)-16-O-(3-hydroxy-3-methyl-glutaryl)-dolabella-3,8(17)-dien- 2,7,9,16,18-pentol
XX    ILIB03122402113D

 77 78  0  0  1  0              1 V2000
   -3.9946   -1.9320    2.2924 O   0  0  0  0  0
   -3.5774   -1.3674    1.2973 C   0  0  0  0  0
   -2.2793   -1.1274    0.9964 O   0  0  0  0  0
   -1.3012   -1.5807    1.9387 C   0  0  0  0  0
    0.0657   -1.2305    1.4421 C   0  0  0  0  0
    0.8746   -0.4214    2.1717 C   0  0  0  0  0
    2.2536    0.0224    1.7470 C   0  0  2  0  0
    3.2294   -0.6620    2.5371 O   0  0  0  0  0
    2.9610   -0.6074    3.4700 H   0  0  0  0  0
    2.5189    1.5620    1.7383 C   0  0  1  0  0
    3.6642    2.0243    0.7465 C   0  0  2  0  0
    3.2130    3.4075    0.1676 C   0  0  2  0  0
    4.2631    4.5264    0.2908 C   0  0  0  0  0
    4.5799    4.7404    1.6700 O   0  0  0  0  0
    3.7941    5.1040    2.1116 H   0  0  0  0  0
    5.5692    4.1378   -0.4047 C   0  0  0  0  0
    6.0236    3.2557    0.0608 H   0  0  0  0  0
    5.4140    3.9302   -1.4684 H   0  0  0  0  0
    6.3134    4.9409   -0.3152 H   0  0  0  0  0
    3.7420    5.8468   -0.2884 C   0  0  0  0  0
    3.4791    5.7442   -1.3462 H   0  0  0  0  0
    4.4926    6.6369   -0.1906 H   0  0  0  0  0
    2.8576    6.2001    0.2558 H   0  0  0  0  0
    1.8885    3.7398    0.8707 C   0  0  0  0  0
    1.3078    2.3908    1.2659 C   0  0  0  0  0
    0.8191    1.9373    0.3998 H   0  0  0  0  0
    0.5438    2.5059    2.0428 H   0  0  0  0  0
    2.0366    4.3677    1.7555 H   0  0  0  0  0
    1.2066    4.2820    0.2071 H   0  0  0  0  0
    2.9815    3.3013   -0.8983 H   0  0  0  0  0
    4.0816    1.0374   -0.3931 C   0  0  0  0  0
    3.0131    0.7448   -1.4833 C   0  0  1  0  0
    3.4015    1.4258   -2.6831 O   0  0  0  0  0
    2.6950    1.2958   -3.3386 H   0  0  0  0  0
    2.7551   -0.7185   -1.8299 C   0  0  0  0  0
    1.3306   -1.1217   -2.1978 C   0  0  2  0  0
    0.9321   -0.3311   -3.3211 O   0  0  0  0  0
    0.0485   -0.6296   -3.5922 H   0  0  0  0  0
    0.2831   -0.9450   -1.0788 C   0  0  0  0  0
    0.4867   -1.8653    0.1329 C   0  0  0  0  0
    1.5261   -2.2051    0.2111 H   0  0  0  0  0
   -0.0835   -2.7895   -0.0232 H   0  0  0  0  0
    0.2373    0.1068   -0.7799 H   0  0  0  0  0
   -0.7130   -1.1421   -1.4991 H   0  0  0  0  0
    1.3082   -2.1668   -2.5305 H   0  0  0  0  0
    3.7352   -1.6387   -1.8428 C   0  0  0  0  0
    4.7649   -1.3826   -1.6171 H   0  0  0  0  0
    3.5354   -2.6738   -2.0977 H   0  0  0  0  0
    2.0706    1.1979   -1.1799 H   0  0  0  0  0
    4.9759    1.4529   -0.8788 H   0  0  0  0  0
    4.4216    0.1166    0.0931 H   0  0  0  0  0
    4.5776    2.1604    1.3417 H   0  0  0  0  0
    2.8915    2.0227    3.1772 C   0  0  0  0  0
    3.8239    1.5582    3.5158 H   0  0  0  0  0
    3.0443    3.1035    3.2482 H   0  0  0  0  0
    2.1038    1.7577    3.8915 H   0  0  0  0  0
    2.4080   -0.3488    0.7463 H   0  0  0  0  0
    0.5200   -0.0360    3.1246 H   0  0  0  0  0
   -1.4061   -2.6583    2.0741 H   0  0  0  0  0
   -1.4765   -1.0868    2.9095 H   0  0  0  0  0
   -4.4746   -0.7920    0.2258 C   0  0  0  0  0
   -4.7728   -1.8158   -0.8620 C   0  0  2  0  0
   -3.5503   -2.2341   -1.4762 O   0  0  0  0  0
   -3.0772   -1.4416   -1.7801 H   0  0  0  0  0
   -5.6854   -1.2430   -1.9384 C   0  0  0  0  0
   -5.0596   -0.0560   -2.6308 C   0  0  0  0  0
   -3.8640    0.1342   -2.8024 O   0  0  0  0  0
   -6.0142    0.8271   -3.0146 O   0  0  0  0  0
   -5.6272    1.6204   -3.4476 H   0  0  0  0  0
   -5.9049   -2.0112   -2.6894 H   0  0  0  0  0
   -6.6359   -0.9187   -1.4955 H   0  0  0  0  0
   -5.4327   -3.0747   -0.2839 C   0  0  0  0  0
   -5.6498   -3.7969   -1.0804 H   0  0  0  0  0
   -6.3673   -2.8385    0.2318 H   0  0  0  0  0
   -4.7665   -3.5917    0.4156 H   0  0  0  0  0
   -3.9855    0.0857   -0.2132 H   0  0  0  0  0
   -5.4059   -0.4609    0.6999 H   0  0  0  0  0
  1  2  2  0  0  0
  2  3  1  0  0  0
  2 61  1  0  0  0
  3  4  1  0  0  0
  4  5  1  0  0  0
  4 59  1  0  0  0
  4 60  1  0  0  0
  5  6  2  0  0  0
  5 40  1  0  0  0
  6  7  1  0  0  0
  6 58  1  0  0  0
  7  8  1  0  0  0
  7 10  1  0  0  0
  7 57  1  0  0  0
  8  9  1  0  0  0
 10 11  1  0  0  0
 10 25  1  0  0  0
 10 53  1  0  0  0
 11 12  1  0  0  0
 11 31  1  0  0  0
 11 52  1  0  0  0
 12 13  1  0  0  0
 12 24  1  0  0  0
 12 30  1  0  0  0
 13 14  1  0  0  0
 13 16  1  0  0  0
 13 20  1  0  0  0
 14 15  1  0  0  0
 16 17  1  0  0  0
 16 18  1  0  0  0
 16 19  1  0  0  0
 20 21  1  0  0  0
 20 22  1  0  0  0
 20 23  1  0  0  0
 24 25  1  0  0  0
 24 28  1  0  0  0
 24 29  1  0  0  0
 25 26  1  0  0  0
 25 27  1  0  0  0
 31 32  1  0  0  0
 31 50  1  0  0  0
 31 51  1  0  0  0
 32 33  1  0  0  0
 32 35  1  0  0  0
 32 49  1  0  0  0
 33 34  1  0  0  0
 35 36  1  0  0  0
 35 46  2  0  0  0
 36 37  1  0  0  0
 36 39  1  0  0  0
 36 45  1  0  0  0
 37 38  1  0  0  0
 39 40  1  0  0  0
 39 43  1  0  0  0
 39 44  1  0  0  0
 40 41  1  0  0  0
 40 42  1  0  0  0
 46 47  1  0  0  0
 46 48  1  0  0  0
 53 54  1  0  0  0
 53 55  1  0  0  0
 53 56  1  0  0  0
 61 62  1  0  0  0
 61 76  1  0  0  0
 61 77  1  0  0  0
 62 63  1  0  0  0
 62 65  1  0  0  0
 62 72  1  0  0  0
 63 64  1  0  0  0
 65 66  1  0  0  0
 65 70  1  0  0  0
 65 71  1  0  0  0
 66 67  2  0  0  0
 66 68  1  0  0  0
 68 69  1  0  0  0
 72 73  1  0  0  0
 72 74  1  0  0  0
 72 75  1  0  0  0
M  END
> <Tumorigenic>
none

> <Score>
42.704437

> <Active/Decoy>
active

> <InChI>
InChI=1S/C26H42O9/c1-15-19(27)7-6-16(14-35-23(32)13-25(4,34)12-22(30)31)10-21(29)26(5)9-8-17(24(2,3)33)18(26)11-20(15)28/h10,17-21,27-29,33-34H,1,6-9,11-14H2,2-5H3,(H,30,31)/b16-10-/t17-,18+,19-,20-,21+,25-,26-/m1/s1

> <Matching Features>
H:14924486185440016873|HBA:149238150533300697|HBA:14924321692640012300|HBA:14924486112070016868

> <Mol. Index>
514

> <Pharmacophore Match>
Model -1

> <# Confs.>
25

> <Source Database>
Pharm-Screening-input-NANPDB_After_DataWarror.ldb

> <Pharmacophore-Fit Score>
42.7

> <formula>
C26H42O9

> <Mutagenic>
none

> <Reproductive Effective>
none

> <Irritant>
none

$$$$
tracheloside
XX    ILIB03122402113D

 73 76  0  0  1  0              1 V2000
   -1.9458   -1.4115    5.2052 O   0  0  0  0  0
   -2.3365   -1.2602    4.0577 C   0  0  0  0  0
   -3.6538   -1.1770    3.7058 O   0  0  0  0  0
   -3.7705   -1.1586    2.2828 C   0  0  0  0  0
   -2.4367   -0.6299    1.7752 C   0  0  1  0  0
   -1.4687   -1.1527    2.8288 C   0  0  2  0  0
   -1.0624   -2.4998    2.5508 O   0  0  0  0  0
   -0.4405   -2.7815    3.2434 H   0  0  0  0  0
   -0.2603   -0.2654    3.1078 C   0  0  0  0  0
    0.7143   -0.1899    1.9519 C   0  0  0  0  0
    1.7909   -1.1007    1.8485 C   0  0  0  0  0
    2.6902   -1.0287    0.7763 C   0  0  0  0  0
    3.7751   -1.8418    0.6129 O   0  0  0  0  0
    3.9531   -2.8325    1.6222 C   0  0  0  0  0
    4.1166   -2.3735    2.6027 H   0  0  0  0  0
    3.1056   -3.5261    1.6489 H   0  0  0  0  0
    4.8481   -3.4096    1.3699 H   0  0  0  0  0
    2.4937   -0.0457   -0.2031 C   0  0  0  0  0
    3.3521    0.0987   -1.2623 O   0  0  0  0  0
    3.4882    1.4196   -1.7905 C   0  0  2  0  0
    2.5322    1.6601   -2.8287 O   0  0  0  0  0
    2.6279    2.9800   -3.3768 C   0  0  1  0  0
    3.9866    3.1519   -4.0595 C   0  0  1  0  0
    4.1131    4.4898   -4.5310 O   0  0  0  0  0
    4.9924    4.5727   -4.9367 H   0  0  0  0  0
    5.1221    2.8558   -3.0800 C   0  0  2  0  0
    6.3603    2.8153   -3.7911 O   0  0  0  0  0
    6.3021    2.1032   -4.4497 H   0  0  0  0  0
    4.9069    1.5266   -2.3583 C   0  0  1  0  0
    5.8516    1.4379   -1.2915 O   0  0  0  0  0
    5.6694    0.6133   -0.8112 H   0  0  0  0  0
    5.1153    0.6915   -3.0395 H   0  0  0  0  0
    5.2210    3.6720   -2.3533 H   0  0  0  0  0
    4.0626    2.4861   -4.9241 H   0  0  0  0  0
    1.4813    3.1499   -4.3587 C   0  0  0  0  0
    1.5866    2.1748   -5.3901 O   0  0  0  0  0
    1.5849    1.3006   -4.9673 H   0  0  0  0  0
    0.5091    3.0189   -3.8718 H   0  0  0  0  0
    1.5123    4.1363   -4.8310 H   0  0  0  0  0
    2.4991    3.7089   -2.5661 H   0  0  0  0  0
    3.3568    2.1496   -0.9768 H   0  0  0  0  0
    1.4494    0.8728   -0.0963 C   0  0  0  0  0
    0.5621    0.7925    0.9750 C   0  0  0  0  0
   -0.2505    1.5108    1.0406 H   0  0  0  0  0
    1.3160    1.6474   -0.8457 H   0  0  0  0  0
    1.9071   -1.8528    2.6253 H   0  0  0  0  0
   -0.5816    0.7433    3.3703 H   0  0  0  0  0
    0.2894   -0.6493    3.9833 H   0  0  0  0  0
   -2.1662   -1.0576    0.3345 C   0  0  0  0  0
   -3.2089   -0.5790   -0.6364 C   0  0  0  0  0
   -3.0878    0.6687   -1.2776 C   0  0  0  0  0
   -4.0626    1.1111   -2.1801 C   0  0  0  0  0
   -4.0422    2.3177   -2.8207 O   0  0  0  0  0
   -2.9164    3.1429   -2.5305 C   0  0  0  0  0
   -2.8856    3.4105   -1.4690 H   0  0  0  0  0
   -1.9831    2.6622   -2.8436 H   0  0  0  0  0
   -3.0245    4.0681   -3.1050 H   0  0  0  0  0
   -5.1596    0.2815   -2.4495 C   0  0  0  0  0
   -6.1608    0.6658   -3.2972 O   0  0  0  0  0
   -5.9694    0.3138   -4.6641 C   0  0  0  0  0
   -5.0776    0.7991   -5.0763 H   0  0  0  0  0
   -5.9193   -0.7739   -4.7887 H   0  0  0  0  0
   -6.8369    0.6756   -5.2253 H   0  0  0  0  0
   -5.3054   -0.9449   -1.8013 C   0  0  0  0  0
   -4.3308   -1.3753   -0.9047 C   0  0  0  0  0
   -4.4541   -2.3365   -0.4130 H   0  0  0  0  0
   -6.1694   -1.5735   -1.9957 H   0  0  0  0  0
   -2.2200    1.2812   -1.0482 H   0  0  0  0  0
   -1.1766   -0.7031    0.0178 H   0  0  0  0  0
   -2.1249   -2.1534    0.2848 H   0  0  0  0  0
   -2.4652    0.4667    1.8445 H   0  0  0  0  0
   -4.6012   -0.5045    2.0020 H   0  0  0  0  0
   -3.9927   -2.1751    1.9422 H   0  0  0  0  0
  1  2  2  0  0  0
  2  3  1  0  0  0
  2  6  1  0  0  0
  3  4  1  0  0  0
  4  5  1  0  0  0
  4 72  1  0  0  0
  4 73  1  0  0  0
  5  6  1  0  0  0
  5 49  1  0  0  0
  5 71  1  0  0  0
  6  7  1  0  0  0
  6  9  1  0  0  0
  7  8  1  0  0  0
  9 10  1  0  0  0
  9 47  1  0  0  0
  9 48  1  0  0  0
 10 11  2  0  0  0
 10 43  1  0  0  0
 11 12  1  0  0  0
 11 46  1  0  0  0
 12 13  1  0  0  0
 12 18  2  0  0  0
 13 14  1  0  0  0
 14 15  1  0  0  0
 14 16  1  0  0  0
 14 17  1  0  0  0
 18 19  1  0  0  0
 18 42  1  0  0  0
 19 20  1  0  0  0
 20 21  1  0  0  0
 20 29  1  0  0  0
 20 41  1  0  0  0
 21 22  1  0  0  0
 22 23  1  0  0  0
 22 35  1  0  0  0
 22 40  1  0  0  0
 23 24  1  0  0  0
 23 26  1  0  0  0
 23 34  1  0  0  0
 24 25  1  0  0  0
 26 27  1  0  0  0
 26 29  1  0  0  0
 26 33  1  0  0  0
 27 28  1  0  0  0
 29 30  1  0  0  0
 29 32  1  0  0  0
 30 31  1  0  0  0
 35 36  1  0  0  0
 35 38  1  0  0  0
 35 39  1  0  0  0
 36 37  1  0  0  0
 42 43  2  0  0  0
 42 45  1  0  0  0
 43 44  1  0  0  0
 49 50  1  0  0  0
 49 69  1  0  0  0
 49 70  1  0  0  0
 50 51  2  0  0  0
 50 65  1  0  0  0
 51 52  1  0  0  0
 51 68  1  0  0  0
 52 53  1  0  0  0
 52 58  2  0  0  0
 53 54  1  0  0  0
 54 55  1  0  0  0
 54 56  1  0  0  0
 54 57  1  0  0  0
 58 59  1  0  0  0
 58 64  1  0  0  0
 59 60  1  0  0  0
 60 61  1  0  0  0
 60 62  1  0  0  0
 60 63  1  0  0  0
 64 65  2  0  0  0
 64 67  1  0  0  0
 65 66  1  0  0  0
M  END
> <Tumorigenic>
none

> <Score>
42.693645

> <Active/Decoy>
active

> <InChI>
InChI=1S/C27H34O12/c1-34-17-6-4-14(9-19(17)35-2)8-16-13-37-26(32)27(16,33)11-15-5-7-18(20(10-15)36-3)38-25-24(31)23(30)22(29)21(12-28)39-25/h4-7,9-10,16,21-25,28-31,33H,8,11-13H2,1-3H3/t16-,21+,22+,23-,24+,25+,27-/m0/s1

> <Matching Features>
H:14924486185440016873|HBA:149238150533300697|HBA:14924321692640012300|HBA:14924486112070016868

> <Mol. Index>
1106

> <Pharmacophore Match>
Model -1

> <# Confs.>
25

> <Source Database>
Pharm-Screening-input-NANPDB_After_DataWarror.ldb

> <Pharmacophore-Fit Score>
42.69

> <formula>
C27H34O12

> <Mutagenic>
none

> <Reproductive Effective>
none

> <Irritant>
none

$$$$
(-)-arctigenin 4'-glucoside
XX    ILIB03122402113D

 72 75  0  0  1  0              1 V2000
   -0.4682    0.6505    4.6294 O   0  0  0  0  0
   -1.2820    0.4754    3.7361 C   0  0  0  0  0
   -2.1700    1.4257    3.3157 O   0  0  0  0  0
   -3.0376    0.8675    2.3275 C   0  0  0  0  0
   -2.2682   -0.3035    1.7407 C   0  0  1  0  0
   -1.4927   -0.8041    2.9492 C   0  0  1  0  0
   -0.1546   -1.4562    2.6363 C   0  0  0  0  0
    0.7473   -0.6094    1.7890 C   0  0  0  0  0
    1.6515    0.2915    2.3658 C   0  0  0  0  0
    2.4842    1.0892    1.5711 C   0  0  0  0  0
    3.3672    2.0141    2.0507 O   0  0  0  0  0
    3.4227    2.1272    3.4701 C   0  0  0  0  0
    2.4592    2.4488    3.8797 H   0  0  0  0  0
    3.7506    1.1872    3.9285 H   0  0  0  0  0
    4.1636    2.8943    3.7161 H   0  0  0  0  0
    2.4118    0.9607    0.1769 C   0  0  0  0  0
    3.1772    1.7309   -0.6597 O   0  0  0  0  0
    3.5420    1.1389   -1.9080 C   0  0  1  0  0
    2.5953    1.3907   -2.9555 O   0  0  0  0  0
    2.4346    2.7823   -3.2567 C   0  0  1  0  0
    3.7628    3.3982   -3.7182 C   0  0  1  0  0
    3.5919    4.8010   -3.8878 O   0  0  0  0  0
    4.4527    5.1699   -4.1558 H   0  0  0  0  0
    4.8701    3.1414   -2.6923 C   0  0  2  0  0
    6.1259    3.5389   -3.2450 O   0  0  0  0  0
    6.2885    3.0034   -4.0404 H   0  0  0  0  0
    4.9199    1.6575   -2.3299 C   0  0  1  0  0
    5.8657    1.4385   -1.2882 O   0  0  0  0  0
    5.5538    1.9150   -0.5008 H   0  0  0  0  0
    5.2693    1.0915   -3.2024 H   0  0  0  0  0
    4.7248    3.7605   -1.7998 H   0  0  0  0  0
    4.0652    2.9803   -4.6852 H   0  0  0  0  0
    1.3351    2.9041   -4.2968 C   0  0  0  0  0
    1.7025    2.1855   -5.4705 O   0  0  0  0  0
    1.8633    1.2632   -5.2060 H   0  0  0  0  0
    0.3869    2.4942   -3.9358 H   0  0  0  0  0
    1.1801    3.9470   -4.5846 H   0  0  0  0  0
    2.0757    3.3005   -2.3582 H   0  0  0  0  0
    3.6208    0.0492   -1.7767 H   0  0  0  0  0
    1.4989    0.0871   -0.4143 C   0  0  0  0  0
    0.6744   -0.7009    0.3865 C   0  0  0  0  0
   -0.0261   -1.3817   -0.0890 H   0  0  0  0  0
    1.4299    0.0090   -1.4954 H   0  0  0  0  0
    1.6831    0.3588    3.4508 H   0  0  0  0  0
    0.3681   -1.7428    3.5593 H   0  0  0  0  0
   -0.3370   -2.4111    2.0997 H   0  0  0  0  0
   -2.1143   -1.4571    3.5878 H   0  0  0  0  0
   -3.1776   -1.3450    1.0930 C   0  0  0  0  0
   -3.9880   -0.8014   -0.0511 C   0  0  0  0  0
   -5.2675   -0.2544    0.1598 C   0  0  0  0  0
   -6.0206    0.2499   -0.9078 C   0  0  0  0  0
   -7.2806    0.7658   -0.8002 O   0  0  0  0  0
   -7.8174    0.7899    0.5197 C   0  0  0  0  0
   -7.9151   -0.2223    0.9258 H   0  0  0  0  0
   -7.2153    1.4227    1.1798 H   0  0  0  0  0
   -8.8208    1.2252    0.4627 H   0  0  0  0  0
   -5.4687    0.2143   -2.1975 C   0  0  0  0  0
   -6.1592    0.6621   -3.2871 O   0  0  0  0  0
   -5.9826    2.0428   -3.5962 C   0  0  0  0  0
   -6.3393    2.6809   -2.7805 H   0  0  0  0  0
   -4.9368    2.2615   -3.8397 H   0  0  0  0  0
   -6.5838    2.2646   -4.4846 H   0  0  0  0  0
   -4.2125   -0.3477   -2.4231 C   0  0  0  0  0
   -3.4732   -0.8472   -1.3534 C   0  0  0  0  0
   -2.4928   -1.2753   -1.5432 H   0  0  0  0  0
   -3.7999   -0.3939   -3.4270 H   0  0  0  0  0
   -5.6584   -0.2395    1.1743 H   0  0  0  0  0
   -2.5829   -2.2018    0.7497 H   0  0  0  0  0
   -3.8683   -1.7404    1.8490 H   0  0  0  0  0
   -1.5595    0.0883    0.9973 H   0  0  0  0  0
   -3.2591    1.6298    1.5743 H   0  0  0  0  0
   -3.9714    0.5703    2.8174 H   0  0  0  0  0
  1  2  2  0  0  0
  2  3  1  0  0  0
  2  6  1  0  0  0
  3  4  1  0  0  0
  4  5  1  0  0  0
  4 71  1  0  0  0
  4 72  1  0  0  0
  5  6  1  0  0  0
  5 48  1  0  0  0
  5 70  1  0  0  0
  6  7  1  0  0  0
  6 47  1  0  0  0
  7  8  1  0  0  0
  7 45  1  0  0  0
  7 46  1  0  0  0
  8  9  2  0  0  0
  8 41  1  0  0  0
  9 10  1  0  0  0
  9 44  1  0  0  0
 10 11  1  0  0  0
 10 16  2  0  0  0
 11 12  1  0  0  0
 12 13  1  0  0  0
 12 14  1  0  0  0
 12 15  1  0  0  0
 16 17  1  0  0  0
 16 40  1  0  0  0
 17 18  1  0  0  0
 18 19  1  0  0  0
 18 27  1  0  0  0
 18 39  1  0  0  0
 19 20  1  0  0  0
 20 21  1  0  0  0
 20 33  1  0  0  0
 20 38  1  0  0  0
 21 22  1  0  0  0
 21 24  1  0  0  0
 21 32  1  0  0  0
 22 23  1  0  0  0
 24 25  1  0  0  0
 24 27  1  0  0  0
 24 31  1  0  0  0
 25 26  1  0  0  0
 27 28  1  0  0  0
 27 30  1  0  0  0
 28 29  1  0  0  0
 33 34  1  0  0  0
 33 36  1  0  0  0
 33 37  1  0  0  0
 34 35  1  0  0  0
 40 41  2  0  0  0
 40 43  1  0  0  0
 41 42  1  0  0  0
 48 49  1  0  0  0
 48 68  1  0  0  0
 48 69  1  0  0  0
 49 50  2  0  0  0
 49 64  1  0  0  0
 50 51  1  0  0  0
 50 67  1  0  0  0
 51 52  1  0  0  0
 51 57  2  0  0  0
 52 53  1  0  0  0
 53 54  1  0  0  0
 53 55  1  0  0  0
 53 56  1  0  0  0
 57 58  1  0  0  0
 57 63  1  0  0  0
 58 59  1  0  0  0
 59 60  1  0  0  0
 59 61  1  0  0  0
 59 62  1  0  0  0
 63 64  2  0  0  0
 63 66  1  0  0  0
 64 65  1  0  0  0
M  END
> <Tumorigenic>
none

> <Score>
42.668194

> <Active/Decoy>
active

> <InChI>
InChI=1S/C27H34O11/c1-33-18-6-4-14(10-20(18)34-2)8-16-13-36-26(32)17(16)9-15-5-7-19(21(11-15)35-3)37-27-25(31)24(30)23(29)22(12-28)38-27/h4-7,10-11,16-17,22-25,27-31H,8-9,12-13H2,1-3H3/t16-,17+,22+,23+,24-,25+,27-/m0/s1

> <Matching Features>
H:14924486185440016873|HBA:149238150533300697|HBA:14924321692640012300|HBA:14924486112070016868

> <Mol. Index>
1128

> <Pharmacophore Match>
Model -1

> <# Confs.>
25

> <Source Database>
Pharm-Screening-input-NANPDB_After_DataWarror.ldb

> <Pharmacophore-Fit Score>
42.67

> <formula>
C27H34O11

> <Mutagenic>
none

> <Reproductive Effective>
none

> <Irritant>
none

$$$$
hispidulin 7-O-glucoside
XX    ILIB03122402113D

 55 58  0  0  1  0              1 V2000
    3.5308    1.9745   -2.5570 O   0  0  0  0  0
    2.6123    1.4826   -1.9165 C   0  0  0  0  0
    1.2178    1.4608   -2.4062 C   0  0  0  0  0
    0.8351    1.9938   -3.6424 C   0  0  0  0  0
    1.7236    2.5566   -4.5172 O   0  0  0  0  0
    2.6185    2.5179   -4.1411 H   0  0  0  0  0
   -0.5123    1.9568   -4.0313 C   0  0  0  0  0
   -0.8934    2.4382   -5.2512 O   0  0  0  0  0
    0.1580    2.9742   -6.0516 C   0  0  0  0  0
    0.6292    3.8331   -5.5614 H   0  0  0  0  0
    0.8988    2.2057   -6.2964 H   0  0  0  0  0
   -0.2825    3.3245   -6.9899 H   0  0  0  0  0
   -1.4854    1.3527   -3.2290 C   0  0  0  0  0
   -2.7534    1.3120   -3.7125 O   0  0  0  0  0
   -3.7438    0.7167   -2.8832 C   0  0  0  0  0
   -5.0880    0.7694   -3.5972 C   0  0  2  0  0
   -5.3991    2.1635   -3.7944 O   0  0  0  0  0
   -6.5683    2.3524   -4.5856 C   0  0  2  0  0
   -6.8110    3.7465   -4.7678 O   0  0  0  0  0
   -6.2594    4.0365   -5.5140 H   0  0  0  0  0
   -7.7886    1.7530   -3.8863 C   0  0  1  0  0
   -8.9176    1.8253   -4.7563 O   0  0  0  0  0
   -9.0354    2.7590   -5.0028 H   0  0  0  0  0
   -7.5583    0.2887   -3.5174 C   0  0  2  0  0
   -8.6201   -0.1226   -2.6544 O   0  0  0  0  0
   -8.5209   -1.0770   -2.5000 H   0  0  0  0  0
   -6.2186    0.1088   -2.7999 C   0  0  1  0  0
   -5.9262   -1.2792   -2.6710 O   0  0  0  0  0
   -6.5995   -1.6701   -2.0890 H   0  0  0  0  0
   -6.2924    0.5310   -1.7903 H   0  0  0  0  0
   -7.6154   -0.3484   -4.4084 H   0  0  0  0  0
   -8.0397    2.3299   -2.9868 H   0  0  0  0  0
   -6.4307    1.9105   -5.5809 H   0  0  0  0  0
   -4.9715    0.2981   -4.5693 H   0  0  0  0  0
   -3.4802   -0.3419   -2.6890 H   0  0  0  0  0
   -3.8088    1.2225   -1.9197 H   0  0  0  0  0
   -1.0904    0.8179   -1.9880 C   0  0  0  0  0
    0.2528    0.8665   -1.5927 C   0  0  0  0  0
    0.5326    0.3315   -0.3585 O   0  0  0  0  0
    1.8413    0.3431    0.0962 C   0  0  0  0  0
    2.8624    0.8750   -0.5944 C   0  0  0  0  0
    3.8867    0.8878   -0.2382 H   0  0  0  0  0
    2.0236   -0.2823    1.4211 C   0  0  0  0  0
    1.1869   -1.3324    1.8401 C   0  0  0  0  0
    1.3493   -1.9316    3.0908 C   0  0  0  0  0
    2.3581   -1.4885    3.9405 C   0  0  0  0  0
    2.5415   -2.0591    5.1682 O   0  0  0  0  0
    1.8740   -2.7508    5.2937 H   0  0  0  0  0
    3.2013   -0.4560    3.5541 C   0  0  0  0  0
    3.0354    0.1424    2.3017 C   0  0  0  0  0
    3.7164    0.9459    2.0287 H   0  0  0  0  0
    3.9909   -0.1091    4.2153 H   0  0  0  0  0
    0.6862   -2.7398    3.3879 H   0  0  0  0  0
    0.3882   -1.7016    1.2006 H   0  0  0  0  0
   -1.8055    0.3410   -1.3239 H   0  0  0  0  0
  1  2  2  0  0  0
  2  3  1  0  0  0
  2 41  1  0  0  0
  3  4  2  0  0  0
  3 38  1  0  0  0
  4  5  1  0  0  0
  4  7  1  0  0  0
  5  6  1  0  0  0
  7  8  1  0  0  0
  7 13  2  0  0  0
  8  9  1  0  0  0
  9 10  1  0  0  0
  9 11  1  0  0  0
  9 12  1  0  0  0
 13 14  1  0  0  0
 13 37  1  0  0  0
 14 15  1  0  0  0
 15 16  1  0  0  0
 15 35  1  0  0  0
 15 36  1  0  0  0
 16 17  1  0  0  0
 16 27  1  0  0  0
 16 34  1  0  0  0
 17 18  1  0  0  0
 18 19  1  0  0  0
 18 21  1  0  0  0
 18 33  1  0  0  0
 19 20  1  0  0  0
 21 22  1  0  0  0
 21 24  1  0  0  0
 21 32  1  0  0  0
 22 23  1  0  0  0
 24 25  1  0  0  0
 24 27  1  0  0  0
 24 31  1  0  0  0
 25 26  1  0  0  0
 27 28  1  0  0  0
 27 30  1  0  0  0
 28 29  1  0  0  0
 37 38  2  0  0  0
 37 55  1  0  0  0
 38 39  1  0  0  0
 39 40  1  0  0  0
 40 41  2  0  0  0
 40 43  1  0  0  0
 41 42  1  0  0  0
 43 44  2  0  0  0
 43 50  1  0  0  0
 44 45  1  0  0  0
 44 54  1  0  0  0
 45 46  2  0  0  0
 45 53  1  0  0  0
 46 47  1  0  0  0
 46 49  1  0  0  0
 47 48  1  0  0  0
 49 50  2  0  0  0
 49 52  1  0  0  0
 50 51  1  0  0  0
M  END
> <Tumorigenic>
none

> <Score>
42.669693

> <Active/Decoy>
active

> <InChI>
InChI=1S/C22H22O11/c1-30-21-14(31-8-15-17(25)19(27)20(28)22(29)33-15)7-13-16(18(21)26)11(24)6-12(32-13)9-2-4-10(23)5-3-9/h2-7,15,17,19-20,22-23,25-29H,8H2,1H3/t15-,17-,19+,20-,22-/m0/s1

> <Matching Features>
H:14924486185440016873|HBA:149238150533300697|HBA:14924321692640012300|HBA:14924486112070016868

> <Mol. Index>
1066

> <Pharmacophore Match>
Model -1

> <# Confs.>
25

> <Source Database>
Pharm-Screening-input-NANPDB_After_DataWarror.ldb

> <Pharmacophore-Fit Score>
42.67

> <formula>
C22H22O11

> <Mutagenic>
none

> <Reproductive Effective>
none

> <Irritant>
none

$$$$
diosmetin-7-glucoside
XX    ILIB03122402113D

 55 58  0  0  1  0              1 V2000
   -1.9532   -0.9575    4.9445 O   0  0  0  0  0
   -1.8603   -0.7803    3.7375 C   0  0  0  0  0
   -3.0099   -0.8902    2.8191 C   0  0  0  0  0
   -2.7883   -0.6717    1.4594 C   0  0  0  0  0
   -1.5540   -0.3732    0.9391 O   0  0  0  0  0
   -0.4702   -0.2762    1.7964 C   0  0  0  0  0
   -0.5553   -0.4577    3.1240 C   0  0  0  0  0
    0.2943   -0.3872    3.7955 H   0  0  0  0  0
    0.8034    0.0373    1.1206 C   0  0  0  0  0
    0.8216    0.8034   -0.0536 C   0  0  0  0  0
    2.0305    1.1064   -0.6918 C   0  0  0  0  0
    2.0244    1.8558   -1.8399 O   0  0  0  0  0
    1.1053    2.0910   -2.0513 H   0  0  0  0  0
    3.2512    0.6619   -0.1800 C   0  0  0  0  0
    4.3711    1.0117   -0.8824 O   0  0  0  0  0
    5.6030    0.5512   -0.3402 C   0  0  0  0  0
    5.7771    0.9662    0.6596 H   0  0  0  0  0
    5.6377   -0.5435   -0.3224 H   0  0  0  0  0
    6.4058    0.9012   -0.9950 H   0  0  0  0  0
    3.2447   -0.0983    0.9905 C   0  0  0  0  0
    2.0369   -0.4048    1.6310 C   0  0  0  0  0
    2.0858   -0.9950    2.5428 H   0  0  0  0  0
    4.1619   -0.4706    1.4371 H   0  0  0  0  0
   -0.1054    1.1697   -0.4891 H   0  0  0  0  0
   -3.8401   -0.7643    0.5403 C   0  0  0  0  0
   -5.1358   -1.0496    0.9729 C   0  0  0  0  0
   -6.2342   -1.1572    0.1826 O   0  0  0  0  0
   -6.0085   -1.6160   -1.1521 C   0  0  2  0  0
   -5.7728   -0.5099   -2.0290 O   0  0  0  0  0
   -5.5274   -0.9147   -3.3794 C   0  0  1  0  0
   -6.7759   -1.5940   -3.9450 C   0  0  1  0  0
   -6.5022   -2.0701   -5.2592 O   0  0  0  0  0
   -7.3070   -2.5141   -5.5808 H   0  0  0  0  0
   -7.1957   -2.7701   -3.0634 C   0  0  2  0  0
   -8.4732   -3.2466   -3.4887 O   0  0  0  0  0
   -9.1128   -2.5209   -3.3921 H   0  0  0  0  0
   -7.2695   -2.3676   -1.5919 C   0  0  1  0  0
   -7.4113   -3.5526   -0.8098 O   0  0  0  0  0
   -7.4033   -3.2868    0.1250 H   0  0  0  0  0
   -8.1645   -1.7583   -1.4127 H   0  0  0  0  0
   -6.5042   -3.6111   -3.1954 H   0  0  0  0  0
   -7.6001   -0.8733   -4.0173 H   0  0  0  0  0
   -5.1606    0.3295   -4.1687 C   0  0  0  0  0
   -6.2333    1.2638   -4.1194 O   0  0  0  0  0
   -6.4077    1.4563   -3.1824 H   0  0  0  0  0
   -4.2705    0.8202   -3.7611 H   0  0  0  0  0
   -4.9808    0.0890   -5.2203 H   0  0  0  0  0
   -4.6680   -1.5980   -3.3932 H   0  0  0  0  0
   -5.1458   -2.2995   -1.1637 H   0  0  0  0  0
   -5.3593   -1.2625    2.3473 C   0  0  0  0  0
   -4.3054   -1.1736    3.2620 C   0  0  0  0  0
   -4.5535   -1.3914    4.5889 O   0  0  0  0  0
   -5.4984   -1.5913    4.7042 H   0  0  0  0  0
   -6.3618   -1.5032    2.6940 H   0  0  0  0  0
   -3.6300   -0.5661   -0.5075 H   0  0  0  0  0
  1  2  2  0  0  0
  2  3  1  0  0  0
  2  7  1  0  0  0
  3  4  2  0  0  0
  3 51  1  0  0  0
  4  5  1  0  0  0
  4 25  1  0  0  0
  5  6  1  0  0  0
  6  7  2  0  0  0
  6  9  1  0  0  0
  7  8  1  0  0  0
  9 10  2  0  0  0
  9 21  1  0  0  0
 10 11  1  0  0  0
 10 24  1  0  0  0
 11 12  1  0  0  0
 11 14  2  0  0  0
 12 13  1  0  0  0
 14 15  1  0  0  0
 14 20  1  0  0  0
 15 16  1  0  0  0
 16 17  1  0  0  0
 16 18  1  0  0  0
 16 19  1  0  0  0
 20 21  2  0  0  0
 20 23  1  0  0  0
 21 22  1  0  0  0
 25 26  2  0  0  0
 25 55  1  0  0  0
 26 27  1  0  0  0
 26 50  1  0  0  0
 27 28  1  0  0  0
 28 29  1  0  0  0
 28 37  1  0  0  0
 28 49  1  0  0  0
 29 30  1  0  0  0
 30 31  1  0  0  0
 30 43  1  0  0  0
 30 48  1  0  0  0
 31 32  1  0  0  0
 31 34  1  0  0  0
 31 42  1  0  0  0
 32 33  1  0  0  0
 34 35  1  0  0  0
 34 37  1  0  0  0
 34 41  1  0  0  0
 35 36  1  0  0  0
 37 38  1  0  0  0
 37 40  1  0  0  0
 38 39  1  0  0  0
 43 44  1  0  0  0
 43 46  1  0  0  0
 43 47  1  0  0  0
 44 45  1  0  0  0
 50 51  2  0  0  0
 50 54  1  0  0  0
 51 52  1  0  0  0
 52 53  1  0  0  0
M  END
> <Tumorigenic>
none

> <Score>
42.66671

> <Active/Decoy>
active

> <InChI>
InChI=1S/C22H22O11/c1-30-14-3-2-9(4-11(14)24)15-7-13(26)18-12(25)5-10(6-16(18)32-15)31-22-21(29)20(28)19(27)17(8-23)33-22/h2-7,17,19-25,27-29H,8H2,1H3/t17-,19-,20+,21-,22-/m1/s1

> <Matching Features>
H:14924486185440016873|HBA:149238150533300697|HBA:14924321692640012300|HBA:14924486112070016868

> <Mol. Index>
990

> <Pharmacophore Match>
Model -1

> <# Confs.>
25

> <Source Database>
Pharm-Screening-input-NANPDB_After_DataWarror.ldb

> <Pharmacophore-Fit Score>
42.67

> <formula>
C22H22O11

> <Mutagenic>
none

> <Reproductive Effective>
none

> <Irritant>
none

$$$$
euphoscopin A
XX    ILIB03122402113D

 79 81  0  0  1  0              1 V2000
    3.3440    1.4738   -2.4036 O   0  0  0  0  0
    2.8635    0.3787   -2.7241 C   0  0  0  0  0
    3.1274   -0.8749   -1.8573 C   0  0  0  0  0
    2.5317   -0.5453   -0.4975 C   0  0  0  0  0
    1.4276   -1.0632    0.0691 C   0  0  0  0  0
    0.8871   -0.7015    1.4366 C   0  0  2  0  0
   -0.0897    0.5113    1.4381 C   0  0  1  0  0
    0.6015    1.6515    0.8984 O   0  0  0  0  0
    0.9397    2.6416    1.7691 C   0  0  0  0  0
    0.7130    2.6611    2.9715 O   0  0  0  0  0
    1.6737    3.7263    1.0393 C   0  0  0  0  0
    1.6943    4.6282    1.6570 H   0  0  0  0  0
    2.6959    3.4042    0.8352 H   0  0  0  0  0
    1.1543    3.9698    0.1085 H   0  0  0  0  0
   -1.4908    0.3358    0.7654 C   0  0  2  0  0
   -2.2596   -0.5621    1.5841 O   0  0  0  0  0
   -2.1695   -1.8912    1.3021 C   0  0  0  0  0
   -1.2002   -2.4685    0.8275 O   0  0  0  0  0
   -3.4442   -2.5764    1.6889 C   0  0  0  0  0
   -3.4841   -3.5619    1.2150 H   0  0  0  0  0
   -3.4844   -2.6964    2.7738 H   0  0  0  0  0
   -4.3028   -1.9993    1.3338 H   0  0  0  0  0
   -1.6387   -0.0288   -0.7419 C   0  0  1  0  0
   -3.0930    0.3753   -1.1029 C   0  0  1  0  0
   -3.9545   -0.7625   -1.0145 O   0  0  0  0  0
   -5.0327   -0.7951   -1.8460 C   0  0  0  0  0
   -5.3685    0.0648   -2.6447 O   0  0  0  0  0
   -5.7850   -2.0473   -1.6427 C   0  0  0  0  0
   -7.1652   -2.0565   -1.8438 C   0  0  0  0  0
   -7.8706   -3.2450   -1.6631 C   0  0  0  0  0
   -7.1957   -4.4092   -1.2902 C   0  0  0  0  0
   -5.8128   -4.3891   -1.0971 C   0  0  0  0  0
   -5.0985   -3.2046   -1.2749 C   0  0  0  0  0
   -4.0232   -3.1954   -1.1259 H   0  0  0  0  0
   -5.2934   -5.2988   -0.8090 H   0  0  0  0  0
   -7.7483   -5.3341   -1.1521 H   0  0  0  0  0
   -8.9450   -3.2658   -1.8136 H   0  0  0  0  0
   -7.6937   -1.1539   -2.1375 H   0  0  0  0  0
   -3.5455    1.3771   -0.0068 C   0  0  1  0  0
   -2.2874    1.6620    0.8185 C   0  0  0  0  0
   -2.5618    1.9379    1.8426 H   0  0  0  0  0
   -1.7257    2.4942    0.3798 H   0  0  0  0  0
   -4.1514    2.6505   -0.5824 C   0  0  0  0  0
   -5.0475    2.4203   -1.1664 H   0  0  0  0  0
   -4.4372    3.3383    0.2201 H   0  0  0  0  0
   -3.4447    3.1697   -1.2379 H   0  0  0  0  0
   -4.3012    0.9087    0.6379 H   0  0  0  0  0
   -3.1688    0.8388   -2.0966 H   0  0  0  0  0
   -0.6881    0.6532   -1.7115 C   0  0  0  0  0
   -0.3526    0.2264   -2.9475 C   0  0  0  0  0
    0.6463    1.0201   -3.7734 C   0  0  2  0  0
    0.1010    1.2842   -5.0684 O   0  0  0  0  0
   -0.7353    1.7645   -4.9433 H   0  0  0  0  0
    1.9891    0.3068   -3.9645 C   0  0  0  0  0
    2.5535    0.8069   -4.7636 H   0  0  0  0  0
    1.8676   -0.7116   -4.3316 H   0  0  0  0  0
    0.8284    2.0008   -3.3162 H   0  0  0  0  0
   -0.9476   -0.9906   -3.6096 C   0  0  0  0  0
   -1.6089   -0.6844   -4.4265 H   0  0  0  0  0
   -1.5360   -1.6107   -2.9309 H   0  0  0  0  0
   -0.1720   -1.6352   -4.0290 H   0  0  0  0  0
   -0.2519    1.5883   -1.3737 H   0  0  0  0  0
   -1.5236   -1.1127   -0.8624 H   0  0  0  0  0
   -0.3068    0.7080    2.4998 H   0  0  0  0  0
    2.0132   -0.4843    2.4650 C   0  0  0  0  0
    1.5964   -0.3960    3.4746 H   0  0  0  0  0
    2.5942    0.4211    2.2697 H   0  0  0  0  0
    2.7061   -1.3344    2.4733 H   0  0  0  0  0
    0.3538   -1.5857    1.8002 H   0  0  0  0  0
    0.8508   -1.8106   -0.4672 H   0  0  0  0  0
    3.0722    0.2175    0.0468 H   0  0  0  0  0
    2.6207   -2.1936   -2.4530 C   0  0  0  0  0
    1.5406   -2.1935   -2.6128 H   0  0  0  0  0
    2.8504   -3.0401   -1.7939 H   0  0  0  0  0
    3.0937   -2.3994   -3.4202 H   0  0  0  0  0
    4.6567   -1.0097   -1.7034 C   0  0  0  0  0
    5.1102   -0.1098   -1.2701 H   0  0  0  0  0
    4.9208   -1.8549   -1.0558 H   0  0  0  0  0
    5.1335   -1.1685   -2.6781 H   0  0  0  0  0
  1  2  2  0  0  0
  2  3  1  0  0  0
  2 54  1  0  0  0
  3  4  1  0  0  0
  3 72  1  0  0  0
  3 76  1  0  0  0
  4  5  2  0  0  0
  4 71  1  0  0  0
  5  6  1  0  0  0
  5 70  1  0  0  0
  6  7  1  0  0  0
  6 65  1  0  0  0
  6 69  1  0  0  0
  7  8  1  0  0  0
  7 15  1  0  0  0
  7 64  1  0  0  0
  8  9  1  0  0  0
  9 10  2  0  0  0
  9 11  1  0  0  0
 11 12  1  0  0  0
 11 13  1  0  0  0
 11 14  1  0  0  0
 15 16  1  0  0  0
 15 23  1  0  0  0
 15 40  1  0  0  0
 16 17  1  0  0  0
 17 18  2  0  0  0
 17 19  1  0  0  0
 19 20  1  0  0  0
 19 21  1  0  0  0
 19 22  1  0  0  0
 23 24  1  0  0  0
 23 49  1  0  0  0
 23 63  1  0  0  0
 24 25  1  0  0  0
 24 39  1  0  0  0
 24 48  1  0  0  0
 25 26  1  0  0  0
 26 27  2  0  0  0
 26 28  1  0  0  0
 28 29  2  0  0  0
 28 33  1  0  0  0
 29 30  1  0  0  0
 29 38  1  0  0  0
 30 31  2  0  0  0
 30 37  1  0  0  0
 31 32  1  0  0  0
 31 36  1  0  0  0
 32 33  2  0  0  0
 32 35  1  0  0  0
 33 34  1  0  0  0
 39 40  1  0  0  0
 39 43  1  0  0  0
 39 47  1  0  0  0
 40 41  1  0  0  0
 40 42  1  0  0  0
 43 44  1  0  0  0
 43 45  1  0  0  0
 43 46  1  0  0  0
 49 50  2  0  0  0
 49 62  1  0  0  0
 50 51  1  0  0  0
 50 58  1  0  0  0
 51 52  1  0  0  0
 51 54  1  0  0  0
 51 57  1  0  0  0
 52 53  1  0  0  0
 54 55  1  0  0  0
 54 56  1  0  0  0
 58 59  1  0  0  0
 58 60  1  0  0  0
 58 61  1  0  0  0
 65 66  1  0  0  0
 65 67  1  0  0  0
 65 68  1  0  0  0
 72 73  1  0  0  0
 72 74  1  0  0  0
 72 75  1  0  0  0
 76 77  1  0  0  0
 76 78  1  0  0  0
 76 79  1  0  0  0
M  END
> <Tumorigenic>
none

> <Score>
42.65627

> <Active/Decoy>
active

> <InChI>
InChI=1S/C31H40O8/c1-18-13-14-30(6,7)26(35)16-25(34)19(2)15-24-27(38-29(36)23-11-9-8-10-12-23)20(3)17-31(24,39-22(5)33)28(18)37-21(4)32/h8-15,18,20,24-25,27-28,34H,16-17H2,1-7H3/b14-13?,19-15-/t18-,20+,24+,25+,27-,28+,31+/m0/s1

> <Matching Features>
H:14924486185440016873|HBA:149238150533300697|HBA:14924321692640012300|HBA:14924486112070016868

> <Mol. Index>
474

> <Pharmacophore Match>
Model -1

> <# Confs.>
25

> <Source Database>
Pharm-Screening-input-NANPDB_After_DataWarror.ldb

> <Pharmacophore-Fit Score>
42.66

> <formula>
C31H40O8

> <Mutagenic>
none

> <Reproductive Effective>
none

> <Irritant>
none

$$$$
naringenin-7-glucoside
XX    ILIB03122402113D

 53 56  0  0  1  0              1 V2000
    3.6125    0.9668   -2.1552 O   0  0  0  0  0
    2.9730    0.0872   -1.5914 C   0  0  0  0  0
    1.4919    0.0935   -1.5566 C   0  0  0  0  0
    0.8450   -0.9503   -0.8882 C   0  0  0  0  0
    1.4954   -1.9521   -0.2128 O   0  0  0  0  0
    2.8250   -1.6209    0.2205 C   0  0  2  0  0
    2.7996   -0.7752    1.4604 C   0  0  0  0  0
    1.7556   -0.9021    2.3875 C   0  0  0  0  0
    1.7411   -0.1276    3.5478 C   0  0  0  0  0
    2.7750    0.7736    3.7869 C   0  0  0  0  0
    2.7348    1.5200    4.9318 O   0  0  0  0  0
    3.5148    2.0994    4.9492 H   0  0  0  0  0
    3.8243    0.9075    2.8821 C   0  0  0  0  0
    3.8360    0.1318    1.7225 C   0  0  0  0  0
    4.6622    0.2360    1.0224 H   0  0  0  0  0
    4.6355    1.6061    3.0677 H   0  0  0  0  0
    0.9257   -0.2351    4.2572 H   0  0  0  0  0
    0.9467   -1.6065    2.2115 H   0  0  0  0  0
    3.6480   -1.1007   -0.9574 C   0  0  0  0  0
    3.7283   -1.8708   -1.7342 H   0  0  0  0  0
    4.6606   -0.8199   -0.6458 H   0  0  0  0  0
    3.2825   -2.5728    0.5214 H   0  0  0  0  0
   -0.5508   -1.0382   -0.9017 C   0  0  0  0  0
   -1.3278   -0.0528   -1.5406 C   0  0  0  0  0
   -2.6691   -0.2489   -1.4598 O   0  0  0  0  0
   -3.4402    0.2638   -2.5487 C   0  0  2  0  0
   -3.8756    1.6238   -2.3886 O   0  0  0  0  0
   -4.8764    1.8874   -1.3967 C   0  0  1  0  0
   -6.1043    0.9813   -1.5715 C   0  0  1  0  0
   -6.8182    1.4079   -2.7350 O   0  0  0  0  0
   -6.2039    1.3912   -3.4880 H   0  0  0  0  0
   -5.6950   -0.4854   -1.7132 C   0  0  1  0  0
   -6.8336   -1.2984   -1.9892 O   0  0  0  0  0
   -7.2017   -0.9926   -2.8418 H   0  0  0  0  0
   -4.6252   -0.6799   -2.7870 C   0  0  1  0  0
   -5.1849   -0.4111   -4.0725 O   0  0  0  0  0
   -4.4980   -0.5922   -4.7356 H   0  0  0  0  0
   -4.3035   -1.7274   -2.7897 H   0  0  0  0  0
   -5.2971   -0.8355   -0.7545 H   0  0  0  0  0
   -6.8059    1.0941   -0.7389 H   0  0  0  0  0
   -4.2912    1.8539    0.0053 C   0  0  0  0  0
   -3.2714    2.8292    0.1542 O   0  0  0  0  0
   -2.5425    2.5889   -0.4425 H   0  0  0  0  0
   -5.0720    2.0614    0.7451 H   0  0  0  0  0
   -3.8836    0.8668    0.2488 H   0  0  0  0  0
   -5.2029    2.9182   -1.5870 H   0  0  0  0  0
   -2.8218    0.2536   -3.4578 H   0  0  0  0  0
   -0.6771    1.0071   -2.1718 C   0  0  0  0  0
    0.7214    1.0687   -2.2013 C   0  0  0  0  0
    1.2577    2.1360   -2.8692 O   0  0  0  0  0
    2.2254    2.0980   -2.8102 H   0  0  0  0  0
   -1.2392    1.7731   -2.6993 H   0  0  0  0  0
   -1.0436   -1.8518   -0.3733 H   0  0  0  0  0
  1  2  2  0  0  0
  2  3  1  0  0  0
  2 19  1  0  0  0
  3  4  2  0  0  0
  3 49  1  0  0  0
  4  5  1  0  0  0
  4 23  1  0  0  0
  5  6  1  0  0  0
  6  7  1  0  0  0
  6 19  1  0  0  0
  6 22  1  0  0  0
  7  8  2  0  0  0
  7 14  1  0  0  0
  8  9  1  0  0  0
  8 18  1  0  0  0
  9 10  2  0  0  0
  9 17  1  0  0  0
 10 11  1  0  0  0
 10 13  1  0  0  0
 11 12  1  0  0  0
 13 14  2  0  0  0
 13 16  1  0  0  0
 14 15  1  0  0  0
 19 20  1  0  0  0
 19 21  1  0  0  0
 23 24  2  0  0  0
 23 53  1  0  0  0
 24 25  1  0  0  0
 24 48  1  0  0  0
 25 26  1  0  0  0
 26 27  1  0  0  0
 26 35  1  0  0  0
 26 47  1  0  0  0
 27 28  1  0  0  0
 28 29  1  0  0  0
 28 41  1  0  0  0
 28 46  1  0  0  0
 29 30  1  0  0  0
 29 32  1  0  0  0
 29 40  1  0  0  0
 30 31  1  0  0  0
 32 33  1  0  0  0
 32 35  1  0  0  0
 32 39  1  0  0  0
 33 34  1  0  0  0
 35 36  1  0  0  0
 35 38  1  0  0  0
 36 37  1  0  0  0
 41 42  1  0  0  0
 41 44  1  0  0  0
 41 45  1  0  0  0
 42 43  1  0  0  0
 48 49  2  0  0  0
 48 52  1  0  0  0
 49 50  1  0  0  0
 50 51  1  0  0  0
M  END
> <Tumorigenic>
none

> <Score>
42.593918

> <Active/Decoy>
active

> <InChI>
InChI=1S/C21H22O10/c22-8-16-18(26)19(27)20(28)21(31-16)29-11-5-12(24)17-13(25)7-14(30-15(17)6-11)9-1-3-10(23)4-2-9/h1-6,14,16,18-24,26-28H,7-8H2/t14-,16+,18+,19+,20+,21+/m0/s1

> <Matching Features>
H:14924486185440016873|HBA:149238150533300697|HBA:14924321692640012300|HBA:14924486112070016868

> <Mol. Index>
1415

> <Pharmacophore Match>
Model -1

> <# Confs.>
25

> <Source Database>
Pharm-Screening-input-NANPDB_After_DataWarror.ldb

> <Pharmacophore-Fit Score>
42.59

> <formula>
C21H22O10

> <Mutagenic>
none

> <Reproductive Effective>
none

> <Irritant>
none

$$$$
samarcandin
XX    ILIB03122402113D

 61 64  0  0  1  0              1 V2000
    5.9557    1.4844   -1.3780 O   0  0  0  0  0
    5.2095    1.0911   -0.4877 C   0  0  0  0  0
    3.8609    0.8421   -0.7123 O   0  0  0  0  0
    3.0083    0.3954    0.3196 C   0  0  0  0  0
    3.5024    0.1906    1.6039 C   0  0  0  0  0
    2.6278   -0.2486    2.5964 C   0  0  0  0  0
    1.2818   -0.4756    2.2919 C   0  0  0  0  0
    0.7943   -0.2660    0.9956 C   0  0  0  0  0
    1.6669    0.1740   -0.0018 C   0  0  0  0  0
    1.3370    0.3491   -1.0210 H   0  0  0  0  0
   -0.5329   -0.5330    0.8175 O   0  0  0  0  0
   -1.2099    0.2500   -0.1570 C   0  0  0  0  0
   -2.6638    0.4284    0.2414 C   0  0  1  0  0
   -2.8362    1.1582    1.6105 C   0  0  2  0  0
   -2.3032    0.3140    2.6497 O   0  0  0  0  0
   -1.3458    0.2281    2.5062 H   0  0  0  0  0
   -4.3203    1.3210    1.9653 C   0  0  0  0  0
   -5.1546    1.9317    0.8503 C   0  0  0  0  0
   -5.0582    1.0897   -0.4359 C   0  0  1  0  0
   -6.1320    1.4789   -1.5287 C   0  0  0  0  0
   -5.6933    0.9889   -2.9415 C   0  0  2  0  0
   -6.8254    0.7663   -3.7822 O   0  0  0  0  0
   -6.4953    0.4950   -4.6554 H   0  0  0  0  0
   -4.8622   -0.2822   -2.8673 C   0  0  0  0  0
   -3.5473   -0.0867   -2.1106 C   0  0  0  0  0
   -3.5814    0.9624   -0.9457 C   0  0  2  0  0
   -3.0382    2.3024   -1.4981 C   0  0  0  0  0
   -3.2174    3.1405   -0.8258 H   0  0  0  0  0
   -1.9632    2.2593   -1.6947 H   0  0  0  0  0
   -3.4914    2.5754   -2.4527 H   0  0  0  0  0
   -2.7658    0.1891   -2.8309 H   0  0  0  0  0
   -3.2565   -1.0751   -1.7327 H   0  0  0  0  0
   -5.4494   -1.0756   -2.3879 H   0  0  0  0  0
   -4.6506   -0.6614   -3.8755 H   0  0  0  0  0
   -5.1077    1.7622   -3.4466 H   0  0  0  0  0
   -7.4800    0.8172   -1.1286 C   0  0  0  0  0
   -7.7889    1.1093   -0.1194 H   0  0  0  0  0
   -7.4088   -0.2757   -1.1474 H   0  0  0  0  0
   -8.2931    1.1096   -1.8021 H   0  0  0  0  0
   -6.4054    2.9969   -1.6091 C   0  0  0  0  0
   -7.1079    3.2301   -2.4181 H   0  0  0  0  0
   -6.8510    3.3825   -0.6873 H   0  0  0  0  0
   -5.4933    3.5678   -1.8024 H   0  0  0  0  0
   -5.3259    0.0665   -0.1246 H   0  0  0  0  0
   -6.1919    1.9766    1.1977 H   0  0  0  0  0
   -4.8431    2.9658    0.6750 H   0  0  0  0  0
   -4.4269    1.9225    2.8764 H   0  0  0  0  0
   -4.7412    0.3399    2.2269 H   0  0  0  0  0
   -2.0979    2.4954    1.7472 C   0  0  0  0  0
   -2.4762    3.2716    1.0838 H   0  0  0  0  0
   -2.1881    2.8736    2.7723 H   0  0  0  0  0
   -1.0228    2.3833    1.5765 H   0  0  0  0  0
   -3.0161   -0.6030    0.4449 H   0  0  0  0  0
   -0.7324    1.2314   -0.2881 H   0  0  0  0  0
   -1.1635   -0.2625   -1.1424 H   0  0  0  0  0
    0.6134   -0.8188    3.0783 H   0  0  0  0  0
    2.9768   -0.4205    3.6125 H   0  0  0  0  0
    4.9103    0.4386    1.8633 C   0  0  0  0  0
    5.7101    0.8590    0.8803 C   0  0  0  0  0
    6.7624    1.0440    1.0636 H   0  0  0  0  0
    5.2973    0.2760    2.8610 H   0  0  0  0  0
  1  2  2  0  0  0
  2  3  1  0  0  0
  2 59  1  0  0  0
  3  4  1  0  0  0
  4  5  2  0  0  0
  4  9  1  0  0  0
  5  6  1  0  0  0
  5 58  1  0  0  0
  6  7  2  0  0  0
  6 57  1  0  0  0
  7  8  1  0  0  0
  7 56  1  0  0  0
  8  9  2  0  0  0
  8 11  1  0  0  0
  9 10  1  0  0  0
 11 12  1  0  0  0
 12 13  1  0  0  0
 12 54  1  0  0  0
 12 55  1  0  0  0
 13 14  1  0  0  0
 13 26  1  0  0  0
 13 53  1  0  0  0
 14 15  1  0  0  0
 14 17  1  0  0  0
 14 49  1  0  0  0
 15 16  1  0  0  0
 17 18  1  0  0  0
 17 47  1  0  0  0
 17 48  1  0  0  0
 18 19  1  0  0  0
 18 45  1  0  0  0
 18 46  1  0  0  0
 19 20  1  0  0  0
 19 26  1  0  0  0
 19 44  1  0  0  0
 20 21  1  0  0  0
 20 36  1  0  0  0
 20 40  1  0  0  0
 21 22  1  0  0  0
 21 24  1  0  0  0
 21 35  1  0  0  0
 22 23  1  0  0  0
 24 25  1  0  0  0
 24 33  1  0  0  0
 24 34  1  0  0  0
 25 26  1  0  0  0
 25 31  1  0  0  0
 25 32  1  0  0  0
 26 27  1  0  0  0
 27 28  1  0  0  0
 27 29  1  0  0  0
 27 30  1  0  0  0
 36 37  1  0  0  0
 36 38  1  0  0  0
 36 39  1  0  0  0
 40 41  1  0  0  0
 40 42  1  0  0  0
 40 43  1  0  0  0
 49 50  1  0  0  0
 49 51  1  0  0  0
 49 52  1  0  0  0
 58 59  2  0  0  0
 58 61  1  0  0  0
 59 60  1  0  0  0
M  END
> <Tumorigenic>
none

> <Score>
42.58603

> <Active/Decoy>
active

> <InChI>
InChI=1S/C24H32O5/c1-22(2)18-9-12-24(4,27)19(23(18,3)11-10-20(22)25)14-28-16-7-5-15-6-8-21(26)29-17(15)13-16/h5-8,13,18-20,25,27H,9-12,14H2,1-4H3/t18-,19+,20+,23-,24+/m0/s1

> <Matching Features>
H:14924486185440016873|HBA:149238150533300697|HBA:14924321692640012300|HBA:14924486112070016868

> <Mol. Index>
972

> <Pharmacophore Match>
Model -1

> <# Confs.>
25

> <Source Database>
Pharm-Screening-input-NANPDB_After_DataWarror.ldb

> <Pharmacophore-Fit Score>
42.59

> <formula>
C24H32O5

> <Mutagenic>
none

> <Reproductive Effective>
none

> <Irritant>
none

$$$$
(1R,2S,5R,6S)-2-(3,4,5- trimethoxyphenyl)-6-(4-hydroxy-3-methoxyphenyl)-3,7-dioxabicyclo[3.3.0]octane
XX    ILIB03122402113D

 55 58  0  0  1  0              1 V2000
   -3.2977   -0.7732    2.0237 O   0  0  0  0  0
   -2.9551   -0.8407    0.6153 C   0  0  1  0  0
   -4.0875   -0.3858   -0.2520 C   0  0  0  0  0
   -3.9227   -0.3908   -1.6501 C   0  0  0  0  0
   -4.9632    0.0242   -2.4826 C   0  0  0  0  0
   -4.7280   -0.0259   -3.8275 O   0  0  0  0  0
   -5.1103   -1.2404   -4.4681 C   0  0  0  0  0
   -6.1914   -1.4035   -4.3949 H   0  0  0  0  0
   -4.5551   -2.0924   -4.0629 H   0  0  0  0  0
   -4.8569   -1.1514   -5.5293 H   0  0  0  0  0
   -6.1626    0.4948   -1.9298 C   0  0  0  0  0
   -7.1938    0.9443   -2.7049 O   0  0  0  0  0
   -6.8121    1.5295   -3.9471 C   0  0  0  0  0
   -6.3122    0.7988   -4.5913 H   0  0  0  0  0
   -6.1832    2.4122   -3.7914 H   0  0  0  0  0
   -7.7243    1.8549   -4.4562 H   0  0  0  0  0
   -6.3556    0.4635   -0.5408 C   0  0  0  0  0
   -5.3087    0.0342    0.2859 C   0  0  0  0  0
   -5.4241    0.0116    1.3662 H   0  0  0  0  0
   -7.5719    0.8944   -0.0933 O   0  0  0  0  0
   -7.7468    0.8695    1.3207 C   0  0  0  0  0
   -7.0417    1.5413    1.8222 H   0  0  0  0  0
   -7.6591   -0.1517    1.7073 H   0  0  0  0  0
   -8.7577    1.2232    1.5382 H   0  0  0  0  0
   -2.9835   -0.7178   -2.0895 H   0  0  0  0  0
   -1.6429   -0.0656    0.4959 C   0  0  1  0  0
   -1.7288    1.4553    0.5278 C   0  0  0  0  0
   -0.5751    1.9210    1.2419 O   0  0  0  0  0
   -0.0351    0.8374    2.0241 C   0  0  2  0  0
    1.3890    0.5710    1.6183 C   0  0  0  0  0
    1.8292    0.8157    0.3043 C   0  0  0  0  0
    3.1574    0.5686   -0.0655 C   0  0  0  0  0
    3.6790    0.7731   -1.3115 O   0  0  0  0  0
    2.7632    1.2773   -2.2812 C   0  0  0  0  0
    2.3923    2.2672   -1.9965 H   0  0  0  0  0
    1.9350    0.5794   -2.4423 H   0  0  0  0  0
    3.3018    1.3805   -3.2264 H   0  0  0  0  0
    4.0423    0.0741    0.8963 C   0  0  0  0  0
    5.3529   -0.1859    0.5920 O   0  0  0  0  0
    5.4953    0.0394   -0.3439 H   0  0  0  0  0
    3.6257   -0.1696    2.2023 C   0  0  0  0  0
    2.3022    0.0794    2.5605 C   0  0  0  0  0
    1.9879   -0.1131    3.5830 H   0  0  0  0  0
    4.3220   -0.5518    2.9443 H   0  0  0  0  0
    1.1124    1.2035   -0.4145 H   0  0  0  0  0
   -0.9479   -0.3625    1.7988 C   0  0  1  0  0
   -2.1143   -0.4533    2.7792 C   0  0  0  0  0
   -2.2994    0.4826    3.3164 H   0  0  0  0  0
   -1.9510   -1.2399    3.5227 H   0  0  0  0  0
   -0.4196   -1.3231    1.7791 H   0  0  0  0  0
   -0.0425    1.1619    3.0718 H   0  0  0  0  0
   -1.7254    1.8900   -0.4762 H   0  0  0  0  0
   -2.6168    1.8228    1.0536 H   0  0  0  0  0
   -1.0539   -0.3859   -0.3708 H   0  0  0  0  0
   -2.7682   -1.8969    0.4162 H   0  0  0  0  0
  1  2  1  0  0  0
  1 47  1  0  0  0
  2  3  1  0  0  0
  2 26  1  0  0  0
  2 55  1  0  0  0
  3  4  2  0  0  0
  3 18  1  0  0  0
  4  5  1  0  0  0
  4 25  1  0  0  0
  5  6  1  0  0  0
  5 11  2  0  0  0
  6  7  1  0  0  0
  7  8  1  0  0  0
  7  9  1  0  0  0
  7 10  1  0  0  0
 11 12  1  0  0  0
 11 17  1  0  0  0
 12 13  1  0  0  0
 13 14  1  0  0  0
 13 15  1  0  0  0
 13 16  1  0  0  0
 17 18  2  0  0  0
 17 20  1  0  0  0
 18 19  1  0  0  0
 20 21  1  0  0  0
 21 22  1  0  0  0
 21 23  1  0  0  0
 21 24  1  0  0  0
 26 27  1  0  0  0
 26 46  1  0  0  0
 26 54  1  0  0  0
 27 28  1  0  0  0
 27 52  1  0  0  0
 27 53  1  0  0  0
 28 29  1  0  0  0
 29 30  1  0  0  0
 29 46  1  0  0  0
 29 51  1  0  0  0
 30 31  2  0  0  0
 30 42  1  0  0  0
 31 32  1  0  0  0
 31 45  1  0  0  0
 32 33  1  0  0  0
 32 38  2  0  0  0
 33 34  1  0  0  0
 34 35  1  0  0  0
 34 36  1  0  0  0
 34 37  1  0  0  0
 38 39  1  0  0  0
 38 41  1  0  0  0
 39 40  1  0  0  0
 41 42  2  0  0  0
 41 44  1  0  0  0
 42 43  1  0  0  0
 46 47  1  0  0  0
 46 50  1  0  0  0
 47 48  1  0  0  0
 47 49  1  0  0  0
M  END
> <Tumorigenic>
none

> <Score>
42.571793

> <Active/Decoy>
active

> <InChI>
InChI=1S/C22H26O7/c1-24-17-7-12(5-6-16(17)23)20-14-10-29-21(15(14)11-28-20)13-8-18(25-2)22(27-4)19(9-13)26-3/h5-9,14-15,20-21,23H,10-11H2,1-4H3/t14-,15-,20+,21-/m0/s1

> <Matching Features>
H:14924486185440016873|HBA:149238150533300697|HBA:14924321692640012300|HBA:14924486112070016868

> <Mol. Index>
392

> <Pharmacophore Match>
Model -1

> <# Confs.>
25

> <Source Database>
Pharm-Screening-input-NANPDB_After_DataWarror.ldb

> <Pharmacophore-Fit Score>
42.57

> <formula>
C22H26O7

> <Mutagenic>
none

> <Reproductive Effective>
none

> <Irritant>
none

$$$$
chrysoeriol 7-glucoside
XX    ILIB03122402113D

 55 58  0  0  1  0              1 V2000
   -2.3248   -2.4359    2.9866 O   0  0  0  0  0
   -1.8485   -1.7885    2.0648 C   0  0  0  0  0
   -2.6120   -1.4566    0.8451 C   0  0  0  0  0
   -1.9688   -0.7143   -0.1441 C   0  0  0  0  0
   -0.6827   -0.2509   -0.0223 O   0  0  0  0  0
    0.0399   -0.5746    1.1157 C   0  0  0  0  0
   -0.4612   -1.2885    2.1350 C   0  0  0  0  0
    0.0955   -1.5236    3.0352 H   0  0  0  0  0
    1.4115   -0.0263    1.1326 C   0  0  0  0  0
    2.1253    0.1368   -0.0728 C   0  0  0  0  0
    3.4319    0.6475   -0.0774 C   0  0  0  0  0
    4.0359    0.7518   -1.2974 O   0  0  0  0  0
    3.9059    2.0203   -1.9355 C   0  0  0  0  0
    2.8546    2.2508   -2.1413 H   0  0  0  0  0
    4.4301    1.9661   -2.8933 H   0  0  0  0  0
    4.3729    2.8125   -1.3412 H   0  0  0  0  0
    4.0608    0.9474    1.1291 C   0  0  0  0  0
    5.3595    1.3665    1.1418 O   0  0  0  0  0
    5.6343    1.5132    2.0645 H   0  0  0  0  0
    3.3742    0.7868    2.3306 C   0  0  0  0  0
    2.0622    0.3036    2.3277 C   0  0  0  0  0
    1.5648    0.1887    3.2882 H   0  0  0  0  0
    3.8509    1.0227    3.2789 H   0  0  0  0  0
    1.6668   -0.1112   -1.0279 H   0  0  0  0  0
   -2.6457   -0.3565   -1.3142 C   0  0  0  0  0
   -3.9639   -0.7558   -1.5284 C   0  0  0  0  0
   -4.5208   -0.3903   -2.7114 O   0  0  0  0  0
   -5.9278   -0.1617   -2.7116 C   0  0  2  0  0
   -6.6252   -1.3639   -3.0420 O   0  0  0  0  0
   -8.0465   -1.1986   -3.0362 C   0  0  1  0  0
   -8.4532   -0.2063   -4.1300 C   0  0  1  0  0
   -9.8592    0.0090   -4.0620 O   0  0  0  0  0
  -10.1125    0.5588   -4.8220 H   0  0  0  0  0
   -7.7255    1.1255   -3.9462 C   0  0  2  0  0
   -7.9160    1.9365   -5.1075 O   0  0  0  0  0
   -8.8638    2.1412   -5.1698 H   0  0  0  0  0
   -6.2233    0.9146   -3.7585 C   0  0  1  0  0
   -5.6228    2.1463   -3.3579 O   0  0  0  0  0
   -6.0010    2.3984   -2.4982 H   0  0  0  0  0
   -5.7626    0.6445   -4.7174 H   0  0  0  0  0
   -8.1447    1.6863   -3.1020 H   0  0  0  0  0
   -8.2254   -0.6186   -5.1210 H   0  0  0  0  0
   -8.6646   -2.5662   -3.2635 C   0  0  0  0  0
   -8.2695   -3.4529   -2.2290 O   0  0  0  0  0
   -8.6862   -4.3112   -2.4146 H   0  0  0  0  0
   -8.3573   -2.9812   -4.2292 H   0  0  0  0  0
   -9.7574   -2.4935   -3.2705 H   0  0  0  0  0
   -8.3583   -0.8395   -2.0463 H   0  0  0  0  0
   -6.2228    0.1826   -1.7108 H   0  0  0  0  0
   -4.6152   -1.5074   -0.5315 C   0  0  0  0  0
   -3.9334   -1.8678    0.6366 C   0  0  0  0  0
   -4.6557   -2.5780    1.5562 O   0  0  0  0  0
   -4.0998   -2.7581    2.3312 H   0  0  0  0  0
   -5.6407   -1.8430   -0.6561 H   0  0  0  0  0
   -2.1352    0.2314   -2.0740 H   0  0  0  0  0
  1  2  2  0  0  0
  2  3  1  0  0  0
  2  7  1  0  0  0
  3  4  2  0  0  0
  3 51  1  0  0  0
  4  5  1  0  0  0
  4 25  1  0  0  0
  5  6  1  0  0  0
  6  7  2  0  0  0
  6  9  1  0  0  0
  7  8  1  0  0  0
  9 10  2  0  0  0
  9 21  1  0  0  0
 10 11  1  0  0  0
 10 24  1  0  0  0
 11 12  1  0  0  0
 11 17  2  0  0  0
 12 13  1  0  0  0
 13 14  1  0  0  0
 13 15  1  0  0  0
 13 16  1  0  0  0
 17 18  1  0  0  0
 17 20  1  0  0  0
 18 19  1  0  0  0
 20 21  2  0  0  0
 20 23  1  0  0  0
 21 22  1  0  0  0
 25 26  2  0  0  0
 25 55  1  0  0  0
 26 27  1  0  0  0
 26 50  1  0  0  0
 27 28  1  0  0  0
 28 29  1  0  0  0
 28 37  1  0  0  0
 28 49  1  0  0  0
 29 30  1  0  0  0
 30 31  1  0  0  0
 30 43  1  0  0  0
 30 48  1  0  0  0
 31 32  1  0  0  0
 31 34  1  0  0  0
 31 42  1  0  0  0
 32 33  1  0  0  0
 34 35  1  0  0  0
 34 37  1  0  0  0
 34 41  1  0  0  0
 35 36  1  0  0  0
 37 38  1  0  0  0
 37 40  1  0  0  0
 38 39  1  0  0  0
 43 44  1  0  0  0
 43 46  1  0  0  0
 43 47  1  0  0  0
 44 45  1  0  0  0
 50 51  2  0  0  0
 50 54  1  0  0  0
 51 52  1  0  0  0
 52 53  1  0  0  0
M  END
> <Tumorigenic>
none

> <Score>
42.566387

> <Active/Decoy>
active

> <InChI>
InChI=1S/C22H22O11/c1-30-15-4-9(2-3-11(15)24)14-7-13(26)18-12(25)5-10(6-16(18)32-14)31-22-21(29)20(28)19(27)17(8-23)33-22/h2-7,17,19-25,27-29H,8H2,1H3/t17-,19-,20+,21-,22-/m1/s1

> <Matching Features>
H:14924486185440016873|HBA:149238150533300697|HBA:14924321692640012300|HBA:14924486112070016868

> <Mol. Index>
383

> <Pharmacophore Match>
Model -1

> <# Confs.>
25

> <Source Database>
Pharm-Screening-input-NANPDB_After_DataWarror.ldb

> <Pharmacophore-Fit Score>
42.57

> <formula>
C22H22O11

> <Mutagenic>
none

> <Reproductive Effective>
none

> <Irritant>
none

$$$$
(+)-silychristin
XX    ILIB03122402113D

 57 61  0  0  1  0              1 V2000
   -5.9166   -1.0018   -2.9744 O   0  0  0  0  0
   -6.1648   -0.9076   -1.7778 C   0  0  0  0  0
   -6.6780    0.3508   -1.1856 C   0  0  0  0  0
   -7.0222    0.3511    0.1714 C   0  0  0  0  0
   -6.8754   -0.7286    1.0017 O   0  0  0  0  0
   -5.8601   -1.6684    0.6097 C   0  0  1  0  0
   -6.0286   -2.0884   -0.8510 C   0  0  1  0  0
   -7.2111   -2.8630   -1.0117 O   0  0  0  0  0
   -7.9487   -2.3709   -0.6150 H   0  0  0  0  0
   -5.1834   -2.7028   -1.1808 H   0  0  0  0  0
   -4.4935   -1.1731    1.0273 C   0  0  0  0  0
   -4.2194   -0.9410    2.3919 C   0  0  0  0  0
   -2.9599   -0.4961    2.7972 C   0  0  0  0  0
   -2.6722   -0.2752    4.1106 O   0  0  0  0  0
   -3.4626   -0.4797    4.6385 H   0  0  0  0  0
   -1.9940   -0.2758    1.8393 C   0  0  0  0  0
   -0.7165    0.1405    2.0938 O   0  0  0  0  0
   -0.1898    0.5287    0.7990 C   0  0  1  0  0
    1.2795    0.2589    0.7371 C   0  0  0  0  0
    2.1097    1.0454   -0.0846 C   0  0  0  0  0
    3.4854    0.7979   -0.1528 C   0  0  0  0  0
    4.3760    1.5080   -0.9067 O   0  0  0  0  0
    3.8160    2.5733   -1.6696 C   0  0  0  0  0
    3.0940    2.1973   -2.4036 H   0  0  0  0  0
    3.3589    3.3280   -1.0204 H   0  0  0  0  0
    4.6306    3.0550   -2.2189 H   0  0  0  0  0
    4.0185   -0.2534    0.5936 C   0  0  0  0  0
    5.3587   -0.5292    0.5840 O   0  0  0  0  0
    5.7945    0.1250    0.0106 H   0  0  0  0  0
    3.2054   -1.0514    1.4009 C   0  0  0  0  0
    1.8368   -0.8009    1.4599 C   0  0  0  0  0
    1.2078   -1.4308    2.0836 H   0  0  0  0  0
    3.6294   -1.8679    1.9796 H   0  0  0  0  0
    1.6547    1.8531   -0.6522 H   0  0  0  0  0
   -0.9994   -0.2488   -0.2867 C   0  0  2  0  0
   -1.1783    0.4994   -1.5957 C   0  0  0  0  0
    0.0963    0.7904   -2.1603 O   0  0  0  0  0
    0.5624   -0.0550   -2.2769 H   0  0  0  0  0
   -1.7414   -0.0896   -2.3272 H   0  0  0  0  0
   -1.6942    1.4517   -1.4373 H   0  0  0  0  0
   -2.2446   -0.4959    0.4939 C   0  0  0  0  0
   -3.4850   -0.9497    0.0723 C   0  0  0  0  0
   -3.6706   -1.1395   -0.9805 H   0  0  0  0  0
   -0.5411   -1.2249   -0.4941 H   0  0  0  0  0
   -0.3633    1.6098    0.7136 H   0  0  0  0  0
   -4.9924   -1.1166    3.1354 H   0  0  0  0  0
   -6.0567   -2.5642    1.2150 H   0  0  0  0  0
   -7.5814    1.4900    0.7579 C   0  0  0  0  0
   -7.7707    2.6370   -0.0077 C   0  0  0  0  0
   -8.3070    3.7685    0.5405 O   0  0  0  0  0
   -8.4980    3.5957    1.4778 H   0  0  0  0  0
   -7.4138    2.6598   -1.3519 C   0  0  0  0  0
   -6.8694    1.5165   -1.9405 C   0  0  0  0  0
   -6.5543    1.6212   -3.2665 O   0  0  0  0  0
   -6.1488    0.7922   -3.5678 H   0  0  0  0  0
   -7.5654    3.5610   -1.9421 H   0  0  0  0  0
   -7.8589    1.4802    1.8090 H   0  0  0  0  0
  1  2  2  0  0  0
  2  3  1  0  0  0
  2  7  1  0  0  0
  3  4  2  0  0  0
  3 53  1  0  0  0
  4  5  1  0  0  0
  4 48  1  0  0  0
  5  6  1  0  0  0
  6  7  1  0  0  0
  6 11  1  0  0  0
  6 47  1  0  0  0
  7  8  1  0  0  0
  7 10  1  0  0  0
  8  9  1  0  0  0
 11 12  2  0  0  0
 11 42  1  0  0  0
 12 13  1  0  0  0
 12 46  1  0  0  0
 13 14  1  0  0  0
 13 16  2  0  0  0
 14 15  1  0  0  0
 16 17  1  0  0  0
 16 41  1  0  0  0
 17 18  1  0  0  0
 18 19  1  0  0  0
 18 35  1  0  0  0
 18 45  1  0  0  0
 19 20  2  0  0  0
 19 31  1  0  0  0
 20 21  1  0  0  0
 20 34  1  0  0  0
 21 22  1  0  0  0
 21 27  2  0  0  0
 22 23  1  0  0  0
 23 24  1  0  0  0
 23 25  1  0  0  0
 23 26  1  0  0  0
 27 28  1  0  0  0
 27 30  1  0  0  0
 28 29  1  0  0  0
 30 31  2  0  0  0
 30 33  1  0  0  0
 31 32  1  0  0  0
 35 36  1  0  0  0
 35 41  1  0  0  0
 35 44  1  0  0  0
 36 37  1  0  0  0
 36 39  1  0  0  0
 36 40  1  0  0  0
 37 38  1  0  0  0
 41 42  2  0  0  0
 42 43  1  0  0  0
 48 49  2  0  0  0
 48 57  1  0  0  0
 49 50  1  0  0  0
 49 52  1  0  0  0
 50 51  1  0  0  0
 52 53  2  0  0  0
 52 56  1  0  0  0
 53 54  1  0  0  0
 54 55  1  0  0  0
M  END
> <Tumorigenic>
none

> <Score>
42.56847

> <Active/Decoy>
active

> <InChI>
InChI=1S/C25H22O10/c1-33-18-6-10(2-3-15(18)28)23-14(9-26)13-4-11(5-17(30)25(13)35-23)24-22(32)21(31)20-16(29)7-12(27)8-19(20)34-24/h2-8,14,22-24,26-30,32H,9H2,1H3/t14-,22+,23+,24-/m1/s1

> <Matching Features>
H:14924486185440016873|HBA:149238150533300697|HBA:14924321692640012300|HBA:14924486112070016868

> <Mol. Index>
244

> <Pharmacophore Match>
Model -1

> <# Confs.>
25

> <Source Database>
Pharm-Screening-input-NANPDB_After_DataWarror.ldb

> <Pharmacophore-Fit Score>
42.57

> <formula>
C25H22O10

> <Mutagenic>
none

> <Reproductive Effective>
none

> <Irritant>
none

$$$$
(lR*,2R*,3E,7R*,11R*,12S*)-3,8(17)-dolabelladiene-2,7,16,18-tetrol-7-O-beta-D-glucopyranoside
XX    ILIB03122402113D

 85 87  0  0  1  0              1 V2000
   -5.7548   -0.1571   -3.4868 O   0  0  0  0  0
   -5.5313    0.7040   -2.3758 C   0  0  2  0  0
   -4.1631    1.0183   -2.1462 O   0  0  0  0  0
   -3.5105    1.6402   -3.2378 C   0  0  0  0  0
   -2.0570    1.9048   -2.8894 C   0  0  1  0  0
   -1.3244    0.6036   -2.5696 C   0  0  0  0  0
   -1.2846   -0.4090   -3.4571 C   0  0  0  0  0
   -0.7866   -1.3458   -3.2337 H   0  0  0  0  0
   -1.7567   -0.3350   -4.4306 H   0  0  0  0  0
   -0.6606    0.5049   -1.2088 C   0  0  0  0  0
    0.7215   -0.1705   -1.2327 C   0  0  0  0  0
    1.6489    0.0144    0.0073 C   0  0  2  0  0
    2.2208    1.5009    0.2167 C   0  0  2  0  0
    2.5901    2.3302   -1.0899 C   0  0  1  0  0
    3.4287    1.5820   -1.9551 O   0  0  0  0  0
    4.3327    1.6174   -1.5991 H   0  0  0  0  0
    1.4191    2.9359   -1.8402 C   0  0  0  0  0
    1.0653    2.9435   -3.1432 C   0  0  0  0  0
   -0.2244    3.6412   -3.5464 C   0  0  0  0  0
   -1.3821    2.7394   -4.0095 C   0  0  0  0  0
   -2.1326    3.4128   -4.4447 H   0  0  0  0  0
   -1.0559    2.0947   -4.8341 H   0  0  0  0  0
    0.0128    4.3406   -4.3596 H   0  0  0  0  0
   -0.5910    4.2794   -2.7313 H   0  0  0  0  0
    1.8789    2.4123   -4.2785 C   0  0  0  0  0
    2.1321    1.0244   -4.0987 O   0  0  0  0  0
    2.6360    0.9216   -3.2730 H   0  0  0  0  0
    2.8413    2.9265   -4.3725 H   0  0  0  0  0
    1.3414    2.5408   -5.2225 H   0  0  0  0  0
    0.7409    3.4740   -1.1783 H   0  0  0  0  0
    3.1835    3.1981   -0.7693 H   0  0  0  0  0
    3.5274    1.2180    1.0048 C   0  0  0  0  0
    4.0820   -0.1153    0.5383 C   0  0  0  0  0
    2.9674   -0.8411   -0.2314 C   0  0  1  0  0
    2.9831   -2.3539    0.0587 C   0  0  0  0  0
    2.6823   -2.5818    1.4394 O   0  0  0  0  0
    3.4129   -2.2309    1.9728 H   0  0  0  0  0
    1.9088   -3.0843   -0.7513 C   0  0  0  0  0
    0.9026   -2.7436   -0.4818 H   0  0  0  0  0
    2.0501   -2.9412   -1.8271 H   0  0  0  0  0
    1.9290   -4.1613   -0.5413 H   0  0  0  0  0
    4.3558   -2.9627   -0.2381 C   0  0  0  0  0
    4.6446   -2.8172   -1.2826 H   0  0  0  0  0
    4.3609   -4.0376   -0.0220 H   0  0  0  0  0
    5.1343   -2.5242    0.4008 H   0  0  0  0  0
    3.2168   -0.7509   -1.2986 H   0  0  0  0  0
    4.4463   -0.6803    1.4049 H   0  0  0  0  0
    4.9510    0.0344   -0.1139 H   0  0  0  0  0
    4.2720    2.0175    0.8980 H   0  0  0  0  0
    3.3268    1.1393    2.0811 H   0  0  0  0  0
    1.3579    2.3978    1.1450 C   0  0  0  0  0
    0.3349    2.5252    0.7850 H   0  0  0  0  0
    1.2854    1.9969    2.1616 H   0  0  0  0  0
    1.8022    3.3954    1.2399 H   0  0  0  0  0
    0.8867   -0.4782    1.2598 C   0  0  0  0  0
    0.5064   -1.4959    1.1239 H   0  0  0  0  0
    1.5190   -0.4713    2.1542 H   0  0  0  0  0
    0.0117    0.1432    1.4741 H   0  0  0  0  0
    1.2638    0.1274   -2.1345 H   0  0  0  0  0
    0.5316   -1.2401   -1.3643 H   0  0  0  0  0
   -1.3369   -0.0432   -0.5415 H   0  0  0  0  0
   -0.5747    1.5037   -0.7859 H   0  0  0  0  0
   -2.0830    2.5215   -1.9734 H   0  0  0  0  0
   -3.5739    1.0232   -4.1453 H   0  0  0  0  0
   -4.0095    2.6056   -3.4719 H   0  0  0  0  0
   -6.1311    0.0876   -1.1056 C   0  0  2  0  0
   -5.8963    0.9317    0.0165 O   0  0  0  0  0
   -4.9343    1.0348    0.1131 H   0  0  0  0  0
   -5.5517   -1.3021   -0.8499 C   0  0  1  0  0
   -6.2574   -1.9201    0.2290 O   0  0  0  0  0
   -7.1946   -1.9860   -0.0225 H   0  0  0  0  0
   -5.6864   -2.1706   -2.1025 C   0  0  2  0  0
   -4.9634   -3.3844   -1.9176 O   0  0  0  0  0
   -5.3131   -3.8122   -1.1180 H   0  0  0  0  0
   -5.1370   -1.4418   -3.3366 C   0  0  1  0  0
   -5.3588   -2.2132   -4.6251 C   0  0  0  0  0
   -6.7556   -2.3619   -4.8617 O   0  0  0  0  0
   -7.1423   -1.4702   -4.8911 H   0  0  0  0  0
   -4.9276   -1.6955   -5.4881 H   0  0  0  0  0
   -4.9266   -3.2161   -4.5631 H   0  0  0  0  0
   -4.0526   -1.3049   -3.2358 H   0  0  0  0  0
   -6.7409   -2.4334   -2.2483 H   0  0  0  0  0
   -4.5059   -1.2414   -0.5283 H   0  0  0  0  0
   -7.2187    0.0034   -1.2200 H   0  0  0  0  0
   -6.0747    1.6539   -2.5623 H   0  0  0  0  0
  1  2  1  0  0  0
  1 75  1  0  0  0
  2  3  1  0  0  0
  2 66  1  0  0  0
  2 85  1  0  0  0
  3  4  1  0  0  0
  4  5  1  0  0  0
  4 64  1  0  0  0
  4 65  1  0  0  0
  5  6  1  0  0  0
  5 20  1  0  0  0
  5 63  1  0  0  0
  6  7  2  0  0  0
  6 10  1  0  0  0
  7  8  1  0  0  0
  7  9  1  0  0  0
 10 11  1  0  0  0
 10 61  1  0  0  0
 10 62  1  0  0  0
 11 12  1  0  0  0
 11 59  1  0  0  0
 11 60  1  0  0  0
 12 13  1  0  0  0
 12 34  1  0  0  0
 12 55  1  0  0  0
 13 14  1  0  0  0
 13 32  1  0  0  0
 13 51  1  0  0  0
 14 15  1  0  0  0
 14 17  1  0  0  0
 14 31  1  0  0  0
 15 16  1  0  0  0
 17 18  2  0  0  0
 17 30  1  0  0  0
 18 19  1  0  0  0
 18 25  1  0  0  0
 19 20  1  0  0  0
 19 23  1  0  0  0
 19 24  1  0  0  0
 20 21  1  0  0  0
 20 22  1  0  0  0
 25 26  1  0  0  0
 25 28  1  0  0  0
 25 29  1  0  0  0
 26 27  1  0  0  0
 32 33  1  0  0  0
 32 49  1  0  0  0
 32 50  1  0  0  0
 33 34  1  0  0  0
 33 47  1  0  0  0
 33 48  1  0  0  0
 34 35  1  0  0  0
 34 46  1  0  0  0
 35 36  1  0  0  0
 35 38  1  0  0  0
 35 42  1  0  0  0
 36 37  1  0  0  0
 38 39  1  0  0  0
 38 40  1  0  0  0
 38 41  1  0  0  0
 42 43  1  0  0  0
 42 44  1  0  0  0
 42 45  1  0  0  0
 51 52  1  0  0  0
 51 53  1  0  0  0
 51 54  1  0  0  0
 55 56  1  0  0  0
 55 57  1  0  0  0
 55 58  1  0  0  0
 66 67  1  0  0  0
 66 69  1  0  0  0
 66 84  1  0  0  0
 67 68  1  0  0  0
 69 70  1  0  0  0
 69 72  1  0  0  0
 69 83  1  0  0  0
 70 71  1  0  0  0
 72 73  1  0  0  0
 72 75  1  0  0  0
 72 82  1  0  0  0
 73 74  1  0  0  0
 75 76  1  0  0  0
 75 81  1  0  0  0
 76 77  1  0  0  0
 76 79  1  0  0  0
 76 80  1  0  0  0
 77 78  1  0  0  0
M  END
> <Tumorigenic>
none

> <Score>
42.505367

> <Active/Decoy>
active

> <InChI>
InChI=1S/C28H48O9/c1-16-8-10-27(4)20(26(2,3)35)9-11-28(27,5)21(31)12-17(13-29)6-7-18(16)15-36-25-24(34)23(33)22(32)19(14-30)37-25/h12,18-25,29-35H,1,6-11,13-15H2,2-5H3/b17-12-/t18-,19+,20-,21-,22+,23-,24+,25-,27-,28-/m0/s1

> <Matching Features>
H:14924486185440016873|HBA:149238150533300697|HBA:14924321692640012300|HBA:14924486112070016868

> <Mol. Index>
523

> <Pharmacophore Match>
Model -1

> <# Confs.>
25

> <Source Database>
Pharm-Screening-input-NANPDB_After_DataWarror.ldb

> <Pharmacophore-Fit Score>
42.51

> <formula>
C28H48O9

> <Mutagenic>
none

> <Reproductive Effective>
none

> <Irritant>
none

$$$$
betaxanthin
XX    ILIB03122402113D

 44 45  0  0  1  0              1 V2000
   -8.1069   -0.0073   -2.4678 O   0  0  0  0  0
   -7.2190   -0.2474   -1.6023 C   0  0  0  0  0
   -7.3370   -0.6714   -0.4184 O   0  5  0  0  0
   -5.8264    0.0041   -2.0437 C   0  0  0  0  0
   -5.7059    0.9421   -2.9205 N   0  0  0  0  0
   -4.3298    1.2683   -3.3245 C   0  0  2  0  0
   -4.4621    2.0638   -4.6220 C   0  0  0  0  0
   -4.5616    3.3143   -4.4611 O   0  0  0  0  0
   -4.4596    1.3952   -5.6926 O   0  5  0  0  0
   -3.4625    0.0116   -3.4275 C   0  0  0  0  0
   -3.5708   -0.8018   -2.1645 C   0  0  0  0  0
   -4.7181   -0.8022   -1.4698 C   0  0  0  0  0
   -4.8790   -1.3853   -0.5730 H   0  0  0  0  0
   -2.4193   -1.5945   -1.7984 C   0  0  0  0  0
   -1.9789   -1.7852   -0.5535 C   0  0  0  0  0
   -0.9037   -2.5212   -0.1678 N   0  0  0  0  0
   -0.4163   -2.7346    1.1863 C   0  0  0  0  0
   -0.0339   -1.4109    1.8539 C   0  0  0  0  0
    1.0478   -0.6612    1.1276 C   0  0  0  0  0
    0.7168    0.2522    0.1116 C   0  0  0  0  0
    1.7162    0.9507   -0.5738 C   0  0  0  0  0
    1.4994    1.8585   -1.5713 O   0  0  0  0  0
    0.1320    2.0764   -1.9103 C   0  0  0  0  0
   -0.3327    1.1587   -2.2857 H   0  0  0  0  0
   -0.4255    2.4815   -1.0592 H   0  0  0  0  0
    0.1027    2.8204   -2.7129 H   0  0  0  0  0
    3.0524    0.7245   -0.2288 C   0  0  0  0  0
    4.0713    1.3918   -0.8573 O   0  0  0  0  0
    3.6772    2.0070   -1.5001 H   0  0  0  0  0
    3.3966   -0.1861    0.7664 C   0  0  0  0  0
    2.3956   -0.8809    1.4406 C   0  0  0  0  0
    2.6713   -1.5918    2.2147 H   0  0  0  0  0
    4.4384   -0.3586    1.0226 H   0  0  0  0  0
   -0.3344    0.4011   -0.1224 H   0  0  0  0  0
   -0.9217   -0.7722    1.9543 H   0  0  0  0  0
    0.3114   -1.6105    2.8767 H   0  0  0  0  0
   -1.1819   -3.2351    1.7795 H   0  0  0  0  0
    0.4544   -3.3994    1.1485 H   0  0  0  0  0
   -0.3887   -2.9775   -0.9099 H   0  0  0  0  0
   -2.4895   -1.3312    0.2997 H   0  0  0  0  0
   -1.8863   -2.0680   -2.6191 H   0  0  0  0  0
   -2.4250    0.3178   -3.6109 H   0  0  0  0  0
   -3.7654   -0.6179   -4.2743 H   0  0  0  0  0
   -3.8982    1.9476   -2.5761 H   0  0  0  0  0
  1  2  2  0  0  0
  2  3  1  0  0  0
  2  4  1  0  0  0
  4  5  2  0  0  0
  4 12  1  0  0  0
  5  6  1  0  0  0
  6  7  1  0  0  0
  6 10  1  0  0  0
  6 44  1  0  0  0
  7  8  2  0  0  0
  7  9  1  0  0  0
 10 11  1  0  0  0
 10 42  1  0  0  0
 10 43  1  0  0  0
 11 12  2  0  0  0
 11 14  1  0  0  0
 12 13  1  0  0  0
 14 15  2  0  0  0
 14 41  1  0  0  0
 15 16  1  0  0  0
 15 40  1  0  0  0
 16 17  1  0  0  0
 16 39  1  0  0  0
 17 18  1  0  0  0
 17 37  1  0  0  0
 17 38  1  0  0  0
 18 19  1  0  0  0
 18 35  1  0  0  0
 18 36  1  0  0  0
 19 20  2  0  0  0
 19 31  1  0  0  0
 20 21  1  0  0  0
 20 34  1  0  0  0
 21 22  1  0  0  0
 21 27  2  0  0  0
 22 23  1  0  0  0
 23 24  1  0  0  0
 23 25  1  0  0  0
 23 26  1  0  0  0
 27 28  1  0  0  0
 27 30  1  0  0  0
 28 29  1  0  0  0
 30 31  2  0  0  0
 30 33  1  0  0  0
 31 32  1  0  0  0
M  END
> <Tumorigenic>
none

> <Score>
42.50777

> <Active/Decoy>
active

> <InChI>
InChI=1S/C18H20N2O6/c1-26-16-10-11(2-3-15(16)21)4-6-19-7-5-12-8-13(17(22)23)20-14(9-12)18(24)25/h2-3,5,7-8,10,14,19,21H,4,6,9H2,1H3,(H,22,23)(H,24,25)/p-2/b7-5+/t14-/m0/s1

> <Matching Features>
H:14924486185440016873|HBA:149238150533300697|HBA:14924321692640012300|HBA:14924486112070016868

> <Mol. Index>
151

> <Pharmacophore Match>
Model -1

> <# Confs.>
25

> <Source Database>
Pharm-Screening-input-NANPDB_After_DataWarror.ldb

> <Pharmacophore-Fit Score>
42.51

> <formula>
C18H18N2O6--

> <Mutagenic>
none

> <Reproductive Effective>
none

> <Irritant>
none

$$$$
cosmoside
XX    ILIB03122402113D

 51 54  0  0  1  0              1 V2000
   -0.7572   -4.2712    3.3340 O   0  0  0  0  0
   -0.5793   -3.5449    2.3656 C   0  0  0  0  0
   -1.3980   -3.6252    1.1406 C   0  0  0  0  0
   -1.1040   -2.7500    0.0950 C   0  0  0  0  0
   -0.0857   -1.8317    0.1493 O   0  0  0  0  0
    0.6904   -1.7575    1.2944 C   0  0  0  0  0
    0.5035   -2.5394    2.3697 C   0  0  0  0  0
    1.1145   -2.4855    3.2650 H   0  0  0  0  0
    1.7592   -0.7424    1.2303 C   0  0  0  0  0
    2.3470   -0.3969    0.0018 C   0  0  0  0  0
    3.3571    0.5659   -0.0578 C   0  0  0  0  0
    3.8988    0.8589   -1.2786 O   0  0  0  0  0
    4.5876    1.5343   -1.1590 H   0  0  0  0  0
    3.8030    1.2093    1.0913 C   0  0  0  0  0
    3.2305    0.8818    2.3165 C   0  0  0  0  0
    2.2197   -0.0835    2.3865 C   0  0  0  0  0
    1.7988   -0.3052    3.3649 H   0  0  0  0  0
    3.5669    1.3755    3.2228 H   0  0  0  0  0
    4.5875    1.9573    1.0468 H   0  0  0  0  0
    2.0306   -0.8753   -0.9219 H   0  0  0  0  0
   -1.8450   -2.7812   -1.0923 C   0  0  0  0  0
   -2.9102   -3.6706   -1.2394 C   0  0  0  0  0
   -3.7016   -3.8193   -2.3325 O   0  0  0  0  0
   -3.9093   -2.6152   -3.1011 C   0  0  2  0  0
   -4.5282   -1.5960   -2.3101 O   0  0  0  0  0
   -4.7444   -0.3824   -3.0380 C   0  0  1  0  0
   -5.7336   -0.6390   -4.1771 C   0  0  1  0  0
   -5.8827    0.5482   -4.9516 O   0  0  0  0  0
   -6.4981    0.3452   -5.6772 H   0  0  0  0  0
   -5.2337   -1.7664   -5.0811 C   0  0  2  0  0
   -6.2655   -2.1269   -5.9991 O   0  0  0  0  0
   -7.0314   -2.4344   -5.4853 H   0  0  0  0  0
   -4.8263   -2.9940   -4.2695 C   0  0  1  0  0
   -4.1395   -3.8962   -5.1364 O   0  0  0  0  0
   -3.8396   -4.6469   -4.5955 H   0  0  0  0  0
   -5.7184   -3.5185   -3.9053 H   0  0  0  0  0
   -4.3947   -1.4186   -5.6957 H   0  0  0  0  0
   -6.7184   -0.8980   -3.7720 H   0  0  0  0  0
   -5.2736    0.6490   -2.0580 C   0  0  0  0  0
   -6.4951    0.1891   -1.4895 O   0  0  0  0  0
   -6.3136   -0.6673   -1.0654 H   0  0  0  0  0
   -4.5699    0.8296   -1.2385 H   0  0  0  0  0
   -5.4801    1.5991   -2.5610 H   0  0  0  0  0
   -3.7805   -0.0276   -3.4266 H   0  0  0  0  0
   -2.9421   -2.2596   -3.4879 H   0  0  0  0  0
   -3.2105   -4.5486   -0.1795 C   0  0  0  0  0
   -2.4653   -4.5177    1.0033 C   0  0  0  0  0
   -2.7779   -5.3868    2.0116 O   0  0  0  0  0
   -3.5288   -5.9378    1.7313 H   0  0  0  0  0
   -4.0272   -5.2586   -0.2897 H   0  0  0  0  0
   -1.5979   -2.0685   -1.8747 H   0  0  0  0  0
  1  2  2  0  0  0
  2  3  1  0  0  0
  2  7  1  0  0  0
  3  4  2  0  0  0
  3 47  1  0  0  0
  4  5  1  0  0  0
  4 21  1  0  0  0
  5  6  1  0  0  0
  6  7  2  0  0  0
  6  9  1  0  0  0
  7  8  1  0  0  0
  9 10  2  0  0  0
  9 16  1  0  0  0
 10 11  1  0  0  0
 10 20  1  0  0  0
 11 12  1  0  0  0
 11 14  2  0  0  0
 12 13  1  0  0  0
 14 15  1  0  0  0
 14 19  1  0  0  0
 15 16  2  0  0  0
 15 18  1  0  0  0
 16 17  1  0  0  0
 21 22  2  0  0  0
 21 51  1  0  0  0
 22 23  1  0  0  0
 22 46  1  0  0  0
 23 24  1  0  0  0
 24 25  1  0  0  0
 24 33  1  0  0  0
 24 45  1  0  0  0
 25 26  1  0  0  0
 26 27  1  0  0  0
 26 39  1  0  0  0
 26 44  1  0  0  0
 27 28  1  0  0  0
 27 30  1  0  0  0
 27 38  1  0  0  0
 28 29  1  0  0  0
 30 31  1  0  0  0
 30 33  1  0  0  0
 30 37  1  0  0  0
 31 32  1  0  0  0
 33 34  1  0  0  0
 33 36  1  0  0  0
 34 35  1  0  0  0
 39 40  1  0  0  0
 39 42  1  0  0  0
 39 43  1  0  0  0
 40 41  1  0  0  0
 46 47  2  0  0  0
 46 50  1  0  0  0
 47 48  1  0  0  0
 48 49  1  0  0  0
M  END
> <Tumorigenic>
none

> <Score>
42.504944

> <Active/Decoy>
active

> <InChI>
InChI=1S/C21H20O10/c22-8-16-18(26)19(27)20(28)21(31-16)29-11-5-12(24)17-13(25)7-14(30-15(17)6-11)9-2-1-3-10(23)4-9/h1-7,16,18-24,26-28H,8H2/t16-,18-,19+,20-,21-/m1/s1

> <Matching Features>
H:14924486185440016873|HBA:149238150533300697|HBA:14924321692640012300|HBA:14924486112070016868

> <Mol. Index>
1095

> <Pharmacophore Match>
Model -1

> <# Confs.>
25

> <Source Database>
Pharm-Screening-input-NANPDB_After_DataWarror.ldb

> <Pharmacophore-Fit Score>
42.5

> <formula>
C21H20O10

> <Mutagenic>
none

> <Reproductive Effective>
none

> <Irritant>
none

$$$$
cryptochlorogenic acid
XX    ILIB03122402113D

 43 44  0  0  1  0              1 V2000
   -0.3325   -0.4842   -0.5913 O   0  0  0  0  0
   -1.0754    0.3200   -0.0369 C   0  0  0  0  0
   -2.4162    0.3925   -0.1739 O   0  0  0  0  0
   -3.0592   -0.5359   -1.0584 C   0  0  0  0  0
   -3.1080    0.0545   -2.4810 C   0  0  2  0  0
   -3.7029    1.3504   -2.4527 O   0  0  0  0  0
   -3.1992    1.8884   -1.8185 H   0  0  0  0  0
   -3.9065   -0.8420   -3.4323 C   0  0  0  0  0
   -5.3072   -1.2165   -2.9074 C   0  0  0  0  0
   -5.8299   -2.2684   -3.7257 O   0  0  0  0  0
   -5.7554   -1.9931   -4.6555 H   0  0  0  0  0
   -6.3216   -0.1134   -3.0808 C   0  0  0  0  0
   -6.9401    0.4296   -2.1760 O   0  0  0  0  0
   -6.4713    0.2225   -4.3885 O   0  0  0  0  0
   -7.1286    0.9415   -4.5085 H   0  0  0  0  0
   -5.2267   -1.7457   -1.4706 C   0  0  0  0  0
   -4.4650   -0.8156   -0.5289 C   0  0  1  0  0
   -4.3652   -1.4654    0.7382 O   0  0  0  0  0
   -3.8517   -0.8875    1.3190 H   0  0  0  0  0
   -5.0217    0.1150   -0.3692 H   0  0  0  0  0
   -4.7397   -2.7323   -1.4756 H   0  0  0  0  0
   -6.2213   -1.9550   -1.0576 H   0  0  0  0  0
   -3.3377   -1.7652   -3.6087 H   0  0  0  0  0
   -3.9960   -0.3551   -4.4112 H   0  0  0  0  0
   -2.0929    0.1871   -2.8713 H   0  0  0  0  0
   -2.4831   -1.4670   -1.0639 H   0  0  0  0  0
   -0.6483    1.3472    0.9185 C   0  0  0  0  0
    0.6100    1.5806    1.3199 C   0  0  0  0  0
    1.8236    0.8296    0.9984 C   0  0  0  0  0
    2.9000    1.4455    0.3379 C   0  0  0  0  0
    4.0558    0.7225    0.0326 C   0  0  0  0  0
    5.0718    1.3739   -0.6093 O   0  0  0  0  0
    5.7936    0.7396   -0.7502 H   0  0  0  0  0
    4.1579   -0.6202    0.3748 C   0  0  0  0  0
    5.2993   -1.3039    0.0649 O   0  0  0  0  0
    5.2031   -2.2229    0.3673 H   0  0  0  0  0
    3.1050   -1.2527    1.0249 C   0  0  0  0  0
    1.9467   -0.5319    1.3337 C   0  0  0  0  0
    1.1415   -1.0613    1.8387 H   0  0  0  0  0
    3.1663   -2.3024    1.2957 H   0  0  0  0  0
    2.8555    2.4956    0.0573 H   0  0  0  0  0
    0.7723    2.4396    1.9706 H   0  0  0  0  0
   -1.4299    2.0121    1.2822 H   0  0  0  0  0
  1  2  2  0  0  0
  2  3  1  0  0  0
  2 27  1  0  0  0
  3  4  1  0  0  0
  4  5  1  0  0  0
  4 17  1  0  0  0
  4 26  1  0  0  0
  5  6  1  0  0  0
  5  8  1  0  0  0
  5 25  1  0  0  0
  6  7  1  0  0  0
  8  9  1  0  0  0
  8 23  1  0  0  0
  8 24  1  0  0  0
  9 10  1  0  0  0
  9 12  1  0  0  0
  9 16  1  0  0  0
 10 11  1  0  0  0
 12 13  2  0  0  0
 12 14  1  0  0  0
 14 15  1  0  0  0
 16 17  1  0  0  0
 16 21  1  0  0  0
 16 22  1  0  0  0
 17 18  1  0  0  0
 17 20  1  0  0  0
 18 19  1  0  0  0
 27 28  2  0  0  0
 27 43  1  0  0  0
 28 29  1  0  0  0
 28 42  1  0  0  0
 29 30  2  0  0  0
 29 38  1  0  0  0
 30 31  1  0  0  0
 30 41  1  0  0  0
 31 32  1  0  0  0
 31 34  2  0  0  0
 32 33  1  0  0  0
 34 35  1  0  0  0
 34 37  1  0  0  0
 35 36  1  0  0  0
 37 38  2  0  0  0
 37 40  1  0  0  0
 38 39  1  0  0  0
M  END
> <Tumorigenic>
none

> <Score>
42.49306

> <Active/Decoy>
active

> <InChI>
InChI=1S/C16H18O9/c17-9-3-1-8(5-10(9)18)2-4-13(21)25-14-11(19)6-16(24,15(22)23)7-12(14)20/h1-5,11-12,14,17-20,24H,6-7H2,(H,22,23)/b4-2+/t11-,12-,14-,16+/m1/s1

> <Matching Features>
H:14924486185440016873|HBA:149238150533300697|HBA:14924321692640012300|HBA:14924486112070016868

> <Mol. Index>
1090

> <Pharmacophore Match>
Model -1

> <# Confs.>
25

> <Source Database>
Pharm-Screening-input-NANPDB_After_DataWarror.ldb

> <Pharmacophore-Fit Score>
42.49

> <formula>
C16H18O9

> <Mutagenic>
none

> <Reproductive Effective>
none

> <Irritant>
none

$$$$
latrunculin B
XX    ILIB03122402113D

 56 58  0  0  1  0              1 V2000
   -4.9095    0.0970   -4.3095 S   0  0  0  0  0
   -5.1649    0.6098   -2.6469 C   0  0  0  0  0
   -6.2686    0.8315   -2.1723 O   0  0  0  0  0
   -3.9459    0.7059   -2.0166 N   0  0  0  0  0
   -2.7726    0.2545   -2.7689 C   0  0  1  0  0
   -3.1200    0.4017   -4.2390 C   0  0  0  0  0
   -2.9356    1.4138   -4.6115 H   0  0  0  0  0
   -2.5723   -0.3102   -4.8626 H   0  0  0  0  0
   -1.5301    1.0196   -2.3271 C   0  0  1  0  0
   -1.3185    0.7682   -0.9334 O   0  0  0  0  0
    0.0316    0.7001   -0.4631 C   0  0  1  0  0
    0.9425    1.6611   -1.2284 C   0  0  0  0  0
    0.9797    1.2967   -2.7175 C   0  0  1  0  0
    2.0876    0.4062   -2.9908 O   0  0  0  0  0
    3.3318    0.9505   -3.0397 C   0  0  0  0  0
    3.6363    2.1242   -2.9091 O   0  0  0  0  0
    4.2857   -0.1490   -3.2884 C   0  0  0  0  0
    5.3724   -0.3837   -2.5315 C   0  0  0  0  0
    5.7866    0.4161   -1.3102 C   0  0  0  0  0
    5.6176   -0.3324    0.0221 C   0  0  0  0  0
    4.1786   -0.5928    0.3620 C   0  0  0  0  0
    3.5588   -0.0999    1.4456 C   0  0  0  0  0
    2.0960   -0.3361    1.7385 C   0  0  2  0  0
    1.3364    1.0063    1.7744 C   0  0  0  0  0
   -0.0157    0.9742    1.0505 C   0  0  0  0  0
   -0.6647    0.2265    1.5257 H   0  0  0  0  0
   -0.5211    1.9348    1.2180 H   0  0  0  0  0
    1.1518    1.2999    2.8156 H   0  0  0  0  0
    1.9420    1.8188    1.3557 H   0  0  0  0  0
    1.9401   -1.0876    3.0619 C   0  0  0  0  0
    2.4533   -2.0554    3.0253 H   0  0  0  0  0
    2.3570   -0.5197    3.9011 H   0  0  0  0  0
    0.8833   -1.2773    3.2754 H   0  0  0  0  0
    1.6809   -0.9834    0.9588 H   0  0  0  0  0
    4.1131    0.5244    2.1420 H   0  0  0  0  0
    3.6176   -1.2202   -0.3270 H   0  0  0  0  0
    6.0893    0.2662    0.8126 H   0  0  0  0  0
    6.1544   -1.2865    0.0001 H   0  0  0  0  0
    6.8416    0.6920   -1.4262 H   0  0  0  0  0
    5.2489    1.3678   -1.2460 H   0  0  0  0  0
    6.2881   -1.5268   -2.8882 C   0  0  0  0  0
    5.9993   -2.0108   -3.8286 H   0  0  0  0  0
    6.2729   -2.2935   -2.1076 H   0  0  0  0  0
    7.3160   -1.1687   -3.0079 H   0  0  0  0  0
    4.0399   -0.8004   -4.1226 H   0  0  0  0  0
   -0.2980    0.5636   -3.1490 C   0  0  0  0  0
   -0.1589   -0.5193   -3.0340 H   0  0  0  0  0
   -0.4425    0.7450   -4.2211 H   0  0  0  0  0
    1.1037    2.2060   -3.3188 H   0  0  0  0  0
    1.9537    1.6557   -0.8145 H   0  0  0  0  0
    0.5475    2.6795   -1.1256 H   0  0  0  0  0
    0.3661   -0.3302   -0.6275 H   0  0  0  0  0
   -1.6999    2.4186   -2.5798 O   0  0  0  0  0
   -2.6333    2.6332   -2.4139 H   0  0  0  0  0
   -2.6632   -0.8049   -2.5034 H   0  0  0  0  0
   -3.8892    0.9266   -1.0268 H   0  0  0  0  0
  1  2  1  0  0  0
  1  6  1  0  0  0
  2  3  2  0  0  0
  2  4  1  0  0  0
  4  5  1  0  0  0
  4 56  1  0  0  0
  5  6  1  0  0  0
  5  9  1  0  0  0
  5 55  1  0  0  0
  6  7  1  0  0  0
  6  8  1  0  0  0
  9 10  1  0  0  0
  9 46  1  0  0  0
  9 53  1  0  0  0
 10 11  1  0  0  0
 11 12  1  0  0  0
 11 25  1  0  0  0
 11 52  1  0  0  0
 12 13  1  0  0  0
 12 50  1  0  0  0
 12 51  1  0  0  0
 13 14  1  0  0  0
 13 46  1  0  0  0
 13 49  1  0  0  0
 14 15  1  0  0  0
 15 16  2  0  0  0
 15 17  1  0  0  0
 17 18  2  0  0  0
 17 45  1  0  0  0
 18 19  1  0  0  0
 18 41  1  0  0  0
 19 20  1  0  0  0
 19 39  1  0  0  0
 19 40  1  0  0  0
 20 21  1  0  0  0
 20 37  1  0  0  0
 20 38  1  0  0  0
 21 22  2  0  0  0
 21 36  1  0  0  0
 22 23  1  0  0  0
 22 35  1  0  0  0
 23 24  1  0  0  0
 23 30  1  0  0  0
 23 34  1  0  0  0
 24 25  1  0  0  0
 24 28  1  0  0  0
 24 29  1  0  0  0
 25 26  1  0  0  0
 25 27  1  0  0  0
 30 31  1  0  0  0
 30 32  1  0  0  0
 30 33  1  0  0  0
 41 42  1  0  0  0
 41 43  1  0  0  0
 41 44  1  0  0  0
 46 47  1  0  0  0
 46 48  1  0  0  0
 53 54  1  0  0  0
M  END
> <Tumorigenic>
none

> <Score>
42.478638

> <Active/Decoy>
active

> <InChI>
InChI=1S/C20H29NO5S/c1-13-5-3-4-6-14(2)9-18(22)25-16-10-15(8-7-13)26-20(24,11-16)17-12-27-19(23)21-17/h3,5,9,13,15-17,24H,4,6-8,10-12H2,1-2H3,(H,21,23)/b5-3+,14-9-/t13-,15-,16-,17+,20+/m1/s1

> <Matching Features>
H:14924486185440016873|HBA:149238150533300697|HBA:14924321692640012300|HBA:14924486112070016868

> <Mol. Index>
695

> <Pharmacophore Match>
Model -1

> <# Confs.>
25

> <Source Database>
Pharm-Screening-input-NANPDB_After_DataWarror.ldb

> <Pharmacophore-Fit Score>
42.48

> <formula>
C20H29NO5S

> <Mutagenic>
none

> <Reproductive Effective>
none

> <Irritant>
none

$$$$
3-O-caffeoylquinic methyl ester
XX    ILIB03122402113D

 46 47  0  0  1  0              1 V2000
   -3.2790   -1.8116    0.3308 O   0  0  0  0  0
   -2.4999   -1.0355   -0.1919 C   0  0  0  0  0
   -2.7421   -0.2370   -1.2713 O   0  0  0  0  0
   -4.0450   -0.3200   -1.8433 C   0  0  1  0  0
   -5.1049    0.0566   -0.8115 C   0  0  1  0  0
   -4.8090    1.3547   -0.2956 O   0  0  0  0  0
   -5.4897    1.5685    0.3641 H   0  0  0  0  0
   -6.5042    0.0640   -1.4286 C   0  0  2  0  0
   -6.8702   -1.2671   -1.7704 O   0  0  0  0  0
   -7.7596   -1.2367   -2.1613 H   0  0  0  0  0
   -6.5843    0.9814   -2.6540 C   0  0  0  0  0
   -5.4625    0.7862   -3.6871 C   0  0  2  0  0
   -5.4298    1.9908   -4.4734 O   0  0  0  0  0
   -4.6679    1.9356   -5.0752 H   0  0  0  0  0
   -5.8231   -0.2730   -4.7083 C   0  0  0  0  0
   -6.8269   -0.9718   -4.6334 O   0  0  0  0  0
   -4.8746   -0.3562   -5.6826 O   0  0  0  0  0
   -5.1112   -1.3548   -6.6793 C   0  0  0  0  0
   -5.1113   -2.3497   -6.2254 H   0  0  0  0  0
   -4.3000   -1.3039   -7.4112 H   0  0  0  0  0
   -6.0585   -1.1631   -7.1914 H   0  0  0  0  0
   -4.0727    0.6100   -3.0604 C   0  0  0  0  0
   -3.3580    0.2498   -3.8132 H   0  0  0  0  0
   -3.6743    1.5916   -2.7668 H   0  0  0  0  0
   -6.5634    2.0236   -2.3062 H   0  0  0  0  0
   -7.5583    0.8522   -3.1446 H   0  0  0  0  0
   -7.2290    0.4190   -0.6854 H   0  0  0  0  0
   -5.0590   -0.6465    0.0279 H   0  0  0  0  0
   -4.2085   -1.3583   -2.1868 H   0  0  0  0  0
   -1.1187   -0.8548    0.3156 C   0  0  0  0  0
   -0.2208   -0.0141   -0.2218 C   0  0  0  0  0
    1.1545    0.1490    0.2624 C   0  0  0  0  0
    2.1923    0.5078   -0.6132 C   0  0  0  0  0
    3.4978    0.6692   -0.1434 C   0  0  0  0  0
    4.4662    1.0162   -1.0434 O   0  0  0  0  0
    5.3075    1.0864   -0.5649 H   0  0  0  0  0
    3.7924    0.4784    1.2010 C   0  0  0  0  0
    5.0777    0.6438    1.6335 O   0  0  0  0  0
    5.1069    0.4679    2.5893 H   0  0  0  0  0
    2.7822    0.1222    2.0887 C   0  0  0  0  0
    1.4724   -0.0395    1.6223 C   0  0  0  0  0
    0.7109   -0.3219    2.3446 H   0  0  0  0  0
    2.9969   -0.0334    3.1412 H   0  0  0  0  0
    1.9973    0.6674   -1.6713 H   0  0  0  0  0
   -0.4796    0.5923   -1.0855 H   0  0  0  0  0
   -0.8677   -1.4848    1.1646 H   0  0  0  0  0
  1  2  2  0  0  0
  2  3  1  0  0  0
  2 30  1  0  0  0
  3  4  1  0  0  0
  4  5  1  0  0  0
  4 22  1  0  0  0
  4 29  1  0  0  0
  5  6  1  0  0  0
  5  8  1  0  0  0
  5 28  1  0  0  0
  6  7  1  0  0  0
  8  9  1  0  0  0
  8 11  1  0  0  0
  8 27  1  0  0  0
  9 10  1  0  0  0
 11 12  1  0  0  0
 11 25  1  0  0  0
 11 26  1  0  0  0
 12 13  1  0  0  0
 12 15  1  0  0  0
 12 22  1  0  0  0
 13 14  1  0  0  0
 15 16  2  0  0  0
 15 17  1  0  0  0
 17 18  1  0  0  0
 18 19  1  0  0  0
 18 20  1  0  0  0
 18 21  1  0  0  0
 22 23  1  0  0  0
 22 24  1  0  0  0
 30 31  2  0  0  0
 30 46  1  0  0  0
 31 32  1  0  0  0
 31 45  1  0  0  0
 32 33  2  0  0  0
 32 41  1  0  0  0
 33 34  1  0  0  0
 33 44  1  0  0  0
 34 35  1  0  0  0
 34 37  2  0  0  0
 35 36  1  0  0  0
 37 38  1  0  0  0
 37 40  1  0  0  0
 38 39  1  0  0  0
 40 41  2  0  0  0
 40 43  1  0  0  0
 41 42  1  0  0  0
M  END
> <Tumorigenic>
none

> <Score>
42.479023

> <Active/Decoy>
active

> <InChI>
InChI=1S/C17H20O9/c1-25-16(23)17(24)7-12(20)15(22)13(8-17)26-14(21)5-3-9-2-4-10(18)11(19)6-9/h2-6,12-13,15,18-20,22,24H,7-8H2,1H3/b5-3+/t12-,13-,15+,17-/m1/s1

> <Matching Features>
H:14924486185440016873|HBA:149238150533300697|HBA:14924321692640012300|HBA:14924486112070016868

> <Mol. Index>
564

> <Pharmacophore Match>
Model -1

> <# Confs.>
25

> <Source Database>
Pharm-Screening-input-NANPDB_After_DataWarror.ldb

> <Pharmacophore-Fit Score>
42.48

> <formula>
C17H20O9

> <Mutagenic>
none

> <Reproductive Effective>
none

> <Irritant>
none

$$$$
8-C-p-hydroxybenzylluteolin
XX    ILIB03122402113D

 45 48  0  0  1  0              1 V2000
   -4.3307    0.3623   -3.8477 O   0  0  0  0  0
   -3.3836    0.7138   -3.1592 C   0  0  0  0  0
   -3.4930    0.9670   -1.7077 C   0  0  0  0  0
   -2.3454    1.3693   -1.0133 C   0  0  0  0  0
   -1.1298    1.5447   -1.6374 O   0  0  0  0  0
   -1.0255    1.3045   -2.9999 C   0  0  0  0  0
   -2.0497    0.8966   -3.7638 C   0  0  0  0  0
   -1.9665    0.7077   -4.8285 H   0  0  0  0  0
    0.3322    1.5089   -3.5377 C   0  0  0  0  0
    1.4658    1.3012   -2.7324 C   0  0  0  0  0
    2.7495    1.5044   -3.2427 C   0  0  0  0  0
    3.8137    1.2858   -2.4133 O   0  0  0  0  0
    4.6282    1.4708   -2.9119 H   0  0  0  0  0
    2.9288    1.9177   -4.5563 C   0  0  0  0  0
    4.1963    2.1078   -5.0322 O   0  0  0  0  0
    4.1386    2.3994   -5.9551 H   0  0  0  0  0
    1.8245    2.1333   -5.3737 C   0  0  0  0  0
    0.5364    1.9301   -4.8661 C   0  0  0  0  0
   -0.3034    2.1130   -5.5325 H   0  0  0  0  0
    1.9471    2.4604   -6.4024 H   0  0  0  0  0
    1.3629    0.9754   -1.6995 H   0  0  0  0  0
   -2.3837    1.6456    0.3668 C   0  0  0  0  0
   -3.6129    1.4521    1.0392 C   0  0  0  0  0
   -3.6790    1.6766    2.3889 O   0  0  0  0  0
   -4.5886    1.5095    2.6909 H   0  0  0  0  0
   -4.7597    1.0430    0.3566 C   0  0  0  0  0
   -4.6973    0.8041   -1.0158 C   0  0  0  0  0
   -5.8288    0.4046   -1.6737 O   0  0  0  0  0
   -6.5602    0.3442   -1.0359 H   0  0  0  0  0
   -5.6951    0.9108    0.8926 H   0  0  0  0  0
   -1.1674    2.0565    1.1336 C   0  0  0  0  0
   -0.1848    0.9485    1.3676 C   0  0  0  0  0
   -0.6150   -0.3071    1.8236 C   0  0  0  0  0
    0.3017   -1.3325    2.0579 C   0  0  0  0  0
    1.6578   -1.1055    1.8406 C   0  0  0  0  0
    2.5338   -2.1247    2.0816 O   0  0  0  0  0
    3.4338   -1.8115    1.8888 H   0  0  0  0  0
    2.1072    0.1332    1.3902 C   0  0  0  0  0
    1.1861    1.1558    1.1548 C   0  0  0  0  0
    1.5498    2.1190    0.8045 H   0  0  0  0  0
    3.1644    0.3143    1.2202 H   0  0  0  0  0
   -0.0477   -2.2982    2.4105 H   0  0  0  0  0
   -1.6707   -0.4951    2.0038 H   0  0  0  0  0
   -1.4507    2.5155    2.0780 H   0  0  0  0  0
   -0.6634    2.8742    0.5699 H   0  0  0  0  0
  1  2  2  0  0  0
  2  3  1  0  0  0
  2  7  1  0  0  0
  3  4  2  0  0  0
  3 27  1  0  0  0
  4  5  1  0  0  0
  4 22  1  0  0  0
  5  6  1  0  0  0
  6  7  2  0  0  0
  6  9  1  0  0  0
  7  8  1  0  0  0
  9 10  2  0  0  0
  9 18  1  0  0  0
 10 11  1  0  0  0
 10 21  1  0  0  0
 11 12  1  0  0  0
 11 14  2  0  0  0
 12 13  1  0  0  0
 14 15  1  0  0  0
 14 17  1  0  0  0
 15 16  1  0  0  0
 17 18  2  0  0  0
 17 20  1  0  0  0
 18 19  1  0  0  0
 22 23  2  0  0  0
 22 31  1  0  0  0
 23 24  1  0  0  0
 23 26  1  0  0  0
 24 25  1  0  0  0
 26 27  2  0  0  0
 26 30  1  0  0  0
 27 28  1  0  0  0
 28 29  1  0  0  0
 31 32  1  0  0  0
 31 44  1  0  0  0
 31 45  1  0  0  0
 32 33  2  0  0  0
 32 39  1  0  0  0
 33 34  1  0  0  0
 33 43  1  0  0  0
 34 35  2  0  0  0
 34 42  1  0  0  0
 35 36  1  0  0  0
 35 38  1  0  0  0
 36 37  1  0  0  0
 38 39  2  0  0  0
 38 41  1  0  0  0
 39 40  1  0  0  0
M  END
> <Tumorigenic>
none

> <Score>
42.386944

> <Active/Decoy>
active

> <InChI>
InChI=1S/C22H16O7/c23-13-4-1-11(2-5-13)7-14-16(25)9-18(27)21-19(28)10-20(29-22(14)21)12-3-6-15(24)17(26)8-12/h1-6,8-10,23-27H,7H2

> <Matching Features>
H:14924486185440016873|HBA:149238150533300697|HBA:14924321692640012300|HBA:14924486112070016868

> <Mol. Index>
1311

> <Pharmacophore Match>
Model -1

> <# Confs.>
25

> <Source Database>
Pharm-Screening-input-NANPDB_After_DataWarror.ldb

> <Pharmacophore-Fit Score>
42.39

> <formula>
C22H16O7

> <Mutagenic>
none

> <Reproductive Effective>
none

> <Irritant>
none

$$$$
thymohydrochinone-2-O-beta-glucopyranoside
XX    ILIB03122402113D

 47 48  0  0  1  0              1 V2000
   -3.1693    1.3696   -0.6467 O   0  0  0  0  0
   -2.5633    0.1515   -1.1236 C   0  0  2  0  0
   -1.6636    0.3746   -2.2103 O   0  0  0  0  0
   -0.3583    0.5929   -1.8892 C   0  0  0  0  0
    0.3766    1.4178   -2.7764 C   0  0  0  0  0
    1.7201    1.6973   -2.4786 C   0  0  0  0  0
    2.3189    1.1778   -1.3302 C   0  0  0  0  0
    3.6305    1.4591   -1.0560 O   0  0  0  0  0
    3.9818    2.0292   -1.7613 H   0  0  0  0  0
    1.6005    0.3690   -0.4477 C   0  0  0  0  0
    0.2583    0.0859   -0.7388 C   0  0  0  0  0
   -0.2912   -0.5505   -0.0503 H   0  0  0  0  0
    2.2442   -0.2022    0.7819 C   0  0  0  0  0
    3.0549   -0.8826    0.5024 H   0  0  0  0  0
    2.6412    0.5994    1.4124 H   0  0  0  0  0
    1.5267   -0.7667    1.3866 H   0  0  0  0  0
    2.3046    2.3243   -3.1487 H   0  0  0  0  0
   -0.2157    2.0085   -4.0328 C   0  0  0  0  0
    0.5443    1.5241   -5.2699 C   0  0  0  0  0
    1.5922    1.8448   -5.2534 H   0  0  0  0  0
    0.0872    1.9171   -6.1837 H   0  0  0  0  0
    0.5327    0.4305   -5.3346 H   0  0  0  0  0
   -0.2600    3.5395   -3.9951 C   0  0  0  0  0
    0.7438    3.9777   -3.9734 H   0  0  0  0  0
   -0.8012    3.8947   -3.1116 H   0  0  0  0  0
   -0.7729    3.9304   -4.8800 H   0  0  0  0  0
   -1.2546    1.6627   -4.1192 H   0  0  0  0  0
   -3.6642   -0.8249   -1.5597 C   0  0  2  0  0
   -3.0768   -2.0212   -2.0595 O   0  0  0  0  0
   -2.5199   -1.7826   -2.8196 H   0  0  0  0  0
   -4.5827   -0.2090   -2.6145 C   0  0  1  0  0
   -5.6834   -1.0861   -2.8569 O   0  0  0  0  0
   -6.1640   -1.2054   -2.0202 H   0  0  0  0  0
   -5.1104    1.1431   -2.1297 C   0  0  2  0  0
   -5.7934    1.7946   -3.1977 O   0  0  0  0  0
   -6.4969    1.1962   -3.5016 H   0  0  0  0  0
   -3.9643    2.0393   -1.6451 C   0  0  1  0  0
   -4.4500    3.3452   -1.0413 C   0  0  0  0  0
   -5.2371    3.0757    0.1140 O   0  0  0  0  0
   -4.6848    2.5649    0.7302 H   0  0  0  0  0
   -3.6169    3.9873   -0.7362 H   0  0  0  0  0
   -5.0787    3.8962   -1.7479 H   0  0  0  0  0
   -3.3175    2.3067   -2.4910 H   0  0  0  0  0
   -5.8389    0.9784   -1.3253 H   0  0  0  0  0
   -4.0651   -0.1029   -3.5747 H   0  0  0  0  0
   -4.2653   -1.1047   -0.6863 H   0  0  0  0  0
   -2.0234   -0.2977   -0.2916 H   0  0  0  0  0
  1  2  1  0  0  0
  1 37  1  0  0  0
  2  3  1  0  0  0
  2 28  1  0  0  0
  2 47  1  0  0  0
  3  4  1  0  0  0
  4  5  2  0  0  0
  4 11  1  0  0  0
  5  6  1  0  0  0
  5 18  1  0  0  0
  6  7  2  0  0  0
  6 17  1  0  0  0
  7  8  1  0  0  0
  7 10  1  0  0  0
  8  9  1  0  0  0
 10 11  2  0  0  0
 10 13  1  0  0  0
 11 12  1  0  0  0
 13 14  1  0  0  0
 13 15  1  0  0  0
 13 16  1  0  0  0
 18 19  1  0  0  0
 18 23  1  0  0  0
 18 27  1  0  0  0
 19 20  1  0  0  0
 19 21  1  0  0  0
 19 22  1  0  0  0
 23 24  1  0  0  0
 23 25  1  0  0  0
 23 26  1  0  0  0
 28 29  1  0  0  0
 28 31  1  0  0  0
 28 46  1  0  0  0
 29 30  1  0  0  0
 31 32  1  0  0  0
 31 34  1  0  0  0
 31 45  1  0  0  0
 32 33  1  0  0  0
 34 35  1  0  0  0
 34 37  1  0  0  0
 34 44  1  0  0  0
 35 36  1  0  0  0
 37 38  1  0  0  0
 37 43  1  0  0  0
 38 39  1  0  0  0
 38 41  1  0  0  0
 38 42  1  0  0  0
 39 40  1  0  0  0
M  END
> <Tumorigenic>
none

> <Score>
42.393402

> <Active/Decoy>
active

> <InChI>
InChI=1S/C16H24O7/c1-7(2)9-5-10(18)8(3)4-11(9)22-16-15(21)14(20)13(19)12(6-17)23-16/h4-5,7,12-21H,6H2,1-3H3/t12-,13-,14+,15-,16+/m1/s1

> <Matching Features>
H:14924486185440016873|HBA:149238150533300697|HBA:14924321692640012300|HBA:14924486112070016868

> <Mol. Index>
1259

> <Pharmacophore Match>
Model -1

> <# Confs.>
25

> <Source Database>
Pharm-Screening-input-NANPDB_After_DataWarror.ldb

> <Pharmacophore-Fit Score>
42.39

> <formula>
C16H24O7

> <Mutagenic>
none

> <Reproductive Effective>
none

> <Irritant>
none

$$$$
3-O-acetyl chlorogenic acid
XX    ILIB03122402113D

 48 49  0  0  1  0              1 V2000
   -2.0292   -2.9899   -1.3466 O   0  0  0  0  0
   -1.3108   -2.0277   -1.5814 C   0  0  0  0  0
   -1.4473   -1.1503   -2.6000 O   0  0  0  0  0
   -2.5145   -1.3963   -3.5164 C   0  0  2  0  0
   -2.1558   -0.9047   -4.9225 C   0  0  2  0  0
   -1.7871    0.4799   -4.8730 O   0  0  0  0  0
   -1.0656    0.5640   -4.2268 H   0  0  0  0  0
   -3.3379   -1.0418   -5.8916 C   0  0  1  0  0
   -3.6288   -2.4300   -6.1114 O   0  0  0  0  0
   -2.9813   -3.0260   -7.1362 C   0  0  0  0  0
   -2.1746   -2.4984   -7.8907 O   0  0  0  0  0
   -3.3889   -4.4660   -7.2161 C   0  0  0  0  0
   -3.0507   -4.9948   -6.3214 H   0  0  0  0  0
   -2.9262   -4.9271   -8.0936 H   0  0  0  0  0
   -4.4739   -4.5412   -7.3233 H   0  0  0  0  0
   -4.6048   -0.3566   -5.3481 C   0  0  0  0  0
   -4.9644   -0.7733   -3.9104 C   0  0  2  0  0
   -5.4099   -2.1259   -3.9162 O   0  0  0  0  0
   -5.5752   -2.3938   -2.9957 H   0  0  0  0  0
   -6.1021    0.0789   -3.4246 C   0  0  0  0  0
   -5.9591    1.1285   -2.8128 O   0  0  0  0  0
   -7.3138   -0.4464   -3.7352 O   0  0  0  0  0
   -7.2838   -1.2972   -4.2234 H   0  0  0  0  0
   -3.7542   -0.6518   -2.9719 C   0  0  0  0  0
   -3.9969   -1.0556   -1.9801 H   0  0  0  0  0
   -3.4930    0.4031   -2.7971 H   0  0  0  0  0
   -5.4419   -0.6022   -6.0148 H   0  0  0  0  0
   -4.4672    0.7321   -5.3882 H   0  0  0  0  0
   -3.0932   -0.5635   -6.8506 H   0  0  0  0  0
   -1.2891   -1.4528   -5.2898 H   0  0  0  0  0
   -2.7467   -2.4699   -3.5425 H   0  0  0  0  0
   -0.1614   -1.6844   -0.7227 C   0  0  0  0  0
    0.6475   -0.6382   -0.9480 C   0  0  0  0  0
    1.7930   -0.2812   -0.1051 C   0  0  0  0  0
    2.8934    0.3563   -0.6994 C   0  0  0  0  0
    4.0068    0.7219    0.0623 C   0  0  0  0  0
    5.0221    1.3516   -0.5981 O   0  0  0  0  0
    5.6565    1.7164    0.0433 H   0  0  0  0  0
    4.0389    0.4479    1.4266 C   0  0  0  0  0
    5.1011    0.7531    2.2253 O   0  0  0  0  0
    5.8585    1.0161    1.6793 H   0  0  0  0  0
    2.9509   -0.1757    2.0334 C   0  0  0  0  0
    1.8353   -0.5386    1.2738 C   0  0  0  0  0
    1.0060   -1.0256    1.7817 H   0  0  0  0  0
    2.9639   -0.3907    3.0990 H   0  0  0  0  0
    2.8874    0.5774   -1.7656 H   0  0  0  0  0
    0.4791    0.0175   -1.7980 H   0  0  0  0  0
   -0.0112   -2.3483    0.1235 H   0  0  0  0  0
  1  2  2  0  0  0
  2  3  1  0  0  0
  2 32  1  0  0  0
  3  4  1  0  0  0
  4  5  1  0  0  0
  4 24  1  0  0  0
  4 31  1  0  0  0
  5  6  1  0  0  0
  5  8  1  0  0  0
  5 30  1  0  0  0
  6  7  1  0  0  0
  8  9  1  0  0  0
  8 16  1  0  0  0
  8 29  1  0  0  0
  9 10  1  0  0  0
 10 11  2  0  0  0
 10 12  1  0  0  0
 12 13  1  0  0  0
 12 14  1  0  0  0
 12 15  1  0  0  0
 16 17  1  0  0  0
 16 27  1  0  0  0
 16 28  1  0  0  0
 17 18  1  0  0  0
 17 20  1  0  0  0
 17 24  1  0  0  0
 18 19  1  0  0  0
 20 21  2  0  0  0
 20 22  1  0  0  0
 22 23  1  0  0  0
 24 25  1  0  0  0
 24 26  1  0  0  0
 32 33  2  0  0  0
 32 48  1  0  0  0
 33 34  1  0  0  0
 33 47  1  0  0  0
 34 35  2  0  0  0
 34 43  1  0  0  0
 35 36  1  0  0  0
 35 46  1  0  0  0
 36 37  1  0  0  0
 36 39  2  0  0  0
 37 38  1  0  0  0
 39 40  1  0  0  0
 39 42  1  0  0  0
 40 41  1  0  0  0
 42 43  2  0  0  0
 42 45  1  0  0  0
 43 44  1  0  0  0
M  END
> <Tumorigenic>
none

> <Score>
42.391636

> <Active/Decoy>
active

> <InChI>
InChI=1S/C18H20O10/c1-9(19)27-13-7-18(26,17(24)25)8-14(16(13)23)28-15(22)5-3-10-2-4-11(20)12(21)6-10/h2-6,13-14,16,20-21,23,26H,7-8H2,1H3,(H,24,25)/b5-3+/t13-,14-,16+,18+/m0/s1

> <Matching Features>
H:14924486185440016873|HBA:149238150533300697|HBA:14924321692640012300|HBA:14924486112070016868

> <Mol. Index>
91

> <Pharmacophore Match>
Model -1

> <# Confs.>
25

> <Source Database>
Pharm-Screening-input-NANPDB_After_DataWarror.ldb

> <Pharmacophore-Fit Score>
42.39

> <formula>
C18H20O10

> <Mutagenic>
none

> <Reproductive Effective>
none

> <Irritant>
none

$$$$
chlorogenic acid
XX    ILIB03122402113D

 43 44  0  0  1  0              1 V2000
   -2.2880    3.7933    0.4984 O   0  0  0  0  0
   -2.2066    2.7793   -0.1709 C   0  0  0  0  0
   -3.0817    2.3557   -1.1056 O   0  0  0  0  0
   -4.2262    3.1827   -1.3437 C   0  0  1  0  0
   -3.8589    4.1845   -2.4540 C   0  0  2  0  0
   -4.9055    5.1472   -2.5849 O   0  0  0  0  0
   -4.9930    5.6008   -1.7299 H   0  0  0  0  0
   -3.6564    3.4791   -3.7975 C   0  0  2  0  0
   -3.3592    4.4408   -4.8074 O   0  0  0  0  0
   -4.1063    5.0616   -4.8528 H   0  0  0  0  0
   -4.8831    2.6676   -4.2173 C   0  0  0  0  0
   -5.3991    1.7134   -3.1327 C   0  0  1  0  0
   -6.7555    1.3743   -3.4690 O   0  0  0  0  0
   -6.7676    1.0636   -4.3907 H   0  0  0  0  0
   -4.7172    0.3753   -3.1098 C   0  0  0  0  0
   -3.5372    0.2032   -3.3842 O   0  0  0  0  0
   -5.5563   -0.6297   -2.7551 O   0  0  0  0  0
   -6.4774   -0.3521   -2.5667 H   0  0  0  0  0
   -5.4523    2.3476   -1.7322 C   0  0  0  0  0
   -6.3393    2.9930   -1.6740 H   0  0  0  0  0
   -5.6115    1.5605   -0.9835 H   0  0  0  0  0
   -4.6526    2.1146   -5.1378 H   0  0  0  0  0
   -5.6877    3.3543   -4.5149 H   0  0  0  0  0
   -2.7815    2.8250   -3.7347 H   0  0  0  0  0
   -2.9435    4.7308   -2.1989 H   0  0  0  0  0
   -4.4611    3.7443   -0.4331 H   0  0  0  0  0
   -1.0794    1.8289   -0.0150 C   0  0  0  0  0
    0.1521    2.1933    0.3578 C   0  0  0  0  0
    1.2784    1.2672    0.5218 C   0  0  0  0  0
    2.4217    1.4520   -0.2716 C   0  0  0  0  0
    3.5218    0.6004   -0.1491 C   0  0  0  0  0
    4.5964    0.8643   -0.9507 O   0  0  0  0  0
    5.3591    0.3358   -0.6643 H   0  0  0  0  0
    3.4927   -0.4507    0.7631 C   0  0  0  0  0
    4.5212   -1.3374    0.9177 O   0  0  0  0  0
    5.1642   -1.2219    0.2014 H   0  0  0  0  0
    2.3704   -0.6417    1.5650 C   0  0  0  0  0
    1.2690    0.2119    1.4457 C   0  0  0  0  0
    0.4089    0.0309    2.0864 H   0  0  0  0  0
    2.3377   -1.4561    2.2831 H   0  0  0  0  0
    2.4622    2.2672   -0.9917 H   0  0  0  0  0
    0.3801    3.2370    0.5591 H   0  0  0  0  0
   -1.3331    0.7863   -0.2096 H   0  0  0  0  0
  1  2  2  0  0  0
  2  3  1  0  0  0
  2 27  1  0  0  0
  3  4  1  0  0  0
  4  5  1  0  0  0
  4 19  1  0  0  0
  4 26  1  0  0  0
  5  6  1  0  0  0
  5  8  1  0  0  0
  5 25  1  0  0  0
  6  7  1  0  0  0
  8  9  1  0  0  0
  8 11  1  0  0  0
  8 24  1  0  0  0
  9 10  1  0  0  0
 11 12  1  0  0  0
 11 22  1  0  0  0
 11 23  1  0  0  0
 12 13  1  0  0  0
 12 15  1  0  0  0
 12 19  1  0  0  0
 13 14  1  0  0  0
 15 16  2  0  0  0
 15 17  1  0  0  0
 17 18  1  0  0  0
 19 20  1  0  0  0
 19 21  1  0  0  0
 27 28  2  0  0  0
 27 43  1  0  0  0
 28 29  1  0  0  0
 28 42  1  0  0  0
 29 30  2  0  0  0
 29 38  1  0  0  0
 30 31  1  0  0  0
 30 41  1  0  0  0
 31 32  1  0  0  0
 31 34  2  0  0  0
 32 33  1  0  0  0
 34 35  1  0  0  0
 34 37  1  0  0  0
 35 36  1  0  0  0
 37 38  2  0  0  0
 37 40  1  0  0  0
 38 39  1  0  0  0
M  END
> <Tumorigenic>
none

> <Score>
42.386246

> <Active/Decoy>
active

> <InChI>
InChI=1S/C16H18O9/c17-9-3-1-8(5-10(9)18)2-4-13(20)25-12-7-16(24,15(22)23)6-11(19)14(12)21/h1-5,11-12,14,17-19,21,24H,6-7H2,(H,22,23)/b4-2+/t11-,12-,14-,16+/m1/s1

> <Matching Features>
H:14924486185440016873|HBA:149238150533300697|HBA:14924321692640012300|HBA:14924486112070016868

> <Mol. Index>
71

> <Pharmacophore Match>
Model -1

> <# Confs.>
25

> <Source Database>
Pharm-Screening-input-NANPDB_After_DataWarror.ldb

> <Pharmacophore-Fit Score>
42.39

> <formula>
C16H18O9

> <Mutagenic>
none

> <Reproductive Effective>
none

> <Irritant>
none

$$$$
pilloin 6-C-beta-D-glucoside
XX    ILIB03122402113D

 58 61  0  0  1  0              1 V2000
   -3.3864    1.4697    1.7826 O   0  0  0  0  0
   -2.5676    1.0485    0.9776 C   0  0  0  0  0
   -2.9466    0.5273   -0.3536 C   0  0  0  0  0
   -4.2726    0.4863   -0.8137 C   0  0  0  0  0
   -5.3135    0.9513   -0.0502 O   0  0  0  0  0
   -4.9789    1.2759    0.8009 H   0  0  0  0  0
   -4.5906   -0.0243   -2.1040 C   0  0  0  0  0
   -3.5297   -0.4726   -2.9207 C   0  0  0  0  0
   -3.8895   -0.9536   -4.1529 O   0  0  0  0  0
   -2.8003   -1.4137   -4.9573 C   0  0  0  0  0
   -2.1012   -0.6082   -5.1798 H   0  0  0  0  0
   -2.2867   -2.2632   -4.4806 H   0  0  0  0  0
   -3.2186   -1.7681   -5.9045 H   0  0  0  0  0
   -2.2099   -0.4263   -2.4562 C   0  0  0  0  0
   -1.9245    0.0787   -1.1860 C   0  0  0  0  0
   -0.6000    0.0817   -0.8260 O   0  0  0  0  0
   -0.2427    0.5710    0.4212 C   0  0  0  0  0
   -1.1305    1.0296    1.3165 C   0  0  0  0  0
   -0.8560    1.4069    2.2949 H   0  0  0  0  0
    1.2059    0.5268    0.6934 C   0  0  0  0  0
    2.1328    0.6428   -0.3530 C   0  0  0  0  0
    3.5075    0.6130   -0.0953 C   0  0  0  0  0
    4.3963    0.7273   -1.1322 O   0  0  0  0  0
    3.8985    0.8289   -1.9600 H   0  0  0  0  0
    3.9984    0.4707    1.2033 C   0  0  0  0  0
    5.3609    0.4560    1.3416 O   0  0  0  0  0
    5.8357    0.3097    2.6765 C   0  0  0  0  0
    5.5189    1.1501    3.3029 H   0  0  0  0  0
    5.5163   -0.6454    3.1074 H   0  0  0  0  0
    6.9299    0.3115    2.6422 H   0  0  0  0  0
    3.0853    0.3573    2.2515 C   0  0  0  0  0
    1.7090    0.3860    1.9984 C   0  0  0  0  0
    1.0374    0.3006    2.8502 H   0  0  0  0  0
    3.4045    0.2469    3.2830 H   0  0  0  0  0
    1.7958    0.7538   -1.3810 H   0  0  0  0  0
   -1.3818   -0.7777   -3.0654 H   0  0  0  0  0
   -6.0179   -0.0367   -2.5676 C   0  0  2  0  0
   -6.3288   -1.4235   -2.8363 O   0  0  0  0  0
   -7.7030   -1.6273   -3.1762 C   0  0  1  0  0
   -8.0339   -0.8763   -4.4688 C   0  0  1  0  0
   -9.4208   -1.0084   -4.7701 O   0  0  0  0  0
   -9.9252   -0.6409   -4.0243 H   0  0  0  0  0
   -7.6841    0.6056   -4.3482 C   0  0  2  0  0
   -7.7964    1.2011   -5.6421 O   0  0  0  0  0
   -7.5460    2.1369   -5.5535 H   0  0  0  0  0
   -6.2574    0.8014   -3.8280 C   0  0  1  0  0
   -6.0976    2.1852   -3.5195 O   0  0  0  0  0
   -5.1662    2.3301   -3.2817 H   0  0  0  0  0
   -5.5516    0.5547   -4.6303 H   0  0  0  0  0
   -8.4081    1.1224   -3.7063 H   0  0  0  0  0
   -7.4792   -1.3079   -5.3114 H   0  0  0  0  0
   -7.9183   -3.1223   -3.3320 C   0  0  0  0  0
   -9.2757   -3.3801   -3.6715 O   0  0  0  0  0
   -9.4680   -2.8900   -4.4895 H   0  0  0  0  0
   -7.2890   -3.5427   -4.1242 H   0  0  0  0  0
   -7.7062   -3.6493   -2.3968 H   0  0  0  0  0
   -8.3271   -1.2745   -2.3443 H   0  0  0  0  0
   -6.6590    0.3070   -1.7568 H   0  0  0  0  0
  1  2  2  0  0  0
  2  3  1  0  0  0
  2 18  1  0  0  0
  3  4  2  0  0  0
  3 15  1  0  0  0
  4  5  1  0  0  0
  4  7  1  0  0  0
  5  6  1  0  0  0
  7  8  2  0  0  0
  7 37  1  0  0  0
  8  9  1  0  0  0
  8 14  1  0  0  0
  9 10  1  0  0  0
 10 11  1  0  0  0
 10 12  1  0  0  0
 10 13  1  0  0  0
 14 15  2  0  0  0
 14 36  1  0  0  0
 15 16  1  0  0  0
 16 17  1  0  0  0
 17 18  2  0  0  0
 17 20  1  0  0  0
 18 19  1  0  0  0
 20 21  2  0  0  0
 20 32  1  0  0  0
 21 22  1  0  0  0
 21 35  1  0  0  0
 22 23  1  0  0  0
 22 25  2  0  0  0
 23 24  1  0  0  0
 25 26  1  0  0  0
 25 31  1  0  0  0
 26 27  1  0  0  0
 27 28  1  0  0  0
 27 29  1  0  0  0
 27 30  1  0  0  0
 31 32  2  0  0  0
 31 34  1  0  0  0
 32 33  1  0  0  0
 37 38  1  0  0  0
 37 46  1  0  0  0
 37 58  1  0  0  0
 38 39  1  0  0  0
 39 40  1  0  0  0
 39 52  1  0  0  0
 39 57  1  0  0  0
 40 41  1  0  0  0
 40 43  1  0  0  0
 40 51  1  0  0  0
 41 42  1  0  0  0
 43 44  1  0  0  0
 43 46  1  0  0  0
 43 50  1  0  0  0
 44 45  1  0  0  0
 46 47  1  0  0  0
 46 49  1  0  0  0
 47 48  1  0  0  0
 52 53  1  0  0  0
 52 55  1  0  0  0
 52 56  1  0  0  0
 53 54  1  0  0  0
M  END
> <Tumorigenic>
none

> <Score>
42.380005

> <Active/Decoy>
active

> <InChI>
InChI=1S/C23H24O11/c1-31-12-4-3-9(5-10(12)25)13-6-11(26)17-15(33-13)7-14(32-2)18(20(17)28)23-22(30)21(29)19(27)16(8-24)34-23/h3-7,16,19,21-25,27-30H,8H2,1-2H3/t16-,19-,21+,22-,23+/m1/s1

> <Matching Features>
H:14924486185440016873|HBA:149238150533300697|HBA:14924321692640012300|HBA:14924486112070016868

> <Mol. Index>
1410

> <Pharmacophore Match>
Model -1

> <# Confs.>
25

> <Source Database>
Pharm-Screening-input-NANPDB_After_DataWarror.ldb

> <Pharmacophore-Fit Score>
42.38

> <formula>
C23H24O11

> <Mutagenic>
none

> <Reproductive Effective>
none

> <Irritant>
none

$$$$
cynarascoloside A
XX    ILIB03122402113D

 62 65  0  0  1  0              1 V2000
   -2.1626    0.5563    2.4589 O   0  0  0  0  0
   -1.7958    0.3132    1.3195 C   0  0  0  0  0
   -0.4988    0.1039    0.9638 O   0  0  0  0  0
   -0.4045   -0.2522   -0.4258 C   0  0  1  0  0
   -1.7036    0.2596   -1.0457 C   0  0  1  0  0
   -2.1426   -0.5369   -2.2964 C   0  0  1  0  0
   -3.4406   -0.0971   -2.6739 O   0  0  0  0  0
   -3.9815   -0.7721   -3.8117 C   0  0  2  0  0
   -5.2228   -0.2009   -4.2729 O   0  0  0  0  0
   -6.4214   -0.7469   -3.7177 C   0  0  1  0  0
   -6.5356   -2.2467   -4.0343 C   0  0  1  0  0
   -7.3051   -2.3874   -5.2346 O   0  0  0  0  0
   -7.3845   -3.3387   -5.4180 H   0  0  0  0  0
   -5.1853   -2.9256   -4.2771 C   0  0  2  0  0
   -5.2862   -4.3015   -3.9084 O   0  0  0  0  0
   -5.4754   -4.3421   -2.9550 H   0  0  0  0  0
   -4.0816   -2.2533   -3.4749 C   0  0  1  0  0
   -2.8264   -2.8782   -3.7494 O   0  0  0  0  0
   -2.6682   -2.8257   -4.7067 H   0  0  0  0  0
   -4.2485   -2.4023   -2.4023 H   0  0  0  0  0
   -4.9289   -2.9213   -5.3424 H   0  0  0  0  0
   -7.1133   -2.7557   -3.2544 H   0  0  0  0  0
   -6.5512   -0.4429   -2.2352 C   0  0  0  0  0
   -6.5748    0.9567   -2.0029 O   0  0  0  0  0
   -5.7133    1.3170   -2.2732 H   0  0  0  0  0
   -7.4794   -0.8700   -1.8411 H   0  0  0  0  0
   -5.7312   -0.8880   -1.6599 H   0  0  0  0  0
   -7.2336   -0.2101   -4.2261 H   0  0  0  0  0
   -3.2719   -0.6391   -4.6498 H   0  0  0  0  0
   -1.2099   -0.4032   -3.5055 C   0  0  0  0  0
    0.2397   -0.7101   -3.2188 C   0  0  0  0  0
    0.9997    0.4115   -2.5318 C   0  0  1  0  0
    0.8840    0.3649   -0.9919 C   0  0  2  0  0
    2.1717   -0.3810   -0.5727 C   0  0  1  0  0
    3.2303    0.2436   -1.4873 C   0  0  2  0  0
    3.6790    1.4884   -0.9609 O   0  0  0  0  0
    4.3448    1.8416   -1.5757 H   0  0  0  0  0
    2.5196    0.4880   -2.8195 C   0  0  0  0  0
    2.8435   -0.2397   -3.5688 H   0  0  0  0  0
    2.7689    1.4771   -3.2228 H   0  0  0  0  0
    4.1034   -0.4092   -1.5986 H   0  0  0  0  0
    2.5164   -0.2782    0.9079 C   0  0  0  0  0
    1.8278   -0.8770    1.5115 H   0  0  0  0  0
    2.4687    0.7539    1.2676 H   0  0  0  0  0
    3.5271   -0.6588    1.0926 H   0  0  0  0  0
    2.0734   -1.4446   -0.8304 H   0  0  0  0  0
    0.9580    1.3972   -0.6163 H   0  0  0  0  0
    0.5690    1.3590   -2.8845 H   0  0  0  0  0
    0.7589   -1.8962   -3.5731 C   0  0  0  0  0
    0.1510   -2.6506   -4.0621 H   0  0  0  0  0
    1.7887   -2.1639   -3.3641 H   0  0  0  0  0
   -1.5734   -1.0548   -4.3116 H   0  0  0  0  0
   -1.2975    0.6068   -3.9275 H   0  0  0  0  0
   -2.2198   -1.6007   -2.0050 H   0  0  0  0  0
   -2.6877    0.1726    0.1156 C   0  0  2  0  0
   -3.7559    1.2573    0.1127 C   0  0  0  0  0
   -3.3106    2.2580    0.1055 H   0  0  0  0  0
   -4.4190    1.1733   -0.7517 H   0  0  0  0  0
   -4.3788    1.1878    1.0114 H   0  0  0  0  0
   -3.1479   -0.8219    0.1618 H   0  0  0  0  0
   -1.5881    1.3272   -1.3281 H   0  0  0  0  0
   -0.3563   -1.3481   -0.4682 H   0  0  0  0  0
  1  2  2  0  0  0
  2  3  1  0  0  0
  2 55  1  0  0  0
  3  4  1  0  0  0
  4  5  1  0  0  0
  4 33  1  0  0  0
  4 62  1  0  0  0
  5  6  1  0  0  0
  5 55  1  0  0  0
  5 61  1  0  0  0
  6  7  1  0  0  0
  6 30  1  0  0  0
  6 54  1  0  0  0
  7  8  1  0  0  0
  8  9  1  0  0  0
  8 17  1  0  0  0
  8 29  1  0  0  0
  9 10  1  0  0  0
 10 11  1  0  0  0
 10 23  1  0  0  0
 10 28  1  0  0  0
 11 12  1  0  0  0
 11 14  1  0  0  0
 11 22  1  0  0  0
 12 13  1  0  0  0
 14 15  1  0  0  0
 14 17  1  0  0  0
 14 21  1  0  0  0
 15 16  1  0  0  0
 17 18  1  0  0  0
 17 20  1  0  0  0
 18 19  1  0  0  0
 23 24  1  0  0  0
 23 26  1  0  0  0
 23 27  1  0  0  0
 24 25  1  0  0  0
 30 31  1  0  0  0
 30 52  1  0  0  0
 30 53  1  0  0  0
 31 32  1  0  0  0
 31 49  2  0  0  0
 32 33  1  0  0  0
 32 38  1  0  0  0
 32 48  1  0  0  0
 33 34  1  0  0  0
 33 47  1  0  0  0
 34 35  1  0  0  0
 34 42  1  0  0  0
 34 46  1  0  0  0
 35 36  1  0  0  0
 35 38  1  0  0  0
 35 41  1  0  0  0
 36 37  1  0  0  0
 38 39  1  0  0  0
 38 40  1  0  0  0
 42 43  1  0  0  0
 42 44  1  0  0  0
 42 45  1  0  0  0
 49 50  1  0  0  0
 49 51  1  0  0  0
 55 56  1  0  0  0
 55 60  1  0  0  0
 56 57  1  0  0  0
 56 58  1  0  0  0
 56 59  1  0  0  0
M  END
> <Tumorigenic>
none

> <Score>
42.34059

> <Active/Decoy>
active

> <InChI>
InChI=1S/C21H32O9/c1-7-4-12(28-21-18(26)17(25)16(24)13(6-22)29-21)15-9(3)20(27)30-19(15)14-8(2)11(23)5-10(7)14/h8-19,21-26H,1,4-6H2,2-3H3/t8-,9+,10+,11-,12+,13-,14+,15-,16-,17+,18-,19-,21-/m1/s1

> <Matching Features>
H:14924486185440016873|HBA:149238150533300697|HBA:14924321692640012300|HBA:14924486112070016868

> <Mol. Index>
1094

> <Pharmacophore Match>
Model -1

> <# Confs.>
13

> <Source Database>
Pharm-Screening-input-NANPDB_After_DataWarror.ldb

> <Pharmacophore-Fit Score>
42.34

> <formula>
C21H32O9

> <Mutagenic>
none

> <Reproductive Effective>
none

> <Irritant>
none

$$$$
(+)-catechin-5-galloyl ester
XX    ILIB03122402113D

 50 53  0  0  1  0              1 V2000
   -4.6652   -3.2154    1.1368 O   0  0  0  0  0
   -4.5268   -2.9530   -0.0478 C   0  0  0  0  0
   -3.6335   -3.5068   -0.8923 O   0  0  0  0  0
   -2.4631   -3.9441   -0.2648 C   0  0  0  0  0
   -1.3661   -3.0635   -0.1333 C   0  0  0  0  0
   -0.2193   -3.5283    0.5240 C   0  0  0  0  0
    0.9134   -2.7781    0.6986 O   0  0  0  0  0
    1.0157   -1.6006   -0.1174 C   0  0  1  0  0
   -0.2939   -0.8027   -0.1309 C   0  0  1  0  0
   -0.1511    0.3493   -0.9535 O   0  0  0  0  0
   -1.0079    0.8089   -0.9668 H   0  0  0  0  0
   -1.4087   -1.6756   -0.7023 C   0  0  0  0  0
   -1.3181   -1.7346   -1.7942 H   0  0  0  0  0
   -2.3732   -1.1982   -0.4908 H   0  0  0  0  0
   -0.5625   -0.4813    0.8834 H   0  0  0  0  0
    2.1651   -0.7959    0.4238 C   0  0  0  0  0
    2.9195    0.0190   -0.4320 C   0  0  0  0  0
    3.9853    0.7741    0.0637 C   0  0  0  0  0
    4.6502    1.5654   -0.8296 O   0  0  0  0  0
    5.2085    2.1989   -0.3482 H   0  0  0  0  0
    4.3211    0.7073    1.4141 C   0  0  0  0  0
    5.3714    1.3920    1.9527 O   0  0  0  0  0
    5.9336    1.7413    1.2425 H   0  0  0  0  0
    3.5757   -0.0930    2.2773 C   0  0  0  0  0
    2.5038   -0.8406    1.7843 C   0  0  0  0  0
    1.9379   -1.4634    2.4718 H   0  0  0  0  0
    3.8263   -0.1467    3.3329 H   0  0  0  0  0
    2.6689    0.0767   -1.4894 H   0  0  0  0  0
    1.2707   -1.9170   -1.1387 H   0  0  0  0  0
   -0.1910   -4.8095    1.0848 C   0  0  0  0  0
   -1.3027   -5.6408    0.9730 C   0  0  0  0  0
   -2.4439   -5.2153    0.3020 C   0  0  0  0  0
   -3.3122   -5.8631    0.2191 H   0  0  0  0  0
   -1.2430   -6.8823    1.5395 O   0  0  0  0  0
   -2.0893   -7.3364    1.3811 H   0  0  0  0  0
    0.6963   -5.1554    1.6079 H   0  0  0  0  0
   -5.3123   -1.9154   -0.7422 C   0  0  0  0  0
   -6.2855   -1.2238   -0.0081 C   0  0  0  0  0
   -7.0606   -0.2433   -0.6314 C   0  0  0  0  0
   -8.0148    0.4379    0.0698 O   0  0  0  0  0
   -8.0192    0.1106    0.9861 H   0  0  0  0  0
   -6.8716    0.0531   -1.9778 C   0  0  0  0  0
   -7.6201    1.0091   -2.6054 O   0  0  0  0  0
   -8.2406    1.3818   -1.9555 H   0  0  0  0  0
   -5.9054   -0.6339   -2.7058 C   0  0  0  0  0
   -5.1228   -1.6168   -2.0982 C   0  0  0  0  0
   -4.3748   -2.1332   -2.6935 H   0  0  0  0  0
   -5.6921   -0.3707   -4.0306 O   0  0  0  0  0
   -6.3074    0.3315   -4.3010 H   0  0  0  0  0
   -6.4470   -1.4423    1.0451 H   0  0  0  0  0
  1  2  2  0  0  0
  2  3  1  0  0  0
  2 37  1  0  0  0
  3  4  1  0  0  0
  4  5  2  0  0  0
  4 32  1  0  0  0
  5  6  1  0  0  0
  5 12  1  0  0  0
  6  7  1  0  0  0
  6 30  2  0  0  0
  7  8  1  0  0  0
  8  9  1  0  0  0
  8 16  1  0  0  0
  8 29  1  0  0  0
  9 10  1  0  0  0
  9 12  1  0  0  0
  9 15  1  0  0  0
 10 11  1  0  0  0
 12 13  1  0  0  0
 12 14  1  0  0  0
 16 17  2  0  0  0
 16 25  1  0  0  0
 17 18  1  0  0  0
 17 28  1  0  0  0
 18 19  1  0  0  0
 18 21  2  0  0  0
 19 20  1  0  0  0
 21 22  1  0  0  0
 21 24  1  0  0  0
 22 23  1  0  0  0
 24 25  2  0  0  0
 24 27  1  0  0  0
 25 26  1  0  0  0
 30 31  1  0  0  0
 30 36  1  0  0  0
 31 32  2  0  0  0
 31 34  1  0  0  0
 32 33  1  0  0  0
 34 35  1  0  0  0
 37 38  2  0  0  0
 37 46  1  0  0  0
 38 39  1  0  0  0
 38 50  1  0  0  0
 39 40  1  0  0  0
 39 42  2  0  0  0
 40 41  1  0  0  0
 42 43  1  0  0  0
 42 45  1  0  0  0
 43 44  1  0  0  0
 45 46  2  0  0  0
 45 48  1  0  0  0
 46 47  1  0  0  0
 48 49  1  0  0  0
M  END
> <Tumorigenic>
none

> <Score>
42.286827

> <Active/Decoy>
active

> <InChI>
InChI=1S/C22H18O10/c23-11-6-18-12(8-17(28)21(31-18)9-1-2-13(24)14(25)3-9)19(7-11)32-22(30)10-4-15(26)20(29)16(27)5-10/h1-7,17,21,23-29H,8H2/t17-,21+/m0/s1

> <Matching Features>
H:14924486185440016873|HBA:149238150533300697|HBA:14924321692640012300|HBA:14924486112070016868

> <Mol. Index>
1284

> <Pharmacophore Match>
Model -1

> <# Confs.>
25

> <Source Database>
Pharm-Screening-input-NANPDB_After_DataWarror.ldb

> <Pharmacophore-Fit Score>
42.29

> <formula>
C22H18O10

> <Mutagenic>
none

> <Reproductive Effective>
none

> <Irritant>
none

$$$$
glochidiobioside
XX    ILIB03122402113D

 71 74  0  0  1  0              1 V2000
   -3.7338   -0.0520   -3.3290 O   0  0  0  0  0
   -5.1618   -0.1103   -3.2571 C   0  0  1  0  0
   -5.6684    0.8164   -2.2946 O   0  0  0  0  0
   -5.1933    0.5883   -0.9718 C   0  0  0  0  0
   -5.7863    1.6233   -0.0473 C   0  0  0  0  0
   -5.3599    1.5056    1.4107 C   0  0  0  0  0
   -3.8797    1.6290    1.6159 C   0  0  0  0  0
   -3.3038    2.8871    1.8702 C   0  0  0  0  0
   -1.9246    3.0266    2.0592 C   0  0  0  0  0
   -1.2608    4.1959    2.2998 O   0  0  0  0  0
   -2.0777    5.3628    2.3474 C   0  0  0  0  0
   -2.5741    5.5365    1.3866 H   0  0  0  0  0
   -2.8074    5.3014    3.1618 H   0  0  0  0  0
   -1.4251    6.2185    2.5470 H   0  0  0  0  0
   -1.1552    1.8751    2.0067 C   0  0  0  0  0
    0.2084    1.8495    2.1670 O   0  0  0  0  0
    0.5174    0.4399    2.3383 C   0  0  2  0  0
    1.8801    0.1576    1.7684 C   0  0  0  0  0
    2.3675    0.9158    0.6891 C   0  0  0  0  0
    3.6310    0.6574    0.1489 C   0  0  0  0  0
    4.1928    1.3360   -0.8939 O   0  0  0  0  0
    3.3950    2.3787   -1.4467 C   0  0  0  0  0
    2.4615    1.9820   -1.8647 H   0  0  0  0  0
    3.1900    3.1570   -0.7028 H   0  0  0  0  0
    3.9608    2.8359   -2.2637 H   0  0  0  0  0
    4.4024   -0.3692    0.7026 C   0  0  0  0  0
    5.6520   -0.6565    0.2221 O   0  0  0  0  0
    5.8551   -0.0237   -0.4908 H   0  0  0  0  0
    3.9274   -1.1372    1.7634 C   0  0  0  0  0
    2.6685   -0.8755    2.2924 C   0  0  0  0  0
    2.3034   -1.4802    3.1189 H   0  0  0  0  0
    4.5353   -1.9362    2.1817 H   0  0  0  0  0
    1.7360    1.7066    0.2919 H   0  0  0  0  0
   -0.6079   -0.3881    1.6741 C   0  0  1  0  0
   -0.8691   -1.6998    2.3929 C   0  0  0  0  0
   -1.9123   -2.4077    1.7324 O   0  0  0  0  0
   -1.6348   -2.5396    0.8096 H   0  0  0  0  0
    0.0173   -2.3418    2.4036 H   0  0  0  0  0
   -1.1903   -1.5251    3.4239 H   0  0  0  0  0
   -1.7024    0.6228    1.7589 C   0  0  0  0  0
   -3.0646    0.4803    1.5598 C   0  0  0  0  0
   -3.4958   -0.4931    1.3519 H   0  0  0  0  0
   -0.4070   -0.5696    0.6094 H   0  0  0  0  0
    0.5387    0.2677    3.4256 H   0  0  0  0  0
   -3.9638    3.7505    1.9131 H   0  0  0  0  0
   -5.8818    2.2432    2.0357 H   0  0  0  0  0
   -5.6819    0.5173    1.8011 H   0  0  0  0  0
   -6.8929    1.5658   -0.0958 H   0  0  0  0  0
   -5.5277    2.6338   -0.4010 H   0  0  0  0  0
   -5.4649   -0.4201   -0.6309 H   0  0  0  0  0
   -4.0977    0.6672   -0.9401 H   0  0  0  0  0
   -5.7648    0.2831   -4.6125 C   0  0  2  0  0
   -7.1764    0.0757   -4.5808 O   0  0  0  0  0
   -7.5256    0.5729   -3.8214 H   0  0  0  0  0
   -5.1824   -0.5566   -5.7469 C   0  0  1  0  0
   -5.5852   -0.0013   -7.0015 O   0  0  0  0  0
   -5.2274    0.9004   -7.0589 H   0  0  0  0  0
   -3.6560   -0.6031   -5.6829 C   0  0  2  0  0
   -3.1786   -1.5712   -6.6140 O   0  0  0  0  0
   -3.5117   -1.3171   -7.4917 H   0  0  0  0  0
   -3.1870   -0.9757   -4.2756 C   0  0  1  0  0
   -1.6739   -0.9121   -4.1524 C   0  0  0  0  0
   -1.2260    0.4101   -4.4327 O   0  0  0  0  0
   -1.6747    1.0072   -3.8115 H   0  0  0  0  0
   -1.3377   -1.1720   -3.1442 H   0  0  0  0  0
   -1.1935   -1.5836   -4.8707 H   0  0  0  0  0
   -3.5121   -1.9894   -4.0072 H   0  0  0  0  0
   -3.2430    0.3700   -5.9750 H   0  0  0  0  0
   -5.5962   -1.5711   -5.7223 H   0  0  0  0  0
   -5.6031    1.3497   -4.8111 H   0  0  0  0  0
   -5.4877   -1.1261   -2.9887 H   0  0  0  0  0
  1  2  1  0  0  0
  1 61  1  0  0  0
  2  3  1  0  0  0
  2 52  1  0  0  0
  2 71  1  0  0  0
  3  4  1  0  0  0
  4  5  1  0  0  0
  4 50  1  0  0  0
  4 51  1  0  0  0
  5  6  1  0  0  0
  5 48  1  0  0  0
  5 49  1  0  0  0
  6  7  1  0  0  0
  6 46  1  0  0  0
  6 47  1  0  0  0
  7  8  2  0  0  0
  7 41  1  0  0  0
  8  9  1  0  0  0
  8 45  1  0  0  0
  9 10  1  0  0  0
  9 15  2  0  0  0
 10 11  1  0  0  0
 11 12  1  0  0  0
 11 13  1  0  0  0
 11 14  1  0  0  0
 15 16  1  0  0  0
 15 40  1  0  0  0
 16 17  1  0  0  0
 17 18  1  0  0  0
 17 34  1  0  0  0
 17 44  1  0  0  0
 18 19  2  0  0  0
 18 30  1  0  0  0
 19 20  1  0  0  0
 19 33  1  0  0  0
 20 21  1  0  0  0
 20 26  2  0  0  0
 21 22  1  0  0  0
 22 23  1  0  0  0
 22 24  1  0  0  0
 22 25  1  0  0  0
 26 27  1  0  0  0
 26 29  1  0  0  0
 27 28  1  0  0  0
 29 30  2  0  0  0
 29 32  1  0  0  0
 30 31  1  0  0  0
 34 35  1  0  0  0
 34 40  1  0  0  0
 34 43  1  0  0  0
 35 36  1  0  0  0
 35 38  1  0  0  0
 35 39  1  0  0  0
 36 37  1  0  0  0
 40 41  2  0  0  0
 41 42  1  0  0  0
 52 53  1  0  0  0
 52 55  1  0  0  0
 52 70  1  0  0  0
 53 54  1  0  0  0
 55 56  1  0  0  0
 55 58  1  0  0  0
 55 69  1  0  0  0
 56 57  1  0  0  0
 58 59  1  0  0  0
 58 61  1  0  0  0
 58 68  1  0  0  0
 59 60  1  0  0  0
 61 62  1  0  0  0
 61 67  1  0  0  0
 62 63  1  0  0  0
 62 65  1  0  0  0
 62 66  1  0  0  0
 63 64  1  0  0  0
M  END
> <Tumorigenic>
none

> <Score>
42.2667

> <Active/Decoy>
active

> <InChI>
InChI=1S/C26H34O11/c1-33-18-10-14(5-6-17(18)29)24-16(11-27)15-8-13(9-19(34-2)25(15)37-24)4-3-7-35-26-23(32)22(31)21(30)20(12-28)36-26/h5-6,8-10,16,20-24,26-32H,3-4,7,11-12H2,1-2H3/t16-,20+,21+,22-,23+,24+,26+/m0/s1

> <Matching Features>
H:14924486185440016873|HBA:149238150533300697|HBA:14924321692640012300|HBA:14924486112070016868

> <Mol. Index>
680

> <Pharmacophore Match>
Model -1

> <# Confs.>
25

> <Source Database>
Pharm-Screening-input-NANPDB_After_DataWarror.ldb

> <Pharmacophore-Fit Score>
42.27

> <formula>
C26H34O11

> <Mutagenic>
none

> <Reproductive Effective>
none

> <Irritant>
none

$$$$
3-O-feruloylquinic acid
XX    ILIB03122402113D

 46 47  0  0  1  0              1 V2000
   -4.0458   -0.2917    2.1449 O   0  0  0  0  0
   -3.2570    0.4279    1.5338 C   0  0  0  0  0
   -3.5724    1.5012    0.7806 O   0  0  0  0  0
   -4.9754    1.8382    0.6881 C   0  0  1  0  0
   -5.0935    3.3581    0.4981 C   0  0  2  0  0
   -6.4645    3.7422    0.6002 O   0  0  0  0  0
   -6.7735    3.4877    1.4859 H   0  0  0  0  0
   -4.5535    3.7867   -0.8691 C   0  0  2  0  0
   -4.7161    5.1937   -1.0325 O   0  0  0  0  0
   -5.6648    5.3917   -0.9582 H   0  0  0  0  0
   -5.2498    3.0605   -2.0213 C   0  0  0  0  0
   -5.2863    1.5349   -1.8641 C   0  0  1  0  0
   -6.3197    1.0380   -2.7329 O   0  0  0  0  0
   -6.1639    1.3995   -3.6223 H   0  0  0  0  0
   -4.0595    0.8309   -2.3692 C   0  0  0  0  0
   -2.9296    1.2962   -2.3105 O   0  0  0  0  0
   -4.3406   -0.3823   -2.9057 O   0  0  0  0  0
   -5.2898   -0.6302   -2.8939 H   0  0  0  0  0
   -5.6621    1.0729   -0.4457 C   0  0  0  0  0
   -6.7485    1.1743   -0.3215 H   0  0  0  0  0
   -5.4529   -0.0000   -0.3462 H   0  0  0  0  0
   -4.7666    3.3385   -2.9675 H   0  0  0  0  0
   -6.2747    3.4429   -2.1245 H   0  0  0  0  0
   -3.4764    3.5994   -0.9086 H   0  0  0  0  0
   -4.5444    3.8958    1.2800 H   0  0  0  0  0
   -5.4674    1.5687    1.6374 H   0  0  0  0  0
   -1.8102    0.1786    1.5416 C   0  0  0  0  0
   -1.0021    0.4789    0.5077 C   0  0  0  0  0
    0.4451    0.2396    0.4944 C   0  0  0  0  0
    1.2796    0.9384   -0.3953 C   0  0  0  0  0
    2.6656    0.7276   -0.4122 C   0  0  0  0  0
    3.3725    1.4457   -1.3328 O   0  0  0  0  0
    3.4655    0.8552   -2.6271 C   0  0  0  0  0
    3.9886   -0.1061   -2.5866 H   0  0  0  0  0
    2.4750    0.7446   -3.0825 H   0  0  0  0  0
    4.0513    1.5288   -3.2604 H   0  0  0  0  0
    3.2262   -0.2289    0.4327 C   0  0  0  0  0
    4.5638   -0.5041    0.3687 O   0  0  0  0  0
    4.7737   -1.1998    1.0153 H   0  0  0  0  0
    2.4196   -0.9340    1.3220 C   0  0  0  0  0
    1.0418   -0.6976    1.3545 C   0  0  0  0  0
    0.4456   -1.2751    2.0576 H   0  0  0  0  0
    2.8448   -1.6802    1.9883 H   0  0  0  0  0
    0.8616    1.6729   -1.0819 H   0  0  0  0  0
   -1.4028    0.9392   -0.3920 H   0  0  0  0  0
   -1.4303   -0.2841    2.4418 H   0  0  0  0  0
  1  2  2  0  0  0
  2  3  1  0  0  0
  2 27  1  0  0  0
  3  4  1  0  0  0
  4  5  1  0  0  0
  4 19  1  0  0  0
  4 26  1  0  0  0
  5  6  1  0  0  0
  5  8  1  0  0  0
  5 25  1  0  0  0
  6  7  1  0  0  0
  8  9  1  0  0  0
  8 11  1  0  0  0
  8 24  1  0  0  0
  9 10  1  0  0  0
 11 12  1  0  0  0
 11 22  1  0  0  0
 11 23  1  0  0  0
 12 13  1  0  0  0
 12 15  1  0  0  0
 12 19  1  0  0  0
 13 14  1  0  0  0
 15 16  2  0  0  0
 15 17  1  0  0  0
 17 18  1  0  0  0
 19 20  1  0  0  0
 19 21  1  0  0  0
 27 28  2  0  0  0
 27 46  1  0  0  0
 28 29  1  0  0  0
 28 45  1  0  0  0
 29 30  2  0  0  0
 29 41  1  0  0  0
 30 31  1  0  0  0
 30 44  1  0  0  0
 31 32  1  0  0  0
 31 37  2  0  0  0
 32 33  1  0  0  0
 33 34  1  0  0  0
 33 35  1  0  0  0
 33 36  1  0  0  0
 37 38  1  0  0  0
 37 40  1  0  0  0
 38 39  1  0  0  0
 40 41  2  0  0  0
 40 43  1  0  0  0
 41 42  1  0  0  0
M  END
> <Tumorigenic>
none

> <Score>
42.18413

> <Active/Decoy>
active

> <InChI>
InChI=1S/C17H20O9/c1-25-12-6-9(2-4-10(12)18)3-5-14(20)26-13-8-17(24,16(22)23)7-11(19)15(13)21/h2-6,11,13,15,18-19,21,24H,7-8H2,1H3,(H,22,23)/b5-3+/t11-,13-,15-,17+/m1/s1

> <Matching Features>
H:14924486185440016873|HBA:149238150533300697|HBA:14924321692640012300|HBA:14924486112070016868

> <Mol. Index>
1089

> <Pharmacophore Match>
Model -1

> <# Confs.>
25

> <Source Database>
Pharm-Screening-input-NANPDB_After_DataWarror.ldb

> <Pharmacophore-Fit Score>
42.18

> <formula>
C17H20O9

> <Mutagenic>
none

> <Reproductive Effective>
none

> <Irritant>
none

$$$$
naringenin 5-O-glucoside
XX    ILIB03122402113D

 53 56  0  0  1  0              1 V2000
   -2.1490   -1.7415   -0.3646 O   0  0  0  0  0
   -1.6495   -1.3689    0.6901 C   0  0  0  0  0
   -1.9785   -0.0574    1.3105 C   0  0  0  0  0
   -1.3295    0.2775    2.5078 C   0  0  0  0  0
   -0.3727   -0.4979    3.1120 O   0  0  0  0  0
    0.3071   -1.4106    2.2357 C   0  0  2  0  0
    1.3659   -0.7086    1.4314 C   0  0  0  0  0
    2.0230    0.4134    1.9603 C   0  0  0  0  0
    3.0078    1.0740    1.2242 C   0  0  0  0  0
    3.3399    0.6165   -0.0461 C   0  0  0  0  0
    4.3096    1.2832   -0.7428 O   0  0  0  0  0
    4.4281    0.8460   -1.6027 H   0  0  0  0  0
    2.6998   -0.4909   -0.5928 C   0  0  0  0  0
    1.7155   -1.1499    0.1454 C   0  0  0  0  0
    1.2200   -2.0135   -0.2915 H   0  0  0  0  0
    2.9552   -0.8501   -1.5854 H   0  0  0  0  0
    3.5065    1.9397    1.6505 H   0  0  0  0  0
    1.7718    0.7801    2.9522 H   0  0  0  0  0
   -0.7080   -2.2528    1.4658 C   0  0  0  0  0
   -1.3241   -2.8361    2.1608 H   0  0  0  0  0
   -0.2126   -2.9466    0.7790 H   0  0  0  0  0
    0.8478   -2.1037    2.8933 H   0  0  0  0  0
   -1.6590    1.4536    3.1814 C   0  0  0  0  0
   -2.6084    2.3098    2.6376 C   0  0  0  0  0
   -2.8959    3.4651    3.3112 O   0  0  0  0  0
   -3.5707    3.9551    2.8113 H   0  0  0  0  0
   -3.2529    1.9999    1.4398 C   0  0  0  0  0
   -2.9495    0.8171    0.7544 C   0  0  0  0  0
   -3.5337    0.4302   -0.4083 O   0  0  0  0  0
   -4.5082    1.3413   -0.9422 C   0  0  0  0  0
   -5.1068    0.7861   -2.2270 C   0  0  1  0  0
   -4.0109    0.6410   -3.1609 O   0  0  0  0  0
   -4.4234    0.1757   -4.4475 C   0  0  2  0  0
   -5.3181    1.0830   -5.0881 O   0  0  0  0  0
   -4.7752    1.7611   -5.5236 H   0  0  0  0  0
   -5.0728   -1.2022   -4.3211 C   0  0  2  0  0
   -5.5106   -1.6557   -5.5963 O   0  0  0  0  0
   -6.1368   -0.9986   -5.9467 H   0  0  0  0  0
   -6.2435   -1.1744   -3.3386 C   0  0  1  0  0
   -6.6990   -2.5077   -3.1064 O   0  0  0  0  0
   -5.9629   -3.0149   -2.7234 H   0  0  0  0  0
   -5.8096   -0.5470   -2.0125 C   0  0  2  0  0
   -6.9534   -0.3617   -1.1822 O   0  0  0  0  0
   -7.5454    0.2680   -1.6267 H   0  0  0  0  0
   -5.1437   -1.2435   -1.4872 H   0  0  0  0  0
   -7.0979   -0.6351   -3.7652 H   0  0  0  0  0
   -4.3271   -1.9234   -3.9631 H   0  0  0  0  0
   -3.5349    0.0951   -5.0843 H   0  0  0  0  0
   -5.7931    1.5424   -2.6311 H   0  0  0  0  0
   -5.3085    1.5253   -0.2033 H   0  0  0  0  0
   -3.9987    2.2824   -1.1248 H   0  0  0  0  0
   -3.9893    2.6986    1.0537 H   0  0  0  0  0
   -1.1635    1.7079    4.1150 H   0  0  0  0  0
  1  2  2  0  0  0
  2  3  1  0  0  0
  2 19  1  0  0  0
  3  4  2  0  0  0
  3 28  1  0  0  0
  4  5  1  0  0  0
  4 23  1  0  0  0
  5  6  1  0  0  0
  6  7  1  0  0  0
  6 19  1  0  0  0
  6 22  1  0  0  0
  7  8  2  0  0  0
  7 14  1  0  0  0
  8  9  1  0  0  0
  8 18  1  0  0  0
  9 10  2  0  0  0
  9 17  1  0  0  0
 10 11  1  0  0  0
 10 13  1  0  0  0
 11 12  1  0  0  0
 13 14  2  0  0  0
 13 16  1  0  0  0
 14 15  1  0  0  0
 19 20  1  0  0  0
 19 21  1  0  0  0
 23 24  2  0  0  0
 23 53  1  0  0  0
 24 25  1  0  0  0
 24 27  1  0  0  0
 25 26  1  0  0  0
 27 28  2  0  0  0
 27 52  1  0  0  0
 28 29  1  0  0  0
 29 30  1  0  0  0
 30 31  1  0  0  0
 30 50  1  0  0  0
 30 51  1  0  0  0
 31 32  1  0  0  0
 31 42  1  0  0  0
 31 49  1  0  0  0
 32 33  1  0  0  0
 33 34  1  0  0  0
 33 36  1  0  0  0
 33 48  1  0  0  0
 34 35  1  0  0  0
 36 37  1  0  0  0
 36 39  1  0  0  0
 36 47  1  0  0  0
 37 38  1  0  0  0
 39 40  1  0  0  0
 39 42  1  0  0  0
 39 46  1  0  0  0
 40 41  1  0  0  0
 42 43  1  0  0  0
 42 45  1  0  0  0
 43 44  1  0  0  0
M  END
> <Tumorigenic>
none

> <Score>
42.067196

> <Active/Decoy>
active

> <InChI>
InChI=1S/C21H22O10/c22-10-3-1-9(2-4-10)13-7-12(24)17-14(5-11(23)6-15(17)30-13)29-8-16-18(25)19(26)20(27)21(28)31-16/h1-6,13,16,18-23,25-28H,7-8H2/t13-,16+,18+,19-,20+,21-/m0/s1

> <Matching Features>
H:14924486185440016873|HBA:149238150533300697|HBA:14924321692640012300|HBA:14924486112070016868

> <Mol. Index>
1058

> <Pharmacophore Match>
Model -1

> <# Confs.>
25

> <Source Database>
Pharm-Screening-input-NANPDB_After_DataWarror.ldb

> <Pharmacophore-Fit Score>
42.07

> <formula>
C21H22O10

> <Mutagenic>
none

> <Reproductive Effective>
none

> <Irritant>
none

$$$$
euphoscopin B
XX    ILIB03122402113D

 84 86  0  0  1  0              1 V2000
   -2.3639    3.5846   -4.5287 O   0  0  0  0  0
   -1.7747    2.5450   -4.8382 C   0  0  0  0  0
   -0.5131    2.5841   -5.7321 C   0  0  0  0  0
    0.7403    2.7345   -4.8913 C   0  0  0  0  0
    0.8425    3.3311   -3.6911 C   0  0  0  0  0
    2.1559    3.5546   -2.9920 C   0  0  2  0  0
    2.1871    3.1205   -1.4955 C   0  0  2  0  0
    3.4949    3.4782   -1.0241 O   0  0  0  0  0
    3.5533    4.4582   -0.0945 C   0  0  0  0  0
    2.6025    5.0653    0.3798 O   0  0  0  0  0
    4.9809    4.6953    0.2932 C   0  0  0  0  0
    5.3794    3.8089    0.7916 H   0  0  0  0  0
    5.0325    5.5421    0.9854 H   0  0  0  0  0
    5.5711    4.9413   -0.5920 H   0  0  0  0  0
    1.9747    1.6027   -1.1572 C   0  0  2  0  0
    2.4111    0.7482   -2.2250 O   0  0  0  0  0
    3.7140    0.8347   -2.5721 C   0  0  0  0  0
    4.5514    1.5677   -2.0657 O   0  0  0  0  0
    4.0011   -0.1269   -3.6848 C   0  0  0  0  0
    3.8704   -1.1518   -3.3285 H   0  0  0  0  0
    5.0341    0.0006   -4.0187 H   0  0  0  0  0
    3.3404    0.0756   -4.5314 H   0  0  0  0  0
    0.5001    1.2121   -0.7742 C   0  0  2  0  0
    0.6416   -0.1738   -0.0643 C   0  0  1  0  0
    0.5806   -1.2256   -1.0280 O   0  0  0  0  0
    0.0816   -2.4039   -0.5859 C   0  0  0  0  0
   -0.3312   -2.6521    0.5360 O   0  0  0  0  0
    0.0875   -3.3919   -1.6820 C   0  0  0  0  0
   -0.3977   -4.6777   -1.4444 C   0  0  0  0  0
   -0.4032   -5.6025   -2.4859 C   0  0  0  0  0
    0.0704   -5.2401   -3.7485 C   0  0  0  0  0
    0.5509   -3.9489   -3.9741 C   0  0  0  0  0
    0.5594   -3.0140   -2.9384 C   0  0  0  0  0
    0.9317   -2.0112   -3.1211 H   0  0  0  0  0
    0.9177   -3.6708   -4.9574 H   0  0  0  0  0
    0.0647   -5.9638   -4.5574 H   0  0  0  0  0
   -0.7781   -6.6092   -2.3177 H   0  0  0  0  0
   -0.7678   -4.9655   -0.4648 H   0  0  0  0  0
    2.0522   -0.1539    0.5669 C   0  0  1  0  0
    2.6634    1.1979    0.1789 C   0  0  0  0  0
    3.7513    1.1075    0.0994 H   0  0  0  0  0
    2.4471    1.9431    0.9557 H   0  0  0  0  0
    2.0131   -0.3445    2.0777 C   0  0  0  0  0
    1.5905   -1.3223    2.3316 H   0  0  0  0  0
    3.0217   -0.2930    2.5000 H   0  0  0  0  0
    1.4020    0.4228    2.5630 H   0  0  0  0  0
    2.6681   -0.9556    0.1389 H   0  0  0  0  0
   -0.1541   -0.2847    0.6734 H   0  0  0  0  0
   -0.5345    1.1531   -1.8600 C   0  0  0  0  0
   -1.8487    1.4403   -1.7522 C   0  0  0  0  0
   -2.8456    1.2816   -2.8995 C   0  0  2  0  0
   -3.5757    0.0713   -2.6467 O   0  0  0  0  0
   -4.8466    0.0277   -3.1033 C   0  0  0  0  0
   -5.4321    0.9164   -3.7076 O   0  0  0  0  0
   -5.4540   -1.3005   -2.7684 C   0  0  0  0  0
   -4.9305   -2.0919   -3.3106 H   0  0  0  0  0
   -6.5062   -1.3055   -3.0664 H   0  0  0  0  0
   -5.4022   -1.4718   -1.6902 H   0  0  0  0  0
   -2.2801    1.2012   -4.3283 C   0  0  0  0  0
   -1.5102    0.4303   -4.3838 H   0  0  0  0  0
   -3.0641    0.8804   -5.0265 H   0  0  0  0  0
   -3.5401    2.1332   -2.8501 H   0  0  0  0  0
   -2.4950    1.9063   -0.4698 C   0  0  0  0  0
   -3.3550    1.2726   -0.2255 H   0  0  0  0  0
   -2.8499    2.9361   -0.5840 H   0  0  0  0  0
   -1.8338    1.8762    0.3975 H   0  0  0  0  0
   -0.1626    0.7616   -2.8011 H   0  0  0  0  0
    0.1981    1.9429   -0.0164 H   0  0  0  0  0
    1.4423    3.7074   -0.9383 H   0  0  0  0  0
    2.4889    5.0520   -3.1405 C   0  0  0  0  0
    2.4095    5.3745   -4.1858 H   0  0  0  0  0
    3.5154    5.2661   -2.8223 H   0  0  0  0  0
    1.8104    5.6725   -2.5444 H   0  0  0  0  0
    2.9545    3.0240   -3.5250 H   0  0  0  0  0
   -0.0353    3.7571   -3.2141 H   0  0  0  0  0
    1.6598    2.3794   -5.3555 H   0  0  0  0  0
   -0.4093    1.3263   -6.6131 C   0  0  0  0  0
   -0.1275    0.4394   -6.0351 H   0  0  0  0  0
    0.3533    1.4465   -7.3921 H   0  0  0  0  0
   -1.3611    1.1125   -7.1120 H   0  0  0  0  0
   -0.6138    3.8021   -6.6717 C   0  0  0  0  0
   -0.6599    4.7451   -6.1136 H   0  0  0  0  0
   -1.5183    3.7468   -7.2889 H   0  0  0  0  0
    0.2489    3.8647   -7.3458 H   0  0  0  0  0
  1  2  2  0  0  0
  2  3  1  0  0  0
  2 59  1  0  0  0
  3  4  1  0  0  0
  3 77  1  0  0  0
  3 81  1  0  0  0
  4  5  2  0  0  0
  4 76  1  0  0  0
  5  6  1  0  0  0
  5 75  1  0  0  0
  6  7  1  0  0  0
  6 70  1  0  0  0
  6 74  1  0  0  0
  7  8  1  0  0  0
  7 15  1  0  0  0
  7 69  1  0  0  0
  8  9  1  0  0  0
  9 10  2  0  0  0
  9 11  1  0  0  0
 11 12  1  0  0  0
 11 13  1  0  0  0
 11 14  1  0  0  0
 15 16  1  0  0  0
 15 23  1  0  0  0
 15 40  1  0  0  0
 16 17  1  0  0  0
 17 18  2  0  0  0
 17 19  1  0  0  0
 19 20  1  0  0  0
 19 21  1  0  0  0
 19 22  1  0  0  0
 23 24  1  0  0  0
 23 49  1  0  0  0
 23 68  1  0  0  0
 24 25  1  0  0  0
 24 39  1  0  0  0
 24 48  1  0  0  0
 25 26  1  0  0  0
 26 27  2  0  0  0
 26 28  1  0  0  0
 28 29  2  0  0  0
 28 33  1  0  0  0
 29 30  1  0  0  0
 29 38  1  0  0  0
 30 31  2  0  0  0
 30 37  1  0  0  0
 31 32  1  0  0  0
 31 36  1  0  0  0
 32 33  2  0  0  0
 32 35  1  0  0  0
 33 34  1  0  0  0
 39 40  1  0  0  0
 39 43  1  0  0  0
 39 47  1  0  0  0
 40 41  1  0  0  0
 40 42  1  0  0  0
 43 44  1  0  0  0
 43 45  1  0  0  0
 43 46  1  0  0  0
 49 50  2  0  0  0
 49 67  1  0  0  0
 50 51  1  0  0  0
 50 63  1  0  0  0
 51 52  1  0  0  0
 51 59  1  0  0  0
 51 62  1  0  0  0
 52 53  1  0  0  0
 53 54  2  0  0  0
 53 55  1  0  0  0
 55 56  1  0  0  0
 55 57  1  0  0  0
 55 58  1  0  0  0
 59 60  1  0  0  0
 59 61  1  0  0  0
 63 64  1  0  0  0
 63 65  1  0  0  0
 63 66  1  0  0  0
 70 71  1  0  0  0
 70 72  1  0  0  0
 70 73  1  0  0  0
 77 78  1  0  0  0
 77 79  1  0  0  0
 77 80  1  0  0  0
 81 82  1  0  0  0
 81 83  1  0  0  0
 81 84  1  0  0  0
M  END
> <Tumorigenic>
none

> <Score>
37.29798

> <Active/Decoy>
active

> <InChI>
InChI=1S/C33H42O9/c1-19-14-15-32(7,8)28(37)17-27(39-22(4)34)20(2)16-26-29(41-31(38)25-12-10-9-11-13-25)21(3)18-33(26,42-24(6)36)30(19)40-23(5)35/h9-16,19,21,26-27,29-30H,17-18H2,1-8H3/b15-14-,20-16?/t19-,21-,26+,27-,29+,30+,33-/m1/s1

> <Matching Features>
H:14924486185440016873||HBA:14924321692640012300|HBA:14924486112070016868

> <Mol. Index>
475

> <Pharmacophore Match>
Model -1

> <# Confs.>
25

> <Source Database>
Pharm-Screening-input-NANPDB_After_DataWarror.ldb

> <Pharmacophore-Fit Score>
37.3

> <formula>
C33H42O9

> <Mutagenic>
none

> <Reproductive Effective>
none

> <Irritant>
none

$$$$
4beta,8alpha-dihydroxy-6alpha-vanilloyloxydauc-9-ene
XX    ILIB03122402113D

 59 62  0  0  1  0              1 V2000
    4.6047    1.5515   -2.0056 O   0  0  0  0  0
    4.2371    1.0866   -0.9335 C   0  0  0  0  0
    2.8976    0.8185   -0.6651 O   0  0  0  0  0
    2.4814    0.2898    0.5740 C   0  0  0  0  0
    3.4104    0.0185    1.5732 C   0  0  0  0  0
    2.9590   -0.5020    2.7848 C   0  0  0  0  0
    1.5953   -0.7415    2.9783 C   0  0  0  0  0
    0.6678   -0.4648    1.9657 C   0  0  0  0  0
    1.1158    0.0558    0.7496 C   0  0  0  0  0
    0.4362    0.2850   -0.0649 H   0  0  0  0  0
   -0.6357   -0.7276    2.2762 O   0  0  0  0  0
   -1.4653   -1.1175    1.1896 C   0  0  0  0  0
   -2.6298   -0.1253    1.0947 C   0  0  1  0  0
   -3.6933   -0.3668   -0.0605 C   0  0  1  0  0
   -4.6788    0.8940   -0.1515 C   0  0  1  0  0
   -5.7548    0.6443   -1.2684 C   0  0  2  0  0
   -5.0523    0.3849   -2.6079 C   0  0  0  0  0
   -5.4358    0.8981   -3.6610 O   0  0  0  0  0
   -3.9236   -0.6245   -2.6278 C   0  0  0  0  0
   -2.9706   -0.5002   -1.4412 C   0  0  0  0  0
   -2.3211   -1.3838   -1.4457 H   0  0  0  0  0
   -2.3051    0.3566   -1.6042 H   0  0  0  0  0
   -4.3698   -1.6240   -2.6747 H   0  0  0  0  0
   -3.3540   -0.4870   -3.5544 H   0  0  0  0  0
   -6.8004    1.7560   -1.4332 C   0  0  0  0  0
   -7.5370    1.4741   -2.1939 H   0  0  0  0  0
   -7.3548    1.9317   -0.5083 H   0  0  0  0  0
   -6.3551    2.6995   -1.7612 H   0  0  0  0  0
   -6.3307   -0.2583   -1.0375 H   0  0  0  0  0
   -5.3438    1.0887    1.2374 C   0  0  0  0  0
   -4.3325    1.3216    2.3656 C   0  0  1  0  0
   -5.0327    1.4687    3.6001 O   0  0  0  0  0
   -5.6637    2.1995    3.4952 H   0  0  0  0  0
   -3.2454    0.2305    2.4827 C   0  0  1  0  0
   -3.6859   -0.9445    3.3679 C   0  0  0  0  0
   -4.5900   -1.4363    3.0122 H   0  0  0  0  0
   -2.8975   -1.6917    3.4785 H   0  0  0  0  0
   -3.9002   -0.5942    4.3843 H   0  0  0  0  0
   -2.4312    0.6924    3.0632 H   0  0  0  0  0
   -3.8280    2.2803    2.1997 H   0  0  0  0  0
   -5.9922    0.2413    1.4879 H   0  0  0  0  0
   -6.0189    1.9519    1.2202 H   0  0  0  0  0
   -3.9393    2.2263   -0.5066 C   0  0  0  0  0
   -3.0805    2.4343    0.1333 H   0  0  0  0  0
   -4.6087    3.0866   -0.3965 H   0  0  0  0  0
   -3.5713    2.2409   -1.5367 H   0  0  0  0  0
   -4.4647   -1.6904    0.1625 C   0  0  0  0  0
   -5.0523   -1.6888    1.0769 H   0  0  0  0  0
   -5.1719   -1.9177   -0.6388 H   0  0  0  0  0
   -3.7985   -2.5547    0.1895 H   0  0  0  0  0
   -2.0897    0.7954    0.8036 H   0  0  0  0  0
   -0.9139   -1.1373    0.2476 H   0  0  0  0  0
   -1.8886   -2.1243    1.3535 H   0  0  0  0  0
    1.2603   -1.1484    3.9294 H   0  0  0  0  0
    3.6549   -0.7259    3.5900 H   0  0  0  0  0
    4.8158    0.2840    1.3179 C   0  0  0  0  0
    5.2010    0.7828    0.1409 C   0  0  0  0  0
    6.2482    0.9817   -0.0603 H   0  0  0  0  0
    5.5422    0.0705    2.0932 H   0  0  0  0  0
  1  2  2  0  0  0
  2  3  1  0  0  0
  2 57  1  0  0  0
  3  4  1  0  0  0
  4  5  2  0  0  0
  4  9  1  0  0  0
  5  6  1  0  0  0
  5 56  1  0  0  0
  6  7  2  0  0  0
  6 55  1  0  0  0
  7  8  1  0  0  0
  7 54  1  0  0  0
  8  9  2  0  0  0
  8 11  1  0  0  0
  9 10  1  0  0  0
 11 12  1  0  0  0
 12 13  1  0  0  0
 12 52  1  0  0  0
 12 53  1  0  0  0
 13 14  1  0  0  0
 13 34  1  0  0  0
 13 51  1  0  0  0
 14 15  1  0  0  0
 14 20  1  0  0  0
 14 47  1  0  0  0
 15 16  1  0  0  0
 15 30  1  0  0  0
 15 43  1  0  0  0
 16 17  1  0  0  0
 16 25  1  0  0  0
 16 29  1  0  0  0
 17 18  2  0  0  0
 17 19  1  0  0  0
 19 20  1  0  0  0
 19 23  1  0  0  0
 19 24  1  0  0  0
 20 21  1  0  0  0
 20 22  1  0  0  0
 25 26  1  0  0  0
 25 27  1  0  0  0
 25 28  1  0  0  0
 30 31  1  0  0  0
 30 41  1  0  0  0
 30 42  1  0  0  0
 31 32  1  0  0  0
 31 34  1  0  0  0
 31 40  1  0  0  0
 32 33  1  0  0  0
 34 35  1  0  0  0
 34 39  1  0  0  0
 35 36  1  0  0  0
 35 37  1  0  0  0
 35 38  1  0  0  0
 43 44  1  0  0  0
 43 45  1  0  0  0
 43 46  1  0  0  0
 47 48  1  0  0  0
 47 49  1  0  0  0
 47 50  1  0  0  0
 56 57  2  0  0  0
 56 59  1  0  0  0
 57 58  1  0  0  0
M  END
> <Tumorigenic>
none

> <Score>
37.26007

> <Active/Decoy>
active

> <InChI>
InChI=1S/C24H30O5/c1-14-18(13-28-17-7-5-16-6-8-22(27)29-21(16)11-17)23(3)10-9-19(25)15(2)24(23,4)12-20(14)26/h5-8,11,14-15,18,20,26H,9-10,12-13H2,1-4H3/t14-,15-,18+,20+,23-,24+/m0/s1

> <Matching Features>
H:14924486185440016873||HBA:14924321692640012300|HBA:14924486112070016868

> <Mol. Index>
971

> <Pharmacophore Match>
Model -1

> <# Confs.>
25

> <Source Database>
Pharm-Screening-input-NANPDB_After_DataWarror.ldb

> <Pharmacophore-Fit Score>
37.26

> <formula>
C24H30O5

> <Mutagenic>
none

> <Reproductive Effective>
none

> <Irritant>
none

$$$$
sipholenone E
XX    ILIB03122402113D

 87 90  0  0  1  0              1 V2000
   -3.3602   -2.0938   -4.3321 O   0  0  0  0  0
   -4.4845   -1.2207   -4.3503 C   0  0  0  0  0
   -4.4156   -0.0148   -3.3901 C   0  0  2  0  0
   -5.4141    0.9407   -3.7651 O   0  0  0  0  0
   -5.4192    1.6420   -3.0919 H   0  0  0  0  0
   -3.0600    0.6829   -3.3424 C   0  0  0  0  0
   -2.0738   -0.0010   -2.3958 C   0  0  0  0  0
   -1.5067   -1.3818   -2.8125 C   0  0  2  0  0
   -2.6107   -2.4248   -3.1728 C   0  0  1  0  0
   -3.4192   -2.9261   -1.9806 C   0  0  0  0  0
   -2.5075   -3.5607   -0.9371 C   0  0  0  0  0
   -1.3993   -2.6084   -0.4553 C   0  0  2  0  0
   -2.0143   -1.5610    0.2949 O   0  0  0  0  0
   -2.5052   -1.9602    1.0325 H   0  0  0  0  0
   -0.5934   -2.0248   -1.6611 C   0  0  2  0  0
    0.5831   -1.1444   -1.2442 C   0  0  0  0  0
    0.2753    0.0834   -0.4015 C   0  0  0  0  0
    1.4725    0.8908   -0.0174 C   0  0  0  0  0
    2.2460    1.4197   -0.9974 C   0  0  0  0  0
    3.6564    1.9702   -0.8792 C   0  0  2  0  0
    4.3999    1.5349   -2.0309 O   0  0  0  0  0
    5.2128    2.0661   -2.0711 H   0  0  0  0  0
    4.4766    1.5135    0.3215 C   0  0  0  0  0
    4.1029    2.2834    1.5663 C   0  0  2  0  0
    4.9312    1.9731    2.8253 C   0  0  2  0  0
    4.9118    0.5858    3.1418 O   0  0  0  0  0
    5.4228    0.1140    2.4631 H   0  0  0  0  0
    4.1488    2.7314    3.8915 C   0  0  0  0  0
    2.6915    2.4464    3.5387 C   0  0  0  0  0
    2.6215    2.2246    1.9970 C   0  0  2  0  0
    1.6868    1.0296    1.5417 C   0  0  0  0  0
    2.1465   -0.3353    2.1010 C   0  0  0  0  0
    2.2960   -0.3136    3.1830 H   0  0  0  0  0
    1.4037   -1.1198    1.9188 H   0  0  0  0  0
    3.0754   -0.6806    1.6438 H   0  0  0  0  0
    0.2930    1.3605    2.1816 C   0  0  0  0  0
   -0.4332    0.5489    2.0831 H   0  0  0  0  0
    0.3551    1.5376    3.2582 H   0  0  0  0  0
   -0.1430    2.2556    1.7236 H   0  0  0  0  0
    2.1559    3.1306    1.5769 H   0  0  0  0  0
    2.3669    1.5706    4.1055 H   0  0  0  0  0
    2.0511    3.2800    3.8482 H   0  0  0  0  0
    4.3781    2.3915    4.9074 H   0  0  0  0  0
    4.3390    3.8103    3.8350 H   0  0  0  0  0
    6.3832    2.4332    2.7507 C   0  0  0  0  0
    6.4640    3.4955    2.4982 H   0  0  0  0  0
    6.8885    2.2677    3.7087 H   0  0  0  0  0
    6.9436    1.8579    2.0051 H   0  0  0  0  0
    4.2998    3.3441    1.3344 H   0  0  0  0  0
    4.4014    0.4303    0.4486 H   0  0  0  0  0
    5.5396    1.6882    0.1103 H   0  0  0  0  0
    3.6106    3.0650   -0.9313 H   0  0  0  0  0
    1.7283    1.5449   -2.4271 C   0  0  0  0  0
    2.0121    2.5184   -2.8439 H   0  0  0  0  0
    0.6381    1.5090   -2.4987 H   0  0  0  0  0
    2.1511    0.7618   -3.0646 H   0  0  0  0  0
   -0.4275    0.7059   -0.9660 H   0  0  0  0  0
   -0.2717   -0.2223    0.5110 H   0  0  0  0  0
    1.1436   -0.8351   -2.1372 H   0  0  0  0  0
    1.2835   -1.7903   -0.6724 H   0  0  0  0  0
   -0.1258   -2.8969   -2.1452 H   0  0  0  0  0
   -0.4866   -3.3751    0.5157 C   0  0  0  0  0
    0.0942   -4.1463   -0.0004 H   0  0  0  0  0
    0.2014   -2.7029    1.0381 H   0  0  0  0  0
   -1.0770   -3.8611    1.3011 H   0  0  0  0  0
   -3.1298   -3.8765   -0.0908 H   0  0  0  0  0
   -2.0590   -4.4696   -1.3597 H   0  0  0  0  0
   -4.1454   -3.6797   -2.3103 H   0  0  0  0  0
   -3.9973   -2.1245   -1.5161 H   0  0  0  0  0
   -2.0568   -3.3116   -3.5165 H   0  0  0  0  0
   -0.6384   -1.1668   -4.0862 C   0  0  0  0  0
   -0.0913   -2.0795   -4.3472 H   0  0  0  0  0
    0.0937   -0.3654   -3.9516 H   0  0  0  0  0
   -1.2431   -0.8947   -4.9570 H   0  0  0  0  0
   -1.2387    0.6986   -2.2734 H   0  0  0  0  0
   -2.5559   -0.0616   -1.4171 H   0  0  0  0  0
   -2.6351    0.8097   -4.3424 H   0  0  0  0  0
   -3.2056    1.7071   -2.9722 H   0  0  0  0  0
   -4.6850   -0.3275   -2.3772 H   0  0  0  0  0
   -5.7665   -2.0331   -4.0924 C   0  0  0  0  0
   -5.8528   -2.3348   -3.0455 H   0  0  0  0  0
   -5.7721   -2.9542   -4.6855 H   0  0  0  0  0
   -6.6666   -1.4584   -4.3381 H   0  0  0  0  0
   -4.5544   -0.7554   -5.8233 C   0  0  0  0  0
   -5.4326   -0.1354   -6.0290 H   0  0  0  0  0
   -4.5888   -1.6191   -6.4985 H   0  0  0  0  0
   -3.6584   -0.1910   -6.1034 H   0  0  0  0  0
  1  2  1  0  0  0
  1  9  1  0  0  0
  2  3  1  0  0  0
  2 80  1  0  0  0
  2 84  1  0  0  0
  3  4  1  0  0  0
  3  6  1  0  0  0
  3 79  1  0  0  0
  4  5  1  0  0  0
  6  7  1  0  0  0
  6 77  1  0  0  0
  6 78  1  0  0  0
  7  8  1  0  0  0
  7 75  1  0  0  0
  7 76  1  0  0  0
  8  9  1  0  0  0
  8 15  1  0  0  0
  8 71  1  0  0  0
  9 10  1  0  0  0
  9 70  1  0  0  0
 10 11  1  0  0  0
 10 68  1  0  0  0
 10 69  1  0  0  0
 11 12  1  0  0  0
 11 66  1  0  0  0
 11 67  1  0  0  0
 12 13  1  0  0  0
 12 15  1  0  0  0
 12 62  1  0  0  0
 13 14  1  0  0  0
 15 16  1  0  0  0
 15 61  1  0  0  0
 16 17  1  0  0  0
 16 59  1  0  0  0
 16 60  1  0  0  0
 17 18  1  0  0  0
 17 57  1  0  0  0
 17 58  1  0  0  0
 18 19  2  0  0  0
 18 31  1  0  0  0
 19 20  1  0  0  0
 19 53  1  0  0  0
 20 21  1  0  0  0
 20 23  1  0  0  0
 20 52  1  0  0  0
 21 22  1  0  0  0
 23 24  1  0  0  0
 23 50  1  0  0  0
 23 51  1  0  0  0
 24 25  1  0  0  0
 24 30  1  0  0  0
 24 49  1  0  0  0
 25 26  1  0  0  0
 25 28  1  0  0  0
 25 45  1  0  0  0
 26 27  1  0  0  0
 28 29  1  0  0  0
 28 43  1  0  0  0
 28 44  1  0  0  0
 29 30  1  0  0  0
 29 41  1  0  0  0
 29 42  1  0  0  0
 30 31  1  0  0  0
 30 40  1  0  0  0
 31 32  1  0  0  0
 31 36  1  0  0  0
 32 33  1  0  0  0
 32 34  1  0  0  0
 32 35  1  0  0  0
 36 37  1  0  0  0
 36 38  1  0  0  0
 36 39  1  0  0  0
 45 46  1  0  0  0
 45 47  1  0  0  0
 45 48  1  0  0  0
 53 54  1  0  0  0
 53 55  1  0  0  0
 53 56  1  0  0  0
 62 63  1  0  0  0
 62 64  1  0  0  0
 62 65  1  0  0  0
 71 72  1  0  0  0
 71 73  1  0  0  0
 71 74  1  0  0  0
 80 81  1  0  0  0
 80 82  1  0  0  0
 80 83  1  0  0  0
 84 85  1  0  0  0
 84 86  1  0  0  0
 84 87  1  0  0  0
M  END
> <Tumorigenic>
none

> <Score>
37.057205

> <Active/Decoy>
active

> <InChI>
InChI=1S/C30H52O5/c1-18-19(26(2,3)20-11-15-29(7,33)21(20)17-22(18)31)9-10-23-28(6)14-12-24(32)27(4,5)35-25(28)13-16-30(23,8)34/h20-25,31-34H,9-17H2,1-8H3/t20-,21-,22+,23+,24+,25+,28-,29+,30-/m0/s1

> <Matching Features>
H:14924486185440016873||HBA:14924321692640012300|HBA:14924486112070016868

> <Mol. Index>
154

> <Pharmacophore Match>
Model -1

> <# Confs.>
25

> <Source Database>
Pharm-Screening-input-NANPDB_After_DataWarror.ldb

> <Pharmacophore-Fit Score>
37.06

> <formula>
C30H52O5

> <Mutagenic>
none

> <Reproductive Effective>
none

> <Irritant>
none

$$$$
euphoheliosnoid C
XX    ILIB03122402113D

 85 87  0  0  1  0              1 V2000
   -2.0658    3.7112   -3.9752 O   0  0  0  0  0
   -1.6861    2.6336   -4.4447 C   0  0  0  0  0
   -0.6337    2.6082   -5.5788 C   0  0  0  0  0
    0.6189    3.4305   -5.1220 C   0  0  1  0  0
    0.3344    4.8243   -5.1316 O   0  0  0  0  0
   -0.4832    4.9719   -4.6276 H   0  0  0  0  0
    1.2069    2.9515   -3.8059 C   0  0  0  0  0
    1.3582    3.5381   -2.5968 C   0  0  0  0  0
    2.0170    2.7357   -1.4670 C   0  0  1  0  0
    3.2826    3.3633   -1.2085 O   0  0  0  0  0
    4.3847    2.6588   -1.5461 C   0  0  0  0  0
    4.4071    1.5430   -2.0496 O   0  0  0  0  0
    5.6091    3.4591   -1.2235 C   0  0  0  0  0
    5.6403    4.3527   -1.8510 H   0  0  0  0  0
    6.5000    2.8570   -1.4229 H   0  0  0  0  0
    5.6083    3.7288   -0.1648 H   0  0  0  0  0
    1.2741    2.5987   -0.0888 C   0  0  1  0  0
    1.0309    3.9326    0.3817 O   0  0  0  0  0
    0.3935    4.0468    1.5671 C   0  0  0  0  0
    0.4446    3.2558    2.4985 O   0  0  0  0  0
   -0.3988    5.3193    1.5897 C   0  0  0  0  0
    0.2789    6.1761    1.5473 H   0  0  0  0  0
   -0.9762    5.3714    2.5150 H   0  0  0  0  0
   -1.0972    5.3380    0.7487 H   0  0  0  0  0
   -0.0617    1.7521   -0.0430 C   0  0  2  0  0
    0.3767    0.3790    0.4990 C   0  0  1  0  0
    1.0495   -0.3819   -0.5044 O   0  0  0  0  0
    0.5004   -1.5702   -0.8289 C   0  0  0  0  0
   -0.5164   -2.0593   -0.3624 O   0  0  0  0  0
    1.3088   -2.2287   -1.8732 C   0  0  0  0  0
    0.9091   -3.4720   -2.3630 C   0  0  0  0  0
    1.6676   -4.0835   -3.3583 C   0  0  0  0  0
    2.8104   -3.4539   -3.8557 C   0  0  0  0  0
    3.1985   -2.2083   -3.3588 C   0  0  0  0  0
    2.4451   -1.5861   -2.3627 C   0  0  0  0  0
    2.7508   -0.6166   -1.9827 H   0  0  0  0  0
    4.0874   -1.7219   -3.7485 H   0  0  0  0  0
    3.3990   -3.9339   -4.6312 H   0  0  0  0  0
    1.3705   -5.0521   -3.7513 H   0  0  0  0  0
    0.0204   -3.9667   -1.9807 H   0  0  0  0  0
    1.3719    0.7901    1.6061 C   0  0  2  0  0
    2.2287    1.8585    0.9151 C   0  0  0  0  0
    2.6911    2.5298    1.6461 H   0  0  0  0  0
    3.0436    1.3572    0.3785 H   0  0  0  0  0
    2.2004   -0.3552    2.1684 C   0  0  0  0  0
    2.8164   -0.8342    1.4007 H   0  0  0  0  0
    2.8711    0.0081    2.9534 H   0  0  0  0  0
    1.5508   -1.1194    2.6065 H   0  0  0  0  0
    0.8198    1.2565    2.4326 H   0  0  0  0  0
   -0.4672   -0.1737    0.9360 H   0  0  0  0  0
   -0.9204    1.6124   -1.2676 C   0  0  0  0  0
   -2.2629    1.7436   -1.3577 C   0  0  0  0  0
   -3.0629    1.4717   -2.6361 C   0  0  2  0  0
   -3.7846    0.2492   -2.4229 O   0  0  0  0  0
   -4.9650    0.1254   -3.0686 C   0  0  0  0  0
   -5.4750    0.9518   -3.8144 O   0  0  0  0  0
   -5.5755   -1.2048   -2.7475 C   0  0  0  0  0
   -4.9473   -2.0047   -3.1486 H   0  0  0  0  0
   -6.5660   -1.2713   -3.2061 H   0  0  0  0  0
   -5.6905   -1.3097   -1.6659 H   0  0  0  0  0
   -2.2892    1.3249   -3.9582 C   0  0  0  0  0
   -1.5229    0.5542   -3.8451 H   0  0  0  0  0
   -2.9684    0.9730   -4.7450 H   0  0  0  0  0
   -3.7826    2.2953   -2.7527 H   0  0  0  0  0
   -3.1573    2.1374   -0.2027 C   0  0  0  0  0
   -3.8764    1.3391    0.0080 H   0  0  0  0  0
   -2.6330    2.3424    0.7299 H   0  0  0  0  0
   -3.7161    3.0435   -0.4585 H   0  0  0  0  0
   -0.3803    1.2749   -2.1455 H   0  0  0  0  0
   -0.6691    2.2035    0.7439 H   0  0  0  0  0
    2.2154    1.7121   -1.8161 H   0  0  0  0  0
    1.0071    4.9687   -2.2903 C   0  0  0  0  0
    1.1037    5.6309   -3.1517 H   0  0  0  0  0
    1.6930    5.3909   -1.5484 H   0  0  0  0  0
   -0.0126    5.0365   -1.9002 H   0  0  0  0  0
    1.5696    1.9254   -3.8796 H   0  0  0  0  0
    1.4054    3.3014   -5.8751 H   0  0  0  0  0
   -0.2047    1.1855   -5.9869 C   0  0  0  0  0
    0.2455    0.6300   -5.1609 H   0  0  0  0  0
    0.5306    1.2186   -6.7987 H   0  0  0  0  0
   -1.0579    0.5989   -6.3463 H   0  0  0  0  0
   -1.2976    3.2581   -6.8128 C   0  0  0  0  0
   -0.5886    3.3430   -7.6440 H   0  0  0  0  0
   -1.6829    4.2607   -6.5968 H   0  0  0  0  0
   -2.1514    2.6614   -7.1566 H   0  0  0  0  0
  1  2  2  0  0  0
  2  3  1  0  0  0
  2 61  1  0  0  0
  3  4  1  0  0  0
  3 78  1  0  0  0
  3 82  1  0  0  0
  4  5  1  0  0  0
  4  7  1  0  0  0
  4 77  1  0  0  0
  5  6  1  0  0  0
  7  8  2  0  0  0
  7 76  1  0  0  0
  8  9  1  0  0  0
  8 72  1  0  0  0
  9 10  1  0  0  0
  9 17  1  0  0  0
  9 71  1  0  0  0
 10 11  1  0  0  0
 11 12  2  0  0  0
 11 13  1  0  0  0
 13 14  1  0  0  0
 13 15  1  0  0  0
 13 16  1  0  0  0
 17 18  1  0  0  0
 17 25  1  0  0  0
 17 42  1  0  0  0
 18 19  1  0  0  0
 19 20  2  0  0  0
 19 21  1  0  0  0
 21 22  1  0  0  0
 21 23  1  0  0  0
 21 24  1  0  0  0
 25 26  1  0  0  0
 25 51  1  0  0  0
 25 70  1  0  0  0
 26 27  1  0  0  0
 26 41  1  0  0  0
 26 50  1  0  0  0
 27 28  1  0  0  0
 28 29  2  0  0  0
 28 30  1  0  0  0
 30 31  2  0  0  0
 30 35  1  0  0  0
 31 32  1  0  0  0
 31 40  1  0  0  0
 32 33  2  0  0  0
 32 39  1  0  0  0
 33 34  1  0  0  0
 33 38  1  0  0  0
 34 35  2  0  0  0
 34 37  1  0  0  0
 35 36  1  0  0  0
 41 42  1  0  0  0
 41 45  1  0  0  0
 41 49  1  0  0  0
 42 43  1  0  0  0
 42 44  1  0  0  0
 45 46  1  0  0  0
 45 47  1  0  0  0
 45 48  1  0  0  0
 51 52  2  0  0  0
 51 69  1  0  0  0
 52 53  1  0  0  0
 52 65  1  0  0  0
 53 54  1  0  0  0
 53 61  1  0  0  0
 53 64  1  0  0  0
 54 55  1  0  0  0
 55 56  2  0  0  0
 55 57  1  0  0  0
 57 58  1  0  0  0
 57 59  1  0  0  0
 57 60  1  0  0  0
 61 62  1  0  0  0
 61 63  1  0  0  0
 65 66  1  0  0  0
 65 67  1  0  0  0
 65 68  1  0  0  0
 72 73  1  0  0  0
 72 74  1  0  0  0
 72 75  1  0  0  0
 78 79  1  0  0  0
 78 80  1  0  0  0
 78 81  1  0  0  0
 82 83  1  0  0  0
 82 84  1  0  0  0
 82 85  1  0  0  0
M  END
> <Tumorigenic>
none

> <Score>
37.042458

> <Active/Decoy>
active

> <InChI>
InChI=1S/C33H42O10/c1-18-14-25-29(42-31(39)24-12-10-9-11-13-24)20(3)17-33(25,43-23(6)36)30(41-22(5)35)19(2)15-27(37)32(7,8)28(38)16-26(18)40-21(4)34/h9-15,20,25-27,29-30,37H,16-17H2,1-8H3/b18-14?,19-15-/t20-,25-,26+,27-,29-,30+,33-/m0/s1

> <Matching Features>
H:14924486185440016873||HBA:14924321692640012300|HBA:14924486112070016868

> <Mol. Index>
502

> <Pharmacophore Match>
Model -1

> <# Confs.>
25

> <Source Database>
Pharm-Screening-input-NANPDB_After_DataWarror.ldb

> <Pharmacophore-Fit Score>
37.04

> <formula>
C33H42O10

> <Mutagenic>
none

> <Reproductive Effective>
none

> <Irritant>
none

$$$$
lasidiol-10-anisate
XX    ILIB03122402113D

 59 61  0  0  1  0              1 V2000
   -0.7897    3.7556   -0.9471 O   0  0  0  0  0
   -0.9489    2.6249   -1.3617 C   0  0  0  0  0
   -0.0653    1.6079   -1.3135 O   0  0  0  0  0
    1.2094    1.8844   -0.7228 C   0  0  2  0  0
    2.3167    1.6303   -1.7880 C   0  0  2  0  0
    3.7001    2.2119   -1.3532 C   0  0  1  0  0
    4.7313    1.6251   -2.1556 O   0  0  0  0  0
    4.8886    0.7206   -1.8370 H   0  0  0  0  0
    3.6125    3.7411   -1.7115 C   0  0  1  0  0
    4.9204    4.4153   -2.1667 C   0  0  0  0  0
    4.7049    5.8981   -2.4864 C   0  0  0  0  0
    3.9804    6.0322   -3.2954 H   0  0  0  0  0
    4.3395    6.4422   -1.6086 H   0  0  0  0  0
    5.6418    6.3654   -2.8074 H   0  0  0  0  0
    6.0206    4.2808   -1.1093 C   0  0  0  0  0
    6.2710    3.2307   -0.9260 H   0  0  0  0  0
    6.9377    4.7824   -1.4377 H   0  0  0  0  0
    5.7127    4.7282   -0.1582 H   0  0  0  0  0
    5.2741    3.9232   -3.0826 H   0  0  0  0  0
    2.5099    3.8612   -2.7809 C   0  0  0  0  0
    2.0525    2.4466   -3.0795 C   0  0  0  0  0
    2.6557    2.0579   -3.9106 H   0  0  0  0  0
    1.0112    2.4218   -3.4144 H   0  0  0  0  0
    2.8404    4.3583   -3.6993 H   0  0  0  0  0
    1.6743    4.4485   -2.3812 H   0  0  0  0  0
    3.2413    4.2913   -0.8353 H   0  0  0  0  0
    4.0896    2.0497    0.1291 C   0  0  0  0  0
    3.7791    0.6969    0.7660 C   0  0  0  0  0
    2.3332    0.4799    1.1425 C   0  0  0  0  0
    1.2670    1.0329    0.5346 C   0  0  0  0  0
    0.2908    0.8293    0.9753 H   0  0  0  0  0
    2.1319   -0.4257    2.3307 C   0  0  0  0  0
    2.5957   -1.3999    2.1432 H   0  0  0  0  0
    2.5882    0.0118    3.2250 H   0  0  0  0  0
    1.0739   -0.6018    2.5504 H   0  0  0  0  0
    4.1411   -0.1311    0.1490 H   0  0  0  0  0
    4.3697    0.6571    1.6910 H   0  0  0  0  0
    5.1719    2.1983    0.2243 H   0  0  0  0  0
    3.6187    2.8293    0.7404 H   0  0  0  0  0
    2.3283    0.1439   -2.2259 C   0  0  0  0  0
    2.5856   -0.5404   -1.4167 H   0  0  0  0  0
    1.3465   -0.1588   -2.6069 H   0  0  0  0  0
    3.0445   -0.0386   -3.0353 H   0  0  0  0  0
    1.2186    2.9335   -0.3991 H   0  0  0  0  0
   -2.1927    2.1767   -2.0332 C   0  0  0  0  0
   -2.3631    0.8723   -2.5059 C   0  0  0  0  0
   -3.5655    0.5012   -3.1133 C   0  0  0  0  0
   -4.6084    1.4213   -3.2558 C   0  0  0  0  0
   -5.7307    0.9402   -3.8697 O   0  0  0  0  0
   -6.7913    1.8783   -4.0207 C   0  0  0  0  0
   -6.4930    2.7154   -4.6618 H   0  0  0  0  0
   -7.1453    2.2355   -3.0478 H   0  0  0  0  0
   -7.6243    1.3643   -4.5100 H   0  0  0  0  0
   -4.4375    2.7248   -2.7826 C   0  0  0  0  0
   -3.2347    3.0996   -2.1741 C   0  0  0  0  0
   -3.1332    4.1212   -1.8150 H   0  0  0  0  0
   -5.2164    3.4768   -2.8737 H   0  0  0  0  0
   -3.6815   -0.5171   -3.4755 H   0  0  0  0  0
   -1.5885    0.1185   -2.3975 H   0  0  0  0  0
  1  2  2  0  0  0
  2  3  1  0  0  0
  2 45  1  0  0  0
  3  4  1  0  0  0
  4  5  1  0  0  0
  4 30  1  0  0  0
  4 44  1  0  0  0
  5  6  1  0  0  0
  5 21  1  0  0  0
  5 40  1  0  0  0
  6  7  1  0  0  0
  6  9  1  0  0  0
  6 27  1  0  0  0
  7  8  1  0  0  0
  9 10  1  0  0  0
  9 20  1  0  0  0
  9 26  1  0  0  0
 10 11  1  0  0  0
 10 15  1  0  0  0
 10 19  1  0  0  0
 11 12  1  0  0  0
 11 13  1  0  0  0
 11 14  1  0  0  0
 15 16  1  0  0  0
 15 17  1  0  0  0
 15 18  1  0  0  0
 20 21  1  0  0  0
 20 24  1  0  0  0
 20 25  1  0  0  0
 21 22  1  0  0  0
 21 23  1  0  0  0
 27 28  1  0  0  0
 27 38  1  0  0  0
 27 39  1  0  0  0
 28 29  1  0  0  0
 28 36  1  0  0  0
 28 37  1  0  0  0
 29 30  2  0  0  0
 29 32  1  0  0  0
 30 31  1  0  0  0
 32 33  1  0  0  0
 32 34  1  0  0  0
 32 35  1  0  0  0
 40 41  1  0  0  0
 40 42  1  0  0  0
 40 43  1  0  0  0
 45 46  2  0  0  0
 45 55  1  0  0  0
 46 47  1  0  0  0
 46 59  1  0  0  0
 47 48  2  0  0  0
 47 58  1  0  0  0
 48 49  1  0  0  0
 48 54  1  0  0  0
 49 50  1  0  0  0
 50 51  1  0  0  0
 50 52  1  0  0  0
 50 53  1  0  0  0
 54 55  2  0  0  0
 54 57  1  0  0  0
 55 56  1  0  0  0
M  END
> <Tumorigenic>
none

> <Score>
37.020473

> <Active/Decoy>
active

> <InChI>
InChI=1S/C23H32O4/c1-15(2)19-11-12-22(4)20(14-16(3)10-13-23(19,22)25)27-21(24)17-6-8-18(26-5)9-7-17/h6-9,14-15,19-20,25H,10-13H2,1-5H3/t19-,20+,22-,23+/m1/s1

> <Matching Features>
H:14924486185440016873||HBA:14924321692640012300|HBA:14924486112070016868

> <Mol. Index>
966

> <Pharmacophore Match>
Model -1

> <# Confs.>
25

> <Source Database>
Pharm-Screening-input-NANPDB_After_DataWarror.ldb

> <Pharmacophore-Fit Score>
37.02

> <formula>
C23H32O4

> <Mutagenic>
none

> <Reproductive Effective>
none

> <Irritant>
none

$$$$
cynarascoloside B
XX    ILIB03122402113D

 62 65  0  0  1  0              1 V2000
    4.3626    1.5359   -2.0460 O   0  0  0  0  0
    3.1721    1.4276   -1.7976 C   0  0  0  0  0
    2.6770    0.8764   -0.6565 O   0  0  0  0  0
    1.2434    0.9806   -0.6216 C   0  0  1  0  0
    0.8315    1.1826   -2.0778 C   0  0  1  0  0
   -0.4841    1.9846   -2.2168 C   0  0  1  0  0
   -0.6677    2.3157   -3.5914 O   0  0  0  0  0
   -1.8550    3.0638   -3.8618 C   0  0  2  0  0
   -3.0260    2.3245   -3.4872 O   0  0  0  0  0
   -4.2385    3.0460   -3.7312 C   0  0  1  0  0
   -4.4037    3.2735   -5.2352 C   0  0  1  0  0
   -5.5657    4.0628   -5.4695 O   0  0  0  0  0
   -5.6299    4.2073   -6.4292 H   0  0  0  0  0
   -3.1844    3.9955   -5.8080 C   0  0  2  0  0
   -3.2681    4.0035   -7.2344 O   0  0  0  0  0
   -3.2744    3.0800   -7.5394 H   0  0  0  0  0
   -1.8873    3.3129   -5.3815 C   0  0  1  0  0
   -0.7975    4.1789   -5.7284 O   0  0  0  0  0
    0.0185    3.7623   -5.4033 H   0  0  0  0  0
   -1.7419    2.3858   -5.9374 H   0  0  0  0  0
   -3.1869    5.0486   -5.5032 H   0  0  0  0  0
   -4.5437    2.3153   -5.7509 H   0  0  0  0  0
   -5.3806    2.2242   -3.1590 C   0  0  0  0  0
   -5.4235    0.9520   -3.7978 O   0  0  0  0  0
   -4.5578    0.5298   -3.6628 H   0  0  0  0  0
   -5.2597    2.0547   -2.0844 H   0  0  0  0  0
   -6.3434    2.7150   -3.3336 H   0  0  0  0  0
   -4.1963    4.0015   -3.1909 H   0  0  0  0  0
   -1.8143    4.0128   -3.3274 H   0  0  0  0  0
   -1.7382    1.2091   -1.7428 C   0  0  0  0  0
   -1.6556    0.6597   -0.3390 C   0  0  0  0  0
   -0.8028   -0.5891   -0.1945 C   0  0  1  0  0
    0.6880   -0.2813    0.0537 C   0  0  2  0  0
    0.7778   -0.2328    1.5938 C   0  0  1  0  0
   -0.1056   -1.4060    2.0301 C   0  0  1  0  0
   -0.7031   -1.1572    3.2920 O   0  0  0  0  0
    0.0134   -1.0484    3.9397 H   0  0  0  0  0
   -1.1846   -1.5473    0.9545 C   0  0  0  0  0
   -1.1569   -2.5770    0.5729 H   0  0  0  0  0
   -2.1988   -1.3965    1.3379 H   0  0  0  0  0
    0.4650   -2.3387    2.1014 H   0  0  0  0  0
    2.1933   -0.3484    2.1482 C   0  0  0  0  0
    2.7857    0.5377    1.9027 H   0  0  0  0  0
    2.1784   -0.4370    3.2380 H   0  0  0  0  0
    2.7104   -1.2261    1.7455 H   0  0  0  0  0
    0.3514    0.7053    1.9715 H   0  0  0  0  0
    1.2740   -1.1464   -0.2919 H   0  0  0  0  0
   -0.9020   -1.1593   -1.1282 H   0  0  0  0  0
   -2.3343    1.2492    0.6595 C   0  0  0  0  0
   -2.9353    2.1347    0.4834 H   0  0  0  0  0
   -2.2967    0.8827    1.6775 H   0  0  0  0  0
   -1.9555    0.3912   -2.4426 H   0  0  0  0  0
   -2.6121    1.8682   -1.8319 H   0  0  0  0  0
   -0.3924    2.9088   -1.6464 H   0  0  0  0  0
    2.0415    1.8961   -2.6745 C   0  0  2  0  0
    2.3157    1.5383   -4.1288 C   0  0  0  0  0
    3.2171    2.0475   -4.4868 H   0  0  0  0  0
    2.4831    0.4624   -4.2505 H   0  0  0  0  0
    1.4913    1.8305   -4.7837 H   0  0  0  0  0
    1.9553    2.9818   -2.5518 H   0  0  0  0  0
    0.7214    0.2018   -2.5808 H   0  0  0  0  0
    1.0079    1.8702   -0.0240 H   0  0  0  0  0
  1  2  2  0  0  0
  2  3  1  0  0  0
  2 55  1  0  0  0
  3  4  1  0  0  0
  4  5  1  0  0  0
  4 33  1  0  0  0
  4 62  1  0  0  0
  5  6  1  0  0  0
  5 55  1  0  0  0
  5 61  1  0  0  0
  6  7  1  0  0  0
  6 30  1  0  0  0
  6 54  1  0  0  0
  7  8  1  0  0  0
  8  9  1  0  0  0
  8 17  1  0  0  0
  8 29  1  0  0  0
  9 10  1  0  0  0
 10 11  1  0  0  0
 10 23  1  0  0  0
 10 28  1  0  0  0
 11 12  1  0  0  0
 11 14  1  0  0  0
 11 22  1  0  0  0
 12 13  1  0  0  0
 14 15  1  0  0  0
 14 17  1  0  0  0
 14 21  1  0  0  0
 15 16  1  0  0  0
 17 18  1  0  0  0
 17 20  1  0  0  0
 18 19  1  0  0  0
 23 24  1  0  0  0
 23 26  1  0  0  0
 23 27  1  0  0  0
 24 25  1  0  0  0
 30 31  1  0  0  0
 30 52  1  0  0  0
 30 53  1  0  0  0
 31 32  1  0  0  0
 31 49  2  0  0  0
 32 33  1  0  0  0
 32 38  1  0  0  0
 32 48  1  0  0  0
 33 34  1  0  0  0
 33 47  1  0  0  0
 34 35  1  0  0  0
 34 42  1  0  0  0
 34 46  1  0  0  0
 35 36  1  0  0  0
 35 38  1  0  0  0
 35 41  1  0  0  0
 36 37  1  0  0  0
 38 39  1  0  0  0
 38 40  1  0  0  0
 42 43  1  0  0  0
 42 44  1  0  0  0
 42 45  1  0  0  0
 49 50  1  0  0  0
 49 51  1  0  0  0
 55 56  1  0  0  0
 55 60  1  0  0  0
 56 57  1  0  0  0
 56 58  1  0  0  0
 56 59  1  0  0  0
M  END
> <Tumorigenic>
none

> <Score>
36.96698

> <Active/Decoy>
active

> <InChI>
InChI=1S/C21H32O9/c1-7-4-12(28-21-18(26)17(25)16(24)13(6-22)29-21)15-9(3)20(27)30-19(15)14-8(2)11(23)5-10(7)14/h8-19,21-26H,1,4-6H2,2-3H3/t8-,9+,10+,11+,12+,13-,14+,15-,16-,17+,18-,19-,21-/m1/s1

> <Matching Features>
H:14924486185440016873||HBA:14924321692640012300|HBA:14924486112070016868

> <Mol. Index>
1092

> <Pharmacophore Match>
Model -1

> <# Confs.>
14

> <Source Database>
Pharm-Screening-input-NANPDB_After_DataWarror.ldb

> <Pharmacophore-Fit Score>
36.97

> <formula>
C21H32O9

> <Mutagenic>
none

> <Reproductive Effective>
none

> <Irritant>
none

$$$$
ent-3beta-acetoxy-7alpha,17,18-trihydroxykaur-15-ene
XX    ILIB03122402113D

 61 64  0  0  1  0              1 V2000
    4.4254    1.5328   -2.0169 O   0  0  0  0  0
    4.6978    0.9695   -0.9651 C   0  0  0  0  0
    3.8178    0.6140    0.0119 O   0  0  0  0  0
    2.4423    0.9459   -0.1924 C   0  0  1  0  0
    1.5237   -0.0756    0.5444 C   0  0  2  0  0
    1.6991   -1.3972   -0.1954 C   0  0  0  0  0
    0.8972   -2.3983    0.4101 O   0  0  0  0  0
    1.0405   -3.2197   -0.0903 H   0  0  0  0  0
    2.7465   -1.7186   -0.1812 H   0  0  0  0  0
    1.4028   -1.2911   -1.2447 H   0  0  0  0  0
    0.0147    0.4095    0.4257 C   0  0  2  0  0
   -0.2779    1.9091    0.7952 C   0  0  2  0  0
   -1.7791    2.3056    0.4040 C   0  0  2  0  0
   -2.7382    1.0856    0.1485 C   0  0  2  0  0
   -2.4481   -0.0215    1.1604 C   0  0  1  0  0
   -3.3534   -1.1174    1.0397 O   0  0  0  0  0
   -4.2155   -0.8284    1.3836 H   0  0  0  0  0
   -1.0204   -0.5694    1.0356 C   0  0  0  0  0
   -0.7136   -0.9040    2.0308 H   0  0  0  0  0
   -1.0533   -1.4764    0.4208 H   0  0  0  0  0
   -2.5846    0.3745    2.1742 H   0  0  0  0  0
   -2.7479    0.6236   -1.3028 C   0  0  0  0  0
   -3.6204    1.3484   -2.0218 C   0  0  0  0  0
   -3.9314    1.2197   -3.4778 C   0  0  0  0  0
   -5.3091    0.9160   -3.6654 O   0  0  0  0  0
   -5.8281    1.6434   -3.2874 H   0  0  0  0  0
   -3.3407    0.4117   -3.9197 H   0  0  0  0  0
   -3.7070    2.1381   -4.0310 H   0  0  0  0  0
   -4.2787    2.3716   -1.1301 C   0  0  1  0  0
   -4.1849    1.6255    0.2051 C   0  0  0  0  0
   -4.9320    0.8209    0.2360 H   0  0  0  0  0
   -4.3727    2.2725    1.0692 H   0  0  0  0  0
   -3.4405    3.6595   -1.0411 C   0  0  0  0  0
   -1.9594    3.3909   -0.6969 C   0  0  0  0  0
   -1.5018    4.3351   -0.3798 H   0  0  0  0  0
   -1.4484    3.0805   -1.6224 H   0  0  0  0  0
   -3.4949    4.2173   -1.9831 H   0  0  0  0  0
   -3.8698    4.3086   -0.2675 H   0  0  0  0  0
   -5.3207    2.5719   -1.3986 H   0  0  0  0  0
   -2.1316   -0.1644   -1.7084 H   0  0  0  0  0
   -2.1914    2.7974    1.2993 H   0  0  0  0  0
    0.7580    2.8184    0.0834 C   0  0  0  0  0
    2.2081    2.3944    0.2789 C   0  0  0  0  0
    2.5301    2.5236    1.3172 H   0  0  0  0  0
    2.8542    3.0708   -0.2960 H   0  0  0  0  0
    0.5769    2.8130   -0.9972 H   0  0  0  0  0
    0.6485    3.8560    0.4191 H   0  0  0  0  0
   -0.1518    2.1643    2.3236 C   0  0  0  0  0
    0.8683    2.0900    2.6939 H   0  0  0  0  0
   -0.7638    1.4762    2.9115 H   0  0  0  0  0
   -0.4740    3.1828    2.5726 H   0  0  0  0  0
   -0.1672    0.3732   -0.6586 H   0  0  0  0  0
    2.0163   -0.3090    1.9871 C   0  0  0  0  0
    2.9680   -0.8550    1.9918 H   0  0  0  0  0
    2.2096    0.6184    2.5250 H   0  0  0  0  0
    1.3176   -0.9017    2.5821 H   0  0  0  0  0
    2.2192    0.9103   -1.2691 H   0  0  0  0  0
    6.0861    0.5753   -0.5621 C   0  0  0  0  0
    6.7359    0.5856   -1.4421 H   0  0  0  0  0
    6.4693    1.2813    0.1773 H   0  0  0  0  0
    6.0854   -0.4411   -0.1586 H   0  0  0  0  0
  1  2  2  0  0  0
  2  3  1  0  0  0
  2 58  1  0  0  0
  3  4  1  0  0  0
  4  5  1  0  0  0
  4 43  1  0  0  0
  4 57  1  0  0  0
  5  6  1  0  0  0
  5 11  1  0  0  0
  5 53  1  0  0  0
  6  7  1  0  0  0
  6  9  1  0  0  0
  6 10  1  0  0  0
  7  8  1  0  0  0
 11 12  1  0  0  0
 11 18  1  0  0  0
 11 52  1  0  0  0
 12 13  1  0  0  0
 12 42  1  0  0  0
 12 48  1  0  0  0
 13 14  1  0  0  0
 13 34  1  0  0  0
 13 41  1  0  0  0
 14 15  1  0  0  0
 14 22  1  0  0  0
 14 30  1  0  0  0
 15 16  1  0  0  0
 15 18  1  0  0  0
 15 21  1  0  0  0
 16 17  1  0  0  0
 18 19  1  0  0  0
 18 20  1  0  0  0
 22 23  2  0  0  0
 22 40  1  0  0  0
 23 24  1  0  0  0
 23 29  1  0  0  0
 24 25  1  0  0  0
 24 27  1  0  0  0
 24 28  1  0  0  0
 25 26  1  0  0  0
 29 30  1  0  0  0
 29 33  1  0  0  0
 29 39  1  0  0  0
 30 31  1  0  0  0
 30 32  1  0  0  0
 33 34  1  0  0  0
 33 37  1  0  0  0
 33 38  1  0  0  0
 34 35  1  0  0  0
 34 36  1  0  0  0
 42 43  1  0  0  0
 42 46  1  0  0  0
 42 47  1  0  0  0
 43 44  1  0  0  0
 43 45  1  0  0  0
 48 49  1  0  0  0
 48 50  1  0  0  0
 48 51  1  0  0  0
 53 54  1  0  0  0
 53 55  1  0  0  0
 53 56  1  0  0  0
 58 59  1  0  0  0
 58 60  1  0  0  0
 58 61  1  0  0  0
M  END
> <Tumorigenic>
none

> <Score>
36.971794

> <Active/Decoy>
active

> <InChI>
InChI=1S/C22H34O5/c1-13(25)27-19-6-7-20(2)16-5-4-14-9-22(16,10-15(14)11-23)18(26)8-17(20)21(19,3)12-24/h10,14,16-19,23-24,26H,4-9,11-12H2,1-3H3/t14-,16-,17+,18+,19-,20+,21-,22-/m1/s1

> <Matching Features>
H:14924486185440016873||HBA:14924321692640012300|HBA:14924486112070016868

> <Mol. Index>
593

> <Pharmacophore Match>
Model -1

> <# Confs.>
14

> <Source Database>
Pharm-Screening-input-NANPDB_After_DataWarror.ldb

> <Pharmacophore-Fit Score>
36.97

> <formula>
C22H34O5

> <Mutagenic>
none

> <Reproductive Effective>
none

> <Irritant>
none

$$$$
phlomuroside
XX    ILIB03122402113D

 59 61  0  0  1  0              1 V2000
   -4.0252    1.1451   -1.1229 O   0  0  0  0  0
   -3.1015    0.0633   -0.9596 C   0  0  1  0  0
   -2.9893   -0.3714    0.3958 O   0  0  0  0  0
   -1.9819   -1.3481    0.6036 C   0  0  1  0  0
   -0.6086   -0.8571    0.2424 C   0  0  0  0  0
    0.3765   -1.6504   -0.2212 C   0  0  0  0  0
    1.7225   -1.2036   -0.5901 C   0  0  2  0  0
    2.8556   -1.7531    0.1130 O   0  0  0  0  0
    2.5384   -0.3942    0.4460 C   0  0  1  0  0
    3.6168    0.5627    0.0095 C   0  0  0  0  0
    3.5885    0.8936   -1.4780 C   0  0  1  0  0
    4.8301    1.5080   -1.8165 O   0  0  0  0  0
    4.7932    1.7445   -2.7590 H   0  0  0  0  0
    3.3998   -0.3645   -2.3241 C   0  0  0  0  0
    2.0175   -1.0288   -2.0985 C   0  0  0  0  0
    2.0326   -2.4072   -2.7913 C   0  0  0  0  0
    1.0605   -2.9060   -2.7162 H   0  0  0  0  0
    2.7741   -3.0727   -2.3344 H   0  0  0  0  0
    2.2758   -2.3134   -3.8558 H   0  0  0  0  0
    0.9360   -0.1589   -2.7776 C   0  0  0  0  0
    1.2093    0.0790   -3.8107 H   0  0  0  0  0
    0.7776    0.7827   -2.2429 H   0  0  0  0  0
   -0.0306   -0.6743   -2.8164 H   0  0  0  0  0
    4.2108   -1.0700   -2.0925 H   0  0  0  0  0
    3.5380   -0.1189   -3.3862 H   0  0  0  0  0
    2.7979    1.6220   -1.6808 H   0  0  0  0  0
    3.5354    1.5028    0.5699 H   0  0  0  0  0
    4.5961    0.1511    0.2864 H   0  0  0  0  0
    2.1058   -0.2560    1.8794 C   0  0  0  0  0
    2.9796   -0.1755    2.5344 H   0  0  0  0  0
    1.5200   -1.1124    2.2268 H   0  0  0  0  0
    1.5021    0.6477    2.0043 H   0  0  0  0  0
    0.1779   -2.7132   -0.3378 H   0  0  0  0  0
   -0.4248    0.2105    0.3451 H   0  0  0  0  0
   -2.0182   -1.7329    2.0790 C   0  0  0  0  0
   -1.8365   -0.8574    2.7128 H   0  0  0  0  0
   -1.2756   -2.5000    2.3211 H   0  0  0  0  0
   -3.0093   -2.1137    2.3495 H   0  0  0  0  0
   -2.2118   -2.2585    0.0111 H   0  0  0  0  0
   -3.4333   -1.1527   -1.8340 C   0  0  2  0  0
   -2.2028   -1.7686   -2.2195 O   0  0  0  0  0
   -2.4225   -2.5124   -2.8066 H   0  0  0  0  0
   -4.2139   -0.7358   -3.0700 C   0  0  1  0  0
   -4.5451   -1.9028   -3.8234 O   0  0  0  0  0
   -5.0535   -1.6125   -4.6005 H   0  0  0  0  0
   -5.5069   -0.0129   -2.6826 C   0  0  2  0  0
   -5.8033    0.8879   -3.7576 O   0  0  0  0  0
   -6.6646    1.2967   -3.5671 H   0  0  0  0  0
   -5.3855    0.7907   -1.3740 C   0  0  1  0  0
   -6.0107    0.0953   -0.1788 C   0  0  0  0  0
   -5.9785    0.9518    0.9512 O   0  0  0  0  0
   -6.3879    0.4678    1.6881 H   0  0  0  0  0
   -5.4785   -0.8326    0.0593 H   0  0  0  0  0
   -7.0505   -0.1706   -0.3940 H   0  0  0  0  0
   -5.9203    1.7405   -1.5029 H   0  0  0  0  0
   -6.3498   -0.7115   -2.6400 H   0  0  0  0  0
   -3.5831   -0.1190   -3.7221 H   0  0  0  0  0
   -3.9831   -1.9143   -1.2692 H   0  0  0  0  0
   -2.1174    0.4542   -1.2500 H   0  0  0  0  0
  1  2  1  0  0  0
  1 49  1  0  0  0
  2  3  1  0  0  0
  2 40  1  0  0  0
  2 59  1  0  0  0
  3  4  1  0  0  0
  4  5  1  0  0  0
  4 35  1  0  0  0
  4 39  1  0  0  0
  5  6  2  0  0  0
  5 34  1  0  0  0
  6  7  1  0  0  0
  6 33  1  0  0  0
  7  8  1  0  0  0
  7  9  1  0  0  0
  7 15  1  0  0  0
  8  9  1  0  0  0
  9 10  1  0  0  0
  9 29  1  0  0  0
 10 11  1  0  0  0
 10 27  1  0  0  0
 10 28  1  0  0  0
 11 12  1  0  0  0
 11 14  1  0  0  0
 11 26  1  0  0  0
 12 13  1  0  0  0
 14 15  1  0  0  0
 14 24  1  0  0  0
 14 25  1  0  0  0
 15 16  1  0  0  0
 15 20  1  0  0  0
 16 17  1  0  0  0
 16 18  1  0  0  0
 16 19  1  0  0  0
 20 21  1  0  0  0
 20 22  1  0  0  0
 20 23  1  0  0  0
 29 30  1  0  0  0
 29 31  1  0  0  0
 29 32  1  0  0  0
 35 36  1  0  0  0
 35 37  1  0  0  0
 35 38  1  0  0  0
 40 41  1  0  0  0
 40 43  1  0  0  0
 40 58  1  0  0  0
 41 42  1  0  0  0
 43 44  1  0  0  0
 43 46  1  0  0  0
 43 57  1  0  0  0
 44 45  1  0  0  0
 46 47  1  0  0  0
 46 49  1  0  0  0
 46 56  1  0  0  0
 47 48  1  0  0  0
 49 50  1  0  0  0
 49 55  1  0  0  0
 50 51  1  0  0  0
 50 53  1  0  0  0
 50 54  1  0  0  0
 51 52  1  0  0  0
M  END
> <Tumorigenic>
none

> <Score>
36.960545

> <Active/Decoy>
active

> <InChI>
InChI=1S/C19H32O8/c1-10(25-16-15(24)14(23)13(22)12(9-20)26-16)5-6-19-17(2,3)7-11(21)8-18(19,4)27-19/h5-6,10-16,20-24H,7-9H2,1-4H3/b6-5+/t10-,11+,12-,13-,14+,15-,16-,18+,19-/m1/s1

> <Matching Features>
H:14924486185440016873||HBA:14924321692640012300|HBA:14924486112070016868

> <Mol. Index>
1366

> <Pharmacophore Match>
Model -1

> <# Confs.>
25

> <Source Database>
Pharm-Screening-input-NANPDB_After_DataWarror.ldb

> <Pharmacophore-Fit Score>
36.96

> <formula>
C19H32O8

> <Mutagenic>
none

> <Reproductive Effective>
none

> <Irritant>
none

$$$$
farnesiferol A
XX    ILIB03122402113D

 58 61  0  0  1  0              1 V2000
    4.9114    1.5468   -1.8907 O   0  0  0  0  0
    4.4461    1.0955   -0.8500 C   0  0  0  0  0
    3.0870    0.8340   -0.7006 O   0  0  0  0  0
    2.5591    0.3197    0.5020 C   0  0  0  0  0
    3.3960    0.0506    1.5809 C   0  0  0  0  0
    2.8357   -0.4578    2.7528 C   0  0  0  0  0
    1.4626   -0.7147    2.8161 C   0  0  0  0  0
    0.6275   -0.4246    1.7295 C   0  0  0  0  0
    1.1867    0.0696    0.5486 C   0  0  0  0  0
    0.5831    0.2940   -0.3251 H   0  0  0  0  0
   -0.6870   -0.7132    1.9156 O   0  0  0  0  0
   -1.5564   -0.4344    0.8262 C   0  0  0  0  0
   -2.9889   -0.8143    1.2177 C   0  0  2  0  0
   -4.1048   -0.5890    0.1120 C   0  0  1  0  0
   -4.3463    0.9711   -0.0835 C   0  0  1  0  0
   -5.2694    1.3813   -1.2945 C   0  0  0  0  0
   -4.7975    0.6274   -2.5732 C   0  0  2  0  0
   -5.6964    0.8625   -3.6555 O   0  0  0  0  0
   -5.3322    0.4208   -4.4412 H   0  0  0  0  0
   -4.6456   -0.8796   -2.3802 C   0  0  0  0  0
   -3.6875   -1.2009   -1.2374 C   0  0  0  0  0
   -3.5909   -2.2886   -1.1391 H   0  0  0  0  0
   -2.7028   -0.8264   -1.5379 H   0  0  0  0  0
   -5.6214   -1.3530   -2.2337 H   0  0  0  0  0
   -4.2576   -1.3226   -3.3068 H   0  0  0  0  0
   -3.8231    1.0318   -2.8797 H   0  0  0  0  0
   -6.7777    1.1693   -1.0461 C   0  0  0  0  0
   -7.3768    1.6592   -1.8251 H   0  0  0  0  0
   -7.0707    0.1207   -1.0620 H   0  0  0  0  0
   -7.1000    1.5993   -0.0936 H   0  0  0  0  0
   -5.1019    2.9025   -1.5749 C   0  0  0  0  0
   -5.6137    3.1997   -2.4975 H   0  0  0  0  0
   -4.0450    3.1716   -1.6852 H   0  0  0  0  0
   -5.5218    3.5148   -0.7697 H   0  0  0  0  0
   -4.7039    1.6624    1.2537 C   0  0  0  0  0
   -3.6474    1.4102    2.3313 C   0  0  0  0  0
   -3.3572   -0.0557    2.4921 C   0  0  0  0  0
   -3.4447   -0.6691    3.6829 C   0  0  0  0  0
   -3.7182   -0.1237    4.5797 H   0  0  0  0  0
   -3.2425   -1.7296    3.7866 H   0  0  0  0  0
   -2.7198    1.9309    2.0631 H   0  0  0  0  0
   -3.9891    1.8545    3.2740 H   0  0  0  0  0
   -4.7822    2.7457    1.1188 H   0  0  0  0  0
   -5.6803    1.3260    1.6182 H   0  0  0  0  0
   -3.3626    1.3809   -0.3580 H   0  0  0  0  0
   -5.3709   -1.3313    0.6200 C   0  0  0  0  0
   -5.8115   -0.8758    1.5108 H   0  0  0  0  0
   -5.1187   -2.3662    0.8829 H   0  0  0  0  0
   -6.1569   -1.4071   -0.1285 H   0  0  0  0  0
   -2.9778   -1.8843    1.4385 H   0  0  0  0  0
   -1.5156    0.6165    0.5335 H   0  0  0  0  0
   -1.2718   -1.0401   -0.0524 H   0  0  0  0  0
    1.0426   -1.1113    3.7378 H   0  0  0  0  0
    3.4557   -0.6721    3.6199 H   0  0  0  0  0
    4.8204    0.3003    1.4447 C   0  0  0  0  0
    5.3115    0.7882    0.3036 C   0  0  0  0  0
    6.3734    0.9844    0.1970 H   0  0  0  0  0
    5.4732    0.0916    2.2846 H   0  0  0  0  0
  1  2  2  0  0  0
  2  3  1  0  0  0
  2 56  1  0  0  0
  3  4  1  0  0  0
  4  5  2  0  0  0
  4  9  1  0  0  0
  5  6  1  0  0  0
  5 55  1  0  0  0
  6  7  2  0  0  0
  6 54  1  0  0  0
  7  8  1  0  0  0
  7 53  1  0  0  0
  8  9  2  0  0  0
  8 11  1  0  0  0
  9 10  1  0  0  0
 11 12  1  0  0  0
 12 13  1  0  0  0
 12 51  1  0  0  0
 12 52  1  0  0  0
 13 14  1  0  0  0
 13 37  1  0  0  0
 13 50  1  0  0  0
 14 15  1  0  0  0
 14 21  1  0  0  0
 14 46  1  0  0  0
 15 16  1  0  0  0
 15 35  1  0  0  0
 15 45  1  0  0  0
 16 17  1  0  0  0
 16 27  1  0  0  0
 16 31  1  0  0  0
 17 18  1  0  0  0
 17 20  1  0  0  0
 17 26  1  0  0  0
 18 19  1  0  0  0
 20 21  1  0  0  0
 20 24  1  0  0  0
 20 25  1  0  0  0
 21 22  1  0  0  0
 21 23  1  0  0  0
 27 28  1  0  0  0
 27 29  1  0  0  0
 27 30  1  0  0  0
 31 32  1  0  0  0
 31 33  1  0  0  0
 31 34  1  0  0  0
 35 36  1  0  0  0
 35 43  1  0  0  0
 35 44  1  0  0  0
 36 37  1  0  0  0
 36 41  1  0  0  0
 36 42  1  0  0  0
 37 38  2  0  0  0
 38 39  1  0  0  0
 38 40  1  0  0  0
 46 47  1  0  0  0
 46 48  1  0  0  0
 46 49  1  0  0  0
 55 56  2  0  0  0
 55 58  1  0  0  0
 56 57  1  0  0  0
M  END
> <Tumorigenic>
none

> <Score>
36.964157

> <Active/Decoy>
active

> <InChI>
InChI=1S/C24H30O4/c1-15-5-9-20-23(2,3)21(25)11-12-24(20,4)18(15)14-27-17-8-6-16-7-10-22(26)28-19(16)13-17/h6-8,10,13,18,20-21,25H,1,5,9,11-12,14H2,2-4H3/t18-,20+,21+,24-/m0/s1

> <Matching Features>
H:14924486185440016873||HBA:14924321692640012300|HBA:14924486112070016868

> <Mol. Index>
965

> <Pharmacophore Match>
Model -1

> <# Confs.>
25

> <Source Database>
Pharm-Screening-input-NANPDB_After_DataWarror.ldb

> <Pharmacophore-Fit Score>
36.96

> <formula>
C24H30O4

> <Mutagenic>
none

> <Reproductive Effective>
none

> <Irritant>
none

$$$$
cystodione E
XX    ILIB03122402113D

 74 75  0  0  1  0              1 V2000
    2.6220    4.3156    0.7929 O   0  0  0  0  0
    2.4755    3.1072    0.6748 C   0  0  0  0  0
    2.9173    2.2999   -0.5203 C   0  0  2  0  0
    2.6911    0.9528   -0.0504 O   0  0  0  0  0
    1.6281    0.9617    0.9213 C   0  0  1  0  0
    1.8428    2.2458    1.7183 C   0  0  0  0  0
    0.9155    2.6755    2.1016 H   0  0  0  0  0
    2.5696    2.1175    2.5272 H   0  0  0  0  0
    0.2697    0.9494    0.2183 C   0  0  0  0  0
    0.0373   -0.2689   -0.6752 C   0  0  0  0  0
   -1.3225   -0.2804   -1.3788 C   0  0  0  0  0
   -1.5587   -1.4728   -2.2575 C   0  0  0  0  0
   -2.0925   -2.6390   -1.8558 C   0  0  0  0  0
   -2.5488   -2.9760   -0.4896 C   0  0  0  0  0
   -1.7344   -2.9740    0.4505 O   0  0  0  0  0
   -3.9985   -3.3335   -0.3301 C   0  0  0  0  0
   -4.7783   -2.4447    0.5917 C   0  0  0  0  0
   -5.4291   -1.3274    0.2116 C   0  0  0  0  0
   -5.4882   -0.7243   -1.1600 C   0  0  0  0  0
   -4.9356    0.6722   -1.2056 C   0  0  0  0  0
   -4.8955    1.4217   -2.3970 C   0  0  0  0  0
   -5.3825    0.8595   -3.5425 O   0  0  0  0  0
   -6.4359   -0.0824   -3.3591 C   0  0  0  0  0
   -6.1014   -0.9410   -2.7679 H   0  0  0  0  0
   -7.3143    0.3913   -2.9042 H   0  0  0  0  0
   -6.7305   -0.4496   -4.3471 H   0  0  0  0  0
   -4.4314    2.7522   -2.4089 C   0  0  0  0  0
   -3.9511    3.3087   -1.2184 C   0  0  0  0  0
   -3.9753    2.5650   -0.0403 C   0  0  0  0  0
   -4.4692    1.2643   -0.0237 C   0  0  0  0  0
   -4.4919    0.7091    0.9118 H   0  0  0  0  0
   -3.5203    3.0983    1.1350 O   0  0  0  0  0
   -3.2150    4.0052    0.9659 H   0  0  0  0  0
   -3.5670    4.3256   -1.2099 H   0  0  0  0  0
   -4.4059    3.5707   -3.6677 C   0  0  0  0  0
   -3.5210    3.3220   -4.2611 H   0  0  0  0  0
   -5.3038    3.3954   -4.2687 H   0  0  0  0  0
   -4.3789    4.6410   -3.4421 H   0  0  0  0  0
   -4.9479   -1.3466   -1.8864 H   0  0  0  0  0
   -6.5327   -0.7161   -1.4967 H   0  0  0  0  0
   -5.9854   -0.7800    0.9721 H   0  0  0  0  0
   -4.8212   -2.8950    2.0290 C   0  0  0  0  0
   -5.2766   -3.8881    2.1015 H   0  0  0  0  0
   -3.8094   -2.9449    2.4446 H   0  0  0  0  0
   -5.4040   -2.2175    2.6624 H   0  0  0  0  0
   -4.0263   -4.3669    0.0355 H   0  0  0  0  0
   -4.4787   -3.3117   -1.3153 H   0  0  0  0  0
   -2.2723   -3.4278   -2.5982 H   0  0  0  0  0
   -1.1352   -1.2895   -3.6929 C   0  0  0  0  0
   -0.0663   -1.0609   -3.7562 H   0  0  0  0  0
   -1.6944   -0.4633   -4.1437 H   0  0  0  0  0
   -1.3176   -2.1818   -4.3012 H   0  0  0  0  0
   -2.1193   -0.2529   -0.6247 H   0  0  0  0  0
   -1.4258    0.6412   -1.9669 H   0  0  0  0  0
    0.1314   -1.1795   -0.0693 H   0  0  0  0  0
    0.8288   -0.3156   -1.4346 H   0  0  0  0  0
    0.1743    1.8589   -0.3891 H   0  0  0  0  0
   -0.5264    0.9929    0.9727 H   0  0  0  0  0
    1.7948   -0.2698    1.8139 C   0  0  0  0  0
    1.7299   -1.1953    1.2333 H   0  0  0  0  0
    1.0341   -0.2969    2.6014 H   0  0  0  0  0
    2.7823   -0.2775    2.2861 H   0  0  0  0  0
    4.3925    2.4750   -0.9219 C   0  0  0  0  0
    4.7215    1.5512   -1.9658 O   0  0  0  0  0
    4.6805    0.6510   -1.6017 H   0  0  0  0  0
    4.6530    3.8757   -1.4803 C   0  0  0  0  0
    4.0757    4.0580   -2.3938 H   0  0  0  0  0
    4.4008    4.6507   -0.7505 H   0  0  0  0  0
    5.7058    3.9944   -1.7609 H   0  0  0  0  0
    5.3281    2.2080    0.2622 C   0  0  0  0  0
    5.1240    2.8862    1.0963 H   0  0  0  0  0
    6.3752    2.3300   -0.0351 H   0  0  0  0  0
    5.2332    1.1760    0.6208 H   0  0  0  0  0
    2.2379    2.4779   -1.3618 H   0  0  0  0  0
  1  2  2  0  0  0
  2  3  1  0  0  0
  2  6  1  0  0  0
  3  4  1  0  0  0
  3 63  1  0  0  0
  3 74  1  0  0  0
  4  5  1  0  0  0
  5  6  1  0  0  0
  5  9  1  0  0  0
  5 59  1  0  0  0
  6  7  1  0  0  0
  6  8  1  0  0  0
  9 10  1  0  0  0
  9 57  1  0  0  0
  9 58  1  0  0  0
 10 11  1  0  0  0
 10 55  1  0  0  0
 10 56  1  0  0  0
 11 12  1  0  0  0
 11 53  1  0  0  0
 11 54  1  0  0  0
 12 13  2  0  0  0
 12 49  1  0  0  0
 13 14  1  0  0  0
 13 48  1  0  0  0
 14 15  2  0  0  0
 14 16  1  0  0  0
 16 17  1  0  0  0
 16 46  1  0  0  0
 16 47  1  0  0  0
 17 18  2  0  0  0
 17 42  1  0  0  0
 18 19  1  0  0  0
 18 41  1  0  0  0
 19 20  1  0  0  0
 19 39  1  0  0  0
 19 40  1  0  0  0
 20 21  2  0  0  0
 20 30  1  0  0  0
 21 22  1  0  0  0
 21 27  1  0  0  0
 22 23  1  0  0  0
 23 24  1  0  0  0
 23 25  1  0  0  0
 23 26  1  0  0  0
 27 28  2  0  0  0
 27 35  1  0  0  0
 28 29  1  0  0  0
 28 34  1  0  0  0
 29 30  2  0  0  0
 29 32  1  0  0  0
 30 31  1  0  0  0
 32 33  1  0  0  0
 35 36  1  0  0  0
 35 37  1  0  0  0
 35 38  1  0  0  0
 42 43  1  0  0  0
 42 44  1  0  0  0
 42 45  1  0  0  0
 49 50  1  0  0  0
 49 51  1  0  0  0
 49 52  1  0  0  0
 59 60  1  0  0  0
 59 61  1  0  0  0
 59 62  1  0  0  0
 63 64  1  0  0  0
 63 66  1  0  0  0
 63 70  1  0  0  0
 64 65  1  0  0  0
 66 67  1  0  0  0
 66 68  1  0  0  0
 66 69  1  0  0  0
 70 71  1  0  0  0
 70 72  1  0  0  0
 70 73  1  0  0  0
M  END
> <Tumorigenic>
none

> <Score>
36.841103

> <Active/Decoy>
active

> <InChI>
InChI=1S/C28H40O6/c1-18(9-8-12-28(6)17-24(31)26(34-28)27(4,5)32)13-22(29)14-19(2)10-11-21-16-23(30)15-20(3)25(21)33-7/h10,13,15-16,26,30,32H,8-9,11-12,14,17H2,1-7H3/b18-13-,19-10+/t26-,28+/m0/s1

> <Matching Features>
H:14924486185440016873||HBA:14924321692640012300|HBA:14924486112070016868

> <Mol. Index>
754

> <Pharmacophore Match>
Model -1

> <# Confs.>
25

> <Source Database>
Pharm-Screening-input-NANPDB_After_DataWarror.ldb

> <Pharmacophore-Fit Score>
36.84

> <formula>
C28H40O6

> <Mutagenic>
none

> <Reproductive Effective>
none

> <Irritant>
none

$$$$
diosmetin-7-galactoside
XX    ILIB03122402113D

 55 58  0  0  1  0              1 V2000
    4.7800    1.6993   -2.3329 O   0  0  0  0  0
    3.6739    1.3017   -1.9937 C   0  0  0  0  0
    2.5227    1.2476   -2.9151 C   0  0  0  0  0
    1.3054    0.7803   -2.4197 C   0  0  0  0  0
    1.1284    0.3825   -1.1182 O   0  0  0  0  0
    2.2043    0.4383   -0.2474 C   0  0  0  0  0
    3.4271    0.8625   -0.6045 C   0  0  0  0  0
    4.2690    0.9115    0.0785 H   0  0  0  0  0
    1.8893   -0.0032    1.1247 C   0  0  0  0  0
    0.5990    0.1565    1.6497 C   0  0  0  0  0
    0.2987   -0.2690    2.9485 C   0  0  0  0  0
   -0.9692   -0.1029    3.4421 O   0  0  0  0  0
   -1.5186    0.3133    2.7557 H   0  0  0  0  0
    1.2665   -0.8653    3.7597 C   0  0  0  0  0
    0.8628   -1.2444    5.0090 O   0  0  0  0  0
    1.8688   -1.8502    5.8154 C   0  0  0  0  0
    2.2307   -2.7809    5.3656 H   0  0  0  0  0
    2.6946   -1.1569    6.0036 H   0  0  0  0  0
    1.4169   -2.0993    6.7786 H   0  0  0  0  0
    2.5523   -1.0311    3.2458 C   0  0  0  0  0
    2.8583   -0.6056    1.9464 C   0  0  0  0  0
    3.8747   -0.7639    1.5902 H   0  0  0  0  0
    3.3481   -1.4896    3.8254 H   0  0  0  0  0
   -0.1864    0.6173    1.0553 H   0  0  0  0  0
    0.1780    0.7086   -3.2464 C   0  0  0  0  0
    0.2599    1.0775   -4.5897 C   0  0  0  0  0
   -0.7646    1.0713   -5.4804 O   0  0  0  0  0
   -1.7484    0.0516   -5.2912 C   0  0  1  0  0
   -2.8327    0.4787   -4.4549 O   0  0  0  0  0
   -3.5603    1.5921   -4.9902 C   0  0  1  0  0
   -4.1752    1.2390   -6.3495 C   0  0  1  0  0
   -4.7835    2.4029   -6.9035 O   0  0  0  0  0
   -5.1425    2.1581   -7.7737 H   0  0  0  0  0
   -3.1092    0.7156   -7.3150 C   0  0  2  0  0
   -3.7443    0.2037   -8.4872 O   0  0  0  0  0
   -4.3279   -0.5266   -8.2195 H   0  0  0  0  0
   -2.2971   -0.3949   -6.6513 C   0  0  1  0  0
   -1.2280   -0.7970   -7.5013 O   0  0  0  0  0
   -0.6350   -0.0344   -7.6110 H   0  0  0  0  0
   -2.9418   -1.2715   -6.5120 H   0  0  0  0  0
   -2.4588    1.5298   -7.6553 H   0  0  0  0  0
   -4.9600    0.4809   -6.2338 H   0  0  0  0  0
   -4.5995    2.0009   -3.9600 C   0  0  0  0  0
   -5.4801    0.9108   -3.7091 O   0  0  0  0  0
   -4.9373    0.1611   -3.4112 H   0  0  0  0  0
   -4.1373    2.2847   -3.0087 H   0  0  0  0  0
   -5.2045    2.8376   -4.3230 H   0  0  0  0  0
   -2.8763    2.4437   -5.1008 H   0  0  0  0  0
   -1.2798   -0.8223   -4.8175 H   0  0  0  0  0
    1.4919    1.5422   -5.0903 C   0  0  0  0  0
    2.6149    1.6167   -4.2605 C   0  0  0  0  0
    3.7950    2.0776   -4.7749 O   0  0  0  0  0
    3.6642    2.3017   -5.7122 H   0  0  0  0  0
    1.5632    1.8495   -6.1313 H   0  0  0  0  0
   -0.7461    0.3188   -2.8275 H   0  0  0  0  0
  1  2  2  0  0  0
  2  3  1  0  0  0
  2  7  1  0  0  0
  3  4  2  0  0  0
  3 51  1  0  0  0
  4  5  1  0  0  0
  4 25  1  0  0  0
  5  6  1  0  0  0
  6  7  2  0  0  0
  6  9  1  0  0  0
  7  8  1  0  0  0
  9 10  2  0  0  0
  9 21  1  0  0  0
 10 11  1  0  0  0
 10 24  1  0  0  0
 11 12  1  0  0  0
 11 14  2  0  0  0
 12 13  1  0  0  0
 14 15  1  0  0  0
 14 20  1  0  0  0
 15 16  1  0  0  0
 16 17  1  0  0  0
 16 18  1  0  0  0
 16 19  1  0  0  0
 20 21  2  0  0  0
 20 23  1  0  0  0
 21 22  1  0  0  0
 25 26  2  0  0  0
 25 55  1  0  0  0
 26 27  1  0  0  0
 26 50  1  0  0  0
 27 28  1  0  0  0
 28 29  1  0  0  0
 28 37  1  0  0  0
 28 49  1  0  0  0
 29 30  1  0  0  0
 30 31  1  0  0  0
 30 43  1  0  0  0
 30 48  1  0  0  0
 31 32  1  0  0  0
 31 34  1  0  0  0
 31 42  1  0  0  0
 32 33  1  0  0  0
 34 35  1  0  0  0
 34 37  1  0  0  0
 34 41  1  0  0  0
 35 36  1  0  0  0
 37 38  1  0  0  0
 37 40  1  0  0  0
 38 39  1  0  0  0
 43 44  1  0  0  0
 43 46  1  0  0  0
 43 47  1  0  0  0
 44 45  1  0  0  0
 50 51  2  0  0  0
 50 54  1  0  0  0
 51 52  1  0  0  0
 52 53  1  0  0  0
M  END
> <Tumorigenic>
none

> <Score>
36.76918

> <Active/Decoy>
active

> <InChI>
InChI=1S/C22H22O11/c1-30-14-3-2-9(4-11(14)24)15-7-13(26)18-12(25)5-10(6-16(18)32-15)31-22-21(29)20(28)19(27)17(8-23)33-22/h2-7,17,19-25,27-29H,8H2,1H3/t17-,19-,20+,21-,22+/m1/s1

> <Matching Features>
H:14924486185440016873||HBA:14924321692640012300|HBA:14924486112070016868

> <Mol. Index>
987

> <Pharmacophore Match>
Model -1

> <# Confs.>
25

> <Source Database>
Pharm-Screening-input-NANPDB_After_DataWarror.ldb

> <Pharmacophore-Fit Score>
36.77

> <formula>
C22H22O11

> <Mutagenic>
none

> <Reproductive Effective>
none

> <Irritant>
none

$$$$
2-({2-[(5S,7S,10S)-7-hydroxy-10-methyl-6-methylidenespiro[4.5]decan-2-yl]propan-2-yl}oxy)-6-methyloxane-3,4,5-triol
XX    ILIB03122402113D

 63 65  0  0  1  0              1 V2000
    2.2135   -1.6453   -0.2107 O   0  0  0  0  0
    1.5848   -0.7871   -1.1694 C   0  0  2  0  0
    0.7907   -1.5219   -2.1013 O   0  0  0  0  0
   -0.2534   -2.2708   -1.5003 C   0  0  0  0  0
   -1.2565   -1.3800   -0.7300 C   0  0  1  0  0
   -1.9649   -0.3203   -1.5748 C   0  0  0  0  0
   -3.2813    0.0475   -0.8147 C   0  0  2  0  0
   -4.4568   -0.0778   -1.8248 C   0  0  0  0  0
   -5.3603   -1.0765   -1.8269 C   0  0  0  0  0
   -6.1569   -1.1279   -2.5605 H   0  0  0  0  0
   -5.3414   -1.8960   -1.1210 H   0  0  0  0  0
   -4.5084    1.0234   -2.8767 C   0  0  1  0  0
   -5.6388    0.9015   -3.7380 O   0  0  0  0  0
   -5.5802    1.6088   -4.4028 H   0  0  0  0  0
   -4.5560    2.3949   -2.2173 C   0  0  0  0  0
   -3.3627    2.6000   -1.3005 C   0  0  0  0  0
   -3.2662    1.5060   -0.2190 C   0  0  2  0  0
   -2.0520    1.8407    0.6671 C   0  0  0  0  0
   -1.9624    1.1795    1.5315 H   0  0  0  0  0
   -1.1122    1.7953    0.1082 H   0  0  0  0  0
   -2.1436    2.8588    1.0638 H   0  0  0  0  0
   -4.1583    1.6030    0.4172 H   0  0  0  0  0
   -3.4496    3.5844   -0.8256 H   0  0  0  0  0
   -2.4443    2.6243   -1.8993 H   0  0  0  0  0
   -5.4914    2.5127   -1.6550 H   0  0  0  0  0
   -4.5720    3.1785   -2.9847 H   0  0  0  0  0
   -3.6192    0.9448   -3.5131 H   0  0  0  0  0
   -3.3317   -0.9933    0.3514 C   0  0  0  0  0
   -2.4144   -2.1311   -0.0744 C   0  0  0  0  0
   -2.9258   -2.7883   -0.7860 H   0  0  0  0  0
   -2.0940   -2.7332    0.7809 H   0  0  0  0  0
   -4.3344   -1.3421    0.6088 H   0  0  0  0  0
   -2.9386   -0.5816    1.2846 H   0  0  0  0  0
   -2.1883   -0.7395   -2.5634 H   0  0  0  0  0
   -1.3148    0.5419   -1.7498 H   0  0  0  0  0
   -0.7019   -0.8706    0.0811 H   0  0  0  0  0
   -0.9799   -2.9548   -2.6720 C   0  0  0  0  0
   -0.2873   -3.6003   -3.2340 H   0  0  0  0  0
   -1.8304   -3.5557   -2.3344 H   0  0  0  0  0
   -1.3416   -2.2133   -3.3930 H   0  0  0  0  0
    0.3224   -3.3929   -0.5965 C   0  0  0  0  0
    0.8726   -2.9890    0.2588 H   0  0  0  0  0
    1.0361   -4.0106   -1.1544 H   0  0  0  0  0
   -0.4698   -4.0434   -0.2104 H   0  0  0  0  0
    2.6412   -0.0141   -1.9644 C   0  0  2  0  0
    3.4329   -0.9328   -2.7203 O   0  0  0  0  0
    2.8256   -1.4510   -3.2756 H   0  0  0  0  0
    3.5396    0.7635   -1.0041 C   0  0  2  0  0
    4.5731    1.4368   -1.7166 O   0  0  0  0  0
    5.0188    0.7834   -2.2820 H   0  0  0  0  0
    4.1293   -0.1380    0.0840 C   0  0  2  0  0
    5.0804   -1.0413   -0.4839 O   0  0  0  0  0
    5.8158   -0.5084   -0.8336 H   0  0  0  0  0
    3.0426   -0.9853    0.7590 C   0  0  1  0  0
    2.1983   -0.1980    1.7589 C   0  0  0  0  0
    1.4104   -0.8348    2.1744 H   0  0  0  0  0
    1.7026    0.6604    1.2989 H   0  0  0  0  0
    2.8169    0.1720    2.5814 H   0  0  0  0  0
    3.5304   -1.7967    1.3135 H   0  0  0  0  0
    4.6751    0.4589    0.8241 H   0  0  0  0  0
    2.9399    1.5445   -0.5244 H   0  0  0  0  0
    2.1753    0.6609   -2.6911 H   0  0  0  0  0
    0.9220   -0.0805   -0.6557 H   0  0  0  0  0
  1  2  1  0  0  0
  1 54  1  0  0  0
  2  3  1  0  0  0
  2 45  1  0  0  0
  2 63  1  0  0  0
  3  4  1  0  0  0
  4  5  1  0  0  0
  4 37  1  0  0  0
  4 41  1  0  0  0
  5  6  1  0  0  0
  5 29  1  0  0  0
  5 36  1  0  0  0
  6  7  1  0  0  0
  6 34  1  0  0  0
  6 35  1  0  0  0
  7  8  1  0  0  0
  7 17  1  0  0  0
  7 28  1  0  0  0
  8  9  2  0  0  0
  8 12  1  0  0  0
  9 10  1  0  0  0
  9 11  1  0  0  0
 12 13  1  0  0  0
 12 15  1  0  0  0
 12 27  1  0  0  0
 13 14  1  0  0  0
 15 16  1  0  0  0
 15 25  1  0  0  0
 15 26  1  0  0  0
 16 17  1  0  0  0
 16 23  1  0  0  0
 16 24  1  0  0  0
 17 18  1  0  0  0
 17 22  1  0  0  0
 18 19  1  0  0  0
 18 20  1  0  0  0
 18 21  1  0  0  0
 28 29  1  0  0  0
 28 32  1  0  0  0
 28 33  1  0  0  0
 29 30  1  0  0  0
 29 31  1  0  0  0
 37 38  1  0  0  0
 37 39  1  0  0  0
 37 40  1  0  0  0
 41 42  1  0  0  0
 41 43  1  0  0  0
 41 44  1  0  0  0
 45 46  1  0  0  0
 45 48  1  0  0  0
 45 62  1  0  0  0
 46 47  1  0  0  0
 48 49  1  0  0  0
 48 51  1  0  0  0
 48 61  1  0  0  0
 49 50  1  0  0  0
 51 52  1  0  0  0
 51 54  1  0  0  0
 51 60  1  0  0  0
 52 53  1  0  0  0
 54 55  1  0  0  0
 54 59  1  0  0  0
 55 56  1  0  0  0
 55 57  1  0  0  0
 55 58  1  0  0  0
M  END
> <Tumorigenic>
none

> <Score>
36.763535

> <Active/Decoy>
active

> <InChI>
InChI=1S/C21H36O6/c1-11-6-7-15(22)12(2)21(11)9-8-14(10-21)20(4,5)27-19-18(25)17(24)16(23)13(3)26-19/h11,13-19,22-25H,2,6-10H2,1,3-5H3/t11-,13+,14+,15-,16+,17+,18+,19+,21-/m0/s1

> <Matching Features>
H:14924486185440016873||HBA:14924321692640012300|HBA:14924486112070016868

> <Mol. Index>
1109

> <Pharmacophore Match>
Model -1

> <# Confs.>
12

> <Source Database>
Pharm-Screening-input-NANPDB_After_DataWarror.ldb

> <Pharmacophore-Fit Score>
36.76

> <formula>
C21H36O6

> <Mutagenic>
none

> <Reproductive Effective>
none

> <Irritant>
none

$$$$
isosamarcandin
XX    ILIB03122402113D

 61 64  0  0  1  0              1 V2000
   -5.9009    0.8949   -3.8084 O   0  0  0  0  0
   -4.9267    0.1578   -3.7031 C   0  0  0  0  0
   -4.1703    0.0991   -2.5373 O   0  0  0  0  0
   -3.0554   -0.7572   -2.4212 C   0  0  0  0  0
   -2.6717   -1.5644   -3.4880 C   0  0  0  0  0
   -1.5362   -2.3617   -3.3493 C   0  0  0  0  0
   -0.8348   -2.3757   -2.1386 C   0  0  0  0  0
   -1.2165   -1.5408   -1.0792 C   0  0  0  0  0
   -2.3521   -0.7403   -1.2145 C   0  0  0  0  0
   -2.6957   -0.0886   -0.4177 H   0  0  0  0  0
   -0.4289   -1.6290    0.0411 O   0  0  0  0  0
   -0.8264   -0.8090    1.1327 C   0  0  0  0  0
   -0.1365    0.5408    1.0679 C   0  0  1  0  0
   -0.5430    1.4498    2.2730 C   0  0  2  0  0
   -1.9814    1.6466    2.1698 O   0  0  0  0  0
   -2.2513    2.2613    2.8733 H   0  0  0  0  0
    0.0711    2.8507    2.1447 C   0  0  0  0  0
    1.5698    2.8449    1.8634 C   0  0  0  0  0
    1.8933    2.0184    0.6018 C   0  0  1  0  0
    3.3456    2.2397    0.0354 C   0  0  0  0  0
    3.4969    1.4189   -1.2772 C   0  0  1  0  0
    4.8389    1.4866   -1.7577 O   0  0  0  0  0
    4.8770    0.9968   -2.5971 H   0  0  0  0  0
    3.1041   -0.0452   -1.1322 C   0  0  0  0  0
    1.6904   -0.2160   -0.5827 C   0  0  0  0  0
    1.4246    0.5182    0.7627 C   0  0  2  0  0
    2.1948   -0.2415    1.8703 C   0  0  0  0  0
    1.6369   -1.1014    2.2469 H   0  0  0  0  0
    3.1390   -0.6586    1.5149 H   0  0  0  0  0
    2.4435    0.3857    2.7259 H   0  0  0  0  0
    0.9869    0.1478   -1.3424 H   0  0  0  0  0
    1.5091   -1.2908   -0.4706 H   0  0  0  0  0
    3.1638   -0.5318   -2.1145 H   0  0  0  0  0
    3.8388   -0.5799   -0.5195 H   0  0  0  0  0
    2.8616    1.8680   -2.0515 H   0  0  0  0  0
    3.5410    3.7364   -0.3396 C   0  0  0  0  0
    2.7251    4.0958   -0.9761 H   0  0  0  0  0
    3.5869    4.3779    0.5459 H   0  0  0  0  0
    4.4767    3.8939   -0.8873 H   0  0  0  0  0
    4.4669    1.9093    1.0417 C   0  0  0  0  0
    4.3045    2.4039    2.0042 H   0  0  0  0  0
    4.5728    0.8404    1.2250 H   0  0  0  0  0
    5.4405    2.2514    0.6735 H   0  0  0  0  0
    1.2397    2.4342   -0.1837 H   0  0  0  0  0
    2.1135    2.4803    2.7395 H   0  0  0  0  0
    1.8719    3.8870    1.7323 H   0  0  0  0  0
   -0.4343    3.4010    1.3382 H   0  0  0  0  0
   -0.1297    3.4365    3.0507 H   0  0  0  0  0
   -0.3082    0.8550    3.6549 C   0  0  0  0  0
    0.7468    0.7581    3.9045 H   0  0  0  0  0
   -0.7643    1.4846    4.4293 H   0  0  0  0  0
   -0.7842   -0.1247    3.7599 H   0  0  0  0  0
   -0.5948    1.0157    0.1747 H   0  0  0  0  0
   -1.9166   -0.6997    1.1819 H   0  0  0  0  0
   -0.5122   -1.3358    2.0544 H   0  0  0  0  0
    0.0528   -2.9984   -2.0508 H   0  0  0  0  0
   -1.2047   -3.0055   -4.1602 H   0  0  0  0  0
   -3.4348   -1.5063   -4.7215 C   0  0  0  0  0
   -4.5014   -0.7109   -4.8158 C   0  0  0  0  0
   -5.0873   -0.6751   -5.7294 H   0  0  0  0  0
   -3.1510   -2.1522   -5.5474 H   0  0  0  0  0
  1  2  2  0  0  0
  2  3  1  0  0  0
  2 59  1  0  0  0
  3  4  1  0  0  0
  4  5  2  0  0  0
  4  9  1  0  0  0
  5  6  1  0  0  0
  5 58  1  0  0  0
  6  7  2  0  0  0
  6 57  1  0  0  0
  7  8  1  0  0  0
  7 56  1  0  0  0
  8  9  2  0  0  0
  8 11  1  0  0  0
  9 10  1  0  0  0
 11 12  1  0  0  0
 12 13  1  0  0  0
 12 54  1  0  0  0
 12 55  1  0  0  0
 13 14  1  0  0  0
 13 26  1  0  0  0
 13 53  1  0  0  0
 14 15  1  0  0  0
 14 17  1  0  0  0
 14 49  1  0  0  0
 15 16  1  0  0  0
 17 18  1  0  0  0
 17 47  1  0  0  0
 17 48  1  0  0  0
 18 19  1  0  0  0
 18 45  1  0  0  0
 18 46  1  0  0  0
 19 20  1  0  0  0
 19 26  1  0  0  0
 19 44  1  0  0  0
 20 21  1  0  0  0
 20 36  1  0  0  0
 20 40  1  0  0  0
 21 22  1  0  0  0
 21 24  1  0  0  0
 21 35  1  0  0  0
 22 23  1  0  0  0
 24 25  1  0  0  0
 24 33  1  0  0  0
 24 34  1  0  0  0
 25 26  1  0  0  0
 25 31  1  0  0  0
 25 32  1  0  0  0
 26 27  1  0  0  0
 27 28  1  0  0  0
 27 29  1  0  0  0
 27 30  1  0  0  0
 36 37  1  0  0  0
 36 38  1  0  0  0
 36 39  1  0  0  0
 40 41  1  0  0  0
 40 42  1  0  0  0
 40 43  1  0  0  0
 49 50  1  0  0  0
 49 51  1  0  0  0
 49 52  1  0  0  0
 58 59  2  0  0  0
 58 61  1  0  0  0
 59 60  1  0  0  0
M  END
> <Tumorigenic>
none

> <Score>
36.75007

> <Active/Decoy>
active

> <InChI>
InChI=1S/C24H32O5/c1-22(2)18-9-12-24(4,27)19(23(18,3)11-10-20(22)25)14-28-16-7-5-15-6-8-21(26)29-17(15)13-16/h5-8,13,18-20,25,27H,9-12,14H2,1-4H3/t18-,19+,20-,23-,24+/m0/s1

> <Matching Features>
H:14924486185440016873||HBA:14924321692640012300|HBA:14924486112070016868

> <Mol. Index>
890

> <Pharmacophore Match>
Model -1

> <# Confs.>
25

> <Source Database>
Pharm-Screening-input-NANPDB_After_DataWarror.ldb

> <Pharmacophore-Fit Score>
36.75

> <formula>
C24H32O5

> <Mutagenic>
none

> <Reproductive Effective>
none

> <Irritant>
none

$$$$
luteolin 3?,4?-dimethylether-7-O-beta-D-glucoside
XX    ILIB03122402113D

 58 61  0  0  1  0              1 V2000
    4.7900    1.7042   -2.3424 O   0  0  0  0  0
    3.6833    1.3100   -2.0008 C   0  0  0  0  0
    2.5315    1.2542   -2.9236 C   0  0  0  0  0
    1.3155    0.7834   -2.4286 C   0  0  0  0  0
    1.1395    0.3829   -1.1271 O   0  0  0  0  0
    2.2079    0.4355   -0.2510 C   0  0  0  0  0
    3.4360    0.8745   -0.6111 C   0  0  0  0  0
    4.2789    0.9178    0.0692 H   0  0  0  0  0
    1.8926   -0.0168    1.1093 C   0  0  0  0  0
    0.6139    0.1289    1.6423 C   0  0  0  0  0
    0.3072   -0.2901    2.9482 C   0  0  0  0  0
   -0.9254   -0.1772    3.5250 O   0  0  0  0  0
   -1.9309    0.4145    2.7049 C   0  0  0  0  0
   -1.6695    1.4452    2.4420 H   0  0  0  0  0
   -2.1131   -0.1870    1.8083 H   0  0  0  0  0
   -2.8594    0.4409    3.2833 H   0  0  0  0  0
    1.3136   -0.8698    3.7482 C   0  0  0  0  0
    0.9277   -1.2516    5.0032 O   0  0  0  0  0
    1.9554   -1.8388    5.7961 C   0  0  0  0  0
    2.3241   -2.7654    5.3434 H   0  0  0  0  0
    2.7742   -1.1325    5.9704 H   0  0  0  0  0
    1.5214   -2.0919    6.7692 H   0  0  0  0  0
    2.5932   -1.0265    3.2277 C   0  0  0  0  0
    2.8877   -0.6054    1.9270 C   0  0  0  0  0
    3.9067   -0.7419    1.5706 H   0  0  0  0  0
    3.3974   -1.4707    3.8066 H   0  0  0  0  0
   -0.1599    0.5733    1.0214 H   0  0  0  0  0
    0.1882    0.7087   -3.2548 C   0  0  0  0  0
    0.2724    1.1112   -4.5905 C   0  0  0  0  0
   -0.7534    1.0877   -5.4917 O   0  0  0  0  0
   -1.7432    0.0744   -5.2983 C   0  0  1  0  0
   -2.8275    0.4911   -4.4565 O   0  0  0  0  0
   -3.5595    1.6068   -4.9817 C   0  0  1  0  0
   -4.1755    1.2631   -6.3432 C   0  0  1  0  0
   -4.7863    2.4298   -6.8848 O   0  0  0  0  0
   -5.1474    2.1914   -7.7576 H   0  0  0  0  0
   -3.1093    0.7510   -7.3143 C   0  0  2  0  0
   -3.7463    0.2463   -8.4898 O   0  0  0  0  0
   -4.3244   -0.4871   -8.2266 H   0  0  0  0  0
   -2.2933   -0.3629   -6.6600 C   0  0  1  0  0
   -1.2242   -0.7534   -7.5165 O   0  0  0  0  0
   -0.6324    0.0115   -7.6209 H   0  0  0  0  0
   -2.9352   -1.2428   -6.5273 H   0  0  0  0  0
   -2.4628    1.5700   -7.6493 H   0  0  0  0  0
   -4.9581    0.5017   -6.2327 H   0  0  0  0  0
   -4.5972    2.0038   -3.9464 C   0  0  0  0  0
   -5.4741    0.9089   -3.7022 O   0  0  0  0  0
   -4.9288    0.1585   -3.4116 H   0  0  0  0  0
   -4.1347    2.2812   -2.9934 H   0  0  0  0  0
   -5.2050    2.8412   -4.3008 H   0  0  0  0  0
   -2.8774    2.4613   -5.0863 H   0  0  0  0  0
   -1.2701   -0.8017   -4.8326 H   0  0  0  0  0
    1.4908    1.5833   -5.0881 C   0  0  0  0  0
    2.6148    1.6542   -4.2593 C   0  0  0  0  0
    3.7935    2.1205   -4.7732 O   0  0  0  0  0
    3.6619    2.3446   -5.7099 H   0  0  0  0  0
    1.5596    1.8979   -6.1281 H   0  0  0  0  0
   -0.7395    0.3352   -2.8314 H   0  0  0  0  0
  1  2  2  0  0  0
  2  3  1  0  0  0
  2  7  1  0  0  0
  3  4  2  0  0  0
  3 54  1  0  0  0
  4  5  1  0  0  0
  4 28  1  0  0  0
  5  6  1  0  0  0
  6  7  2  0  0  0
  6  9  1  0  0  0
  7  8  1  0  0  0
  9 10  2  0  0  0
  9 24  1  0  0  0
 10 11  1  0  0  0
 10 27  1  0  0  0
 11 12  1  0  0  0
 11 17  2  0  0  0
 12 13  1  0  0  0
 13 14  1  0  0  0
 13 15  1  0  0  0
 13 16  1  0  0  0
 17 18  1  0  0  0
 17 23  1  0  0  0
 18 19  1  0  0  0
 19 20  1  0  0  0
 19 21  1  0  0  0
 19 22  1  0  0  0
 23 24  2  0  0  0
 23 26  1  0  0  0
 24 25  1  0  0  0
 28 29  2  0  0  0
 28 58  1  0  0  0
 29 30  1  0  0  0
 29 53  1  0  0  0
 30 31  1  0  0  0
 31 32  1  0  0  0
 31 40  1  0  0  0
 31 52  1  0  0  0
 32 33  1  0  0  0
 33 34  1  0  0  0
 33 46  1  0  0  0
 33 51  1  0  0  0
 34 35  1  0  0  0
 34 37  1  0  0  0
 34 45  1  0  0  0
 35 36  1  0  0  0
 37 38  1  0  0  0
 37 40  1  0  0  0
 37 44  1  0  0  0
 38 39  1  0  0  0
 40 41  1  0  0  0
 40 43  1  0  0  0
 41 42  1  0  0  0
 46 47  1  0  0  0
 46 49  1  0  0  0
 46 50  1  0  0  0
 47 48  1  0  0  0
 53 54  2  0  0  0
 53 57  1  0  0  0
 54 55  1  0  0  0
 55 56  1  0  0  0
M  END
> <Tumorigenic>
none

> <Score>
36.735847

> <Active/Decoy>
active

> <InChI>
InChI=1S/C23H24O11/c1-30-14-4-3-10(5-16(14)31-2)15-8-13(26)19-12(25)6-11(7-17(19)33-15)32-23-22(29)21(28)20(27)18(9-24)34-23/h3-8,18,20-25,27-29H,9H2,1-2H3/t18-,20-,21+,22-,23+/m1/s1

> <Matching Features>
H:14924486185440016873||HBA:14924321692640012300|HBA:14924486112070016868

> <Mol. Index>
1351

> <Pharmacophore Match>
Model -1

> <# Confs.>
25

> <Source Database>
Pharm-Screening-input-NANPDB_After_DataWarror.ldb

> <Pharmacophore-Fit Score>
36.74

> <formula>
C23H24O11

> <Mutagenic>
none

> <Reproductive Effective>
none

> <Irritant>
none

$$$$
3beta,6alpha,23epsilon-trihydroxy-6alpha-cholest-9(11)-ene
XX    ILIB03122402113D

 79 82  0  0  1  0              1 V2000
    4.4171    1.4244   -1.7366 O   0  0  0  0  0
    3.4577    1.2679   -0.6903 C   0  0  2  0  0
    2.9430   -0.1837   -0.6804 C   0  0  2  0  0
    1.8116   -0.4199    0.3760 C   0  0  1  0  0
    0.6943    0.6126    0.0962 C   0  0  0  0  0
   -0.5998    0.2902   -0.1035 C   0  0  0  0  0
   -1.6902    1.2633   -0.4738 C   0  0  0  0  0
   -1.1671    2.5852   -1.0959 C   0  0  2  0  0
   -0.0361    3.0656   -0.1231 C   0  0  1  0  0
    1.1507    2.0733    0.0451 C   0  0  2  0  0
    2.3192    2.2645   -0.9324 C   0  0  0  0  0
    1.9941    2.1846   -1.9742 H   0  0  0  0  0
    2.7309    3.2769   -0.8400 H   0  0  0  0  0
    1.5583    2.3107    1.0373 H   0  0  0  0  0
    0.3749    4.5153   -0.3869 C   0  0  0  0  0
   -0.7984    5.4723   -0.1749 C   0  0  0  0  0
   -2.1668    4.7873   -0.1628 C   0  0  0  0  0
   -2.2848    3.7172   -1.2676 C   0  0  2  0  0
   -3.7321    3.2012   -1.3739 C   0  0  2  0  0
   -4.0011    2.2684   -2.5680 C   0  0  0  0  0
   -5.4555    1.7933   -2.6419 C   0  0  1  0  0
   -5.5872    0.9282   -3.7904 O   0  0  0  0  0
   -5.1096    0.1123   -3.6154 H   0  0  0  0  0
   -6.0466    1.0611   -1.4339 C   0  0  0  0  0
   -7.5235    0.7074   -1.5932 C   0  0  0  0  0
   -8.0533   -0.0180   -0.3535 C   0  0  0  0  0
   -7.5670   -0.9887   -0.2124 H   0  0  0  0  0
   -9.1312   -0.1955   -0.4427 H   0  0  0  0  0
   -7.8886    0.5808    0.5473 H   0  0  0  0  0
   -7.8102   -0.1303   -2.8430 C   0  0  0  0  0
   -7.4897    0.3867   -3.7520 H   0  0  0  0  0
   -7.3036   -1.1001   -2.8041 H   0  0  0  0  0
   -8.8851   -0.3221   -2.9374 H   0  0  0  0  0
   -8.0845    1.6463   -1.6876 H   0  0  0  0  0
   -5.9068    1.6765   -0.5367 H   0  0  0  0  0
   -5.4663    0.1403   -1.2887 H   0  0  0  0  0
   -6.0920    2.6610   -2.8786 H   0  0  0  0  0
   -3.3211    1.4194   -2.5113 H   0  0  0  0  0
   -3.7436    2.8346   -3.4792 H   0  0  0  0  0
   -4.6767    4.4165   -1.4374 C   0  0  0  0  0
   -4.4847    5.0350   -2.3199 H   0  0  0  0  0
   -5.7225    4.0931   -1.4702 H   0  0  0  0  0
   -4.5544    5.0479   -0.5505 H   0  0  0  0  0
   -3.9764    2.6559   -0.4596 H   0  0  0  0  0
   -2.0694    4.2451   -2.2022 H   0  0  0  0  0
   -2.3547    4.3354    0.8197 H   0  0  0  0  0
   -2.9260    5.5679   -0.2846 H   0  0  0  0  0
   -0.6690    6.0078    0.7738 H   0  0  0  0  0
   -0.7756    6.2385   -0.9594 H   0  0  0  0  0
    1.1932    4.8106    0.2794 H   0  0  0  0  0
    0.7517    4.6276   -1.4094 H   0  0  0  0  0
   -0.4901    3.0796    0.8823 H   0  0  0  0  0
   -0.6285    2.2787   -2.5197 C   0  0  0  0  0
   -1.4416    2.0336   -3.2088 H   0  0  0  0  0
    0.0486    1.4213   -2.5454 H   0  0  0  0  0
   -0.0964    3.1295   -2.9353 H   0  0  0  0  0
   -2.3534    0.7512   -1.1790 H   0  0  0  0  0
   -2.2757    1.4659    0.4312 H   0  0  0  0  0
   -0.9322   -0.7392   -0.0294 H   0  0  0  0  0
    1.3415   -1.9009    0.2353 C   0  0  0  0  0
    2.4719   -2.9258    0.3412 C   0  0  0  0  0
    3.5985   -2.6330   -0.6411 C   0  0  2  0  0
    4.6708   -3.5329   -0.3819 O   0  0  0  0  0
    5.3742   -3.3431   -1.0261 H   0  0  0  0  0
    4.0976   -1.1928   -0.5347 C   0  0  0  0  0
    4.8500   -1.0323   -1.3156 H   0  0  0  0  0
    4.6307   -1.0449    0.4109 H   0  0  0  0  0
    3.2459   -2.8260   -1.6608 H   0  0  0  0  0
    2.0750   -3.9301    0.1472 H   0  0  0  0  0
    2.8626   -2.9713    1.3639 H   0  0  0  0  0
    0.5919   -2.1381    1.0011 H   0  0  0  0  0
    0.8568   -2.0431   -0.7392 H   0  0  0  0  0
    2.3029   -0.2145    1.8327 C   0  0  0  0  0
    2.7119    0.7842    2.0104 H   0  0  0  0  0
    3.0915   -0.9171    2.1138 H   0  0  0  0  0
    1.4762   -0.3555    2.5400 H   0  0  0  0  0
    2.5140   -0.3681   -1.6777 H   0  0  0  0  0
    3.9695    1.4989    0.2506 H   0  0  0  0  0
    4.7235    2.3453   -1.7173 H   0  0  0  0  0
  1  2  1  0  0  0
  1 79  1  0  0  0
  2  3  1  0  0  0
  2 11  1  0  0  0
  2 78  1  0  0  0
  3  4  1  0  0  0
  3 65  1  0  0  0
  3 77  1  0  0  0
  4  5  1  0  0  0
  4 60  1  0  0  0
  4 73  1  0  0  0
  5  6  2  0  0  0
  5 10  1  0  0  0
  6  7  1  0  0  0
  6 59  1  0  0  0
  7  8  1  0  0  0
  7 57  1  0  0  0
  7 58  1  0  0  0
  8  9  1  0  0  0
  8 18  1  0  0  0
  8 53  1  0  0  0
  9 10  1  0  0  0
  9 15  1  0  0  0
  9 52  1  0  0  0
 10 11  1  0  0  0
 10 14  1  0  0  0
 11 12  1  0  0  0
 11 13  1  0  0  0
 15 16  1  0  0  0
 15 50  1  0  0  0
 15 51  1  0  0  0
 16 17  1  0  0  0
 16 48  1  0  0  0
 16 49  1  0  0  0
 17 18  1  0  0  0
 17 46  1  0  0  0
 17 47  1  0  0  0
 18 19  1  0  0  0
 18 45  1  0  0  0
 19 20  1  0  0  0
 19 40  1  0  0  0
 19 44  1  0  0  0
 20 21  1  0  0  0
 20 38  1  0  0  0
 20 39  1  0  0  0
 21 22  1  0  0  0
 21 24  1  0  0  0
 21 37  1  0  0  0
 22 23  1  0  0  0
 24 25  1  0  0  0
 24 35  1  0  0  0
 24 36  1  0  0  0
 25 26  1  0  0  0
 25 30  1  0  0  0
 25 34  1  0  0  0
 26 27  1  0  0  0
 26 28  1  0  0  0
 26 29  1  0  0  0
 30 31  1  0  0  0
 30 32  1  0  0  0
 30 33  1  0  0  0
 40 41  1  0  0  0
 40 42  1  0  0  0
 40 43  1  0  0  0
 53 54  1  0  0  0
 53 55  1  0  0  0
 53 56  1  0  0  0
 60 61  1  0  0  0
 60 71  1  0  0  0
 60 72  1  0  0  0
 61 62  1  0  0  0
 61 69  1  0  0  0
 61 70  1  0  0  0
 62 63  1  0  0  0
 62 65  1  0  0  0
 62 68  1  0  0  0
 63 64  1  0  0  0
 65 66  1  0  0  0
 65 67  1  0  0  0
 73 74  1  0  0  0
 73 75  1  0  0  0
 73 76  1  0  0  0
M  END
> <Tumorigenic>
none

> <Score>
36.686573

> <Active/Decoy>
active

> <InChI>
InChI=1S/C28H48O3/c1-17(2)13-20(30)14-18(3)22-7-6-8-23-21-16-26(31)25-15-19(29)9-11-28(25,5)24(21)10-12-27(22,23)4/h10,17-23,25-26,29-31H,6-9,11-16H2,1-5H3/t18-,19-,20-,21-,22+,23+,25+,26-,27-,28+/m0/s1

> <Matching Features>
H:14924486185440016873||HBA:14924321692640012300|HBA:14924486112070016868

> <Mol. Index>
615

> <Pharmacophore Match>
Model -1

> <# Confs.>
9

> <Source Database>
Pharm-Screening-input-NANPDB_After_DataWarror.ldb

> <Pharmacophore-Fit Score>
36.69

> <formula>
C28H48O3

> <Mutagenic>
none

> <Reproductive Effective>
none

> <Irritant>
none

$$$$
(1R*,2R*,3E,7R*,8S*,9R*,11R*,12S*)-2-O-acetyl-16-O-(3-hydroxy-3-methylgiutaryl)-8,9-epoxydolabeli-3-en-2,7,16,18-tetrol
XX    ILIB03122402113D

 82 84  0  0  1  0              1 V2000
   -3.2728    1.8406   -3.4747 O   0  0  0  0  0
   -3.0020    0.6709   -3.6788 C   0  0  0  0  0
   -1.8718    0.0309   -3.2963 O   0  0  0  0  0
   -0.8972    0.7857   -2.5627 C   0  0  0  0  0
    0.2748   -0.0897   -2.2497 C   0  0  0  0  0
    0.6828   -0.3652   -0.9886 C   0  0  0  0  0
    0.1430    0.2000    0.3007 C   0  0  1  0  0
   -0.4691   -0.8977    0.9986 O   0  0  0  0  0
   -1.8140   -0.8341    1.2021 C   0  0  0  0  0
   -2.5593    0.0698    0.8471 O   0  0  0  0  0
   -2.2757   -2.0681    1.9136 C   0  0  0  0  0
   -3.2764   -1.8980    2.3221 H   0  0  0  0  0
   -2.3104   -2.9063    1.2155 H   0  0  0  0  0
   -1.6069   -2.2920    2.7501 H   0  0  0  0  0
    1.2177    0.8493    1.2500 C   0  0  1  0  0
    1.9301    2.1400    0.7064 C   0  0  2  0  0
    0.8061    3.2214    0.7743 C   0  0  2  0  0
    1.2540    4.6988    0.8217 C   0  0  0  0  0
    2.0116    5.0019   -0.3547 O   0  0  0  0  0
    1.4171    4.9495   -1.1227 H   0  0  0  0  0
    0.0665    5.6690    0.8832 C   0  0  0  0  0
    0.4153    6.7082    0.8594 H   0  0  0  0  0
   -0.5295    5.5281    1.7906 H   0  0  0  0  0
   -0.5890    5.5503    0.0145 H   0  0  0  0  0
    2.1777    4.9659    2.0169 C   0  0  0  0  0
    1.6812    4.7579    2.9699 H   0  0  0  0  0
    2.5104    6.0099    2.0235 H   0  0  0  0  0
    3.0884    4.3591    1.9577 H   0  0  0  0  0
   -0.0165    2.8257    2.0228 C   0  0  0  0  0
    0.4907    1.4609    2.4751 C   0  0  0  0  0
   -0.3228    0.8383    2.8624 H   0  0  0  0  0
    1.1953    1.6082    3.3047 H   0  0  0  0  0
    0.0737    3.5406    2.8466 H   0  0  0  0  0
   -1.0797    2.7713    1.7606 H   0  0  0  0  0
    0.1547    3.1010   -0.1034 H   0  0  0  0  0
    2.6361    2.0830   -0.6625 C   0  0  0  0  0
    3.7704    1.1096   -0.7200 C   0  0  2  0  0
    4.7686    1.4541   -1.6964 O   0  0  0  0  0
    4.1278    0.1844   -1.8928 C   0  0  2  0  0
    3.4319    0.1145   -3.2445 C   0  0  2  0  0
    2.8410    1.3520   -3.6243 O   0  0  0  0  0
    3.5357    2.0317   -3.5859 H   0  0  0  0  0
    2.4348   -1.0530   -3.3851 C   0  0  0  0  0
    0.9414   -0.6969   -3.4618 C   0  0  0  0  0
    0.8075   -0.0233   -4.3191 H   0  0  0  0  0
    0.3837   -1.6069   -3.7202 H   0  0  0  0  0
    2.6670   -1.5449   -4.3412 H   0  0  0  0  0
    2.6090   -1.8298   -2.6348 H   0  0  0  0  0
    4.2256   -0.0619   -3.9833 H   0  0  0  0  0
    5.0455   -0.9714   -1.5812 C   0  0  0  0  0
    5.6647   -1.2221   -2.4473 H   0  0  0  0  0
    4.4661   -1.8556   -1.3000 H   0  0  0  0  0
    5.7199   -0.7416   -0.7490 H   0  0  0  0  0
    4.1777    0.8939    0.2598 H   0  0  0  0  0
    1.9087    1.9258   -1.4550 H   0  0  0  0  0
    3.0751    3.0652   -0.8624 H   0  0  0  0  0
    2.7018    2.4157    1.4422 H   0  0  0  0  0
    2.2059   -0.2067    1.7829 C   0  0  0  0  0
    2.7189   -0.7459    0.9831 H   0  0  0  0  0
    1.6934   -0.9537    2.4001 H   0  0  0  0  0
    2.9752    0.2523    2.4141 H   0  0  0  0  0
   -0.6274    0.9493    0.1025 H   0  0  0  0  0
    1.4937   -1.0749   -0.8627 H   0  0  0  0  0
   -1.3580    1.1806   -1.6561 H   0  0  0  0  0
   -0.5552    1.6336   -3.1802 H   0  0  0  0  0
   -3.8868   -0.2645   -4.4704 C   0  0  0  0  0
   -5.2562   -0.4207   -3.8209 C   0  0  2  0  0
   -5.8424    0.8920   -3.7812 O   0  0  0  0  0
   -5.2636    1.4613   -3.2461 H   0  0  0  0  0
   -5.1860   -0.9083   -2.3793 C   0  0  0  0  0
   -4.5826   -2.2893   -2.2832 C   0  0  0  0  0
   -3.3923   -2.5351   -2.1454 O   0  0  0  0  0
   -5.5361   -3.2535   -2.3614 O   0  0  0  0  0
   -5.1513   -4.1524   -2.2947 H   0  0  0  0  0
   -4.5791   -0.2176   -1.7814 H   0  0  0  0  0
   -6.1914   -0.9431   -1.9419 H   0  0  0  0  0
   -6.2028   -1.2744   -4.6714 C   0  0  0  0  0
   -6.3134   -0.8462   -5.6745 H   0  0  0  0  0
   -5.8574   -2.3074   -4.7757 H   0  0  0  0  0
   -7.2072   -1.2904   -4.2329 H   0  0  0  0  0
   -3.3938   -1.2413   -4.5401 H   0  0  0  0  0
   -3.9924    0.1365   -5.4854 H   0  0  0  0  0
  1  2  2  0  0  0
  2  3  1  0  0  0
  2 66  1  0  0  0
  3  4  1  0  0  0
  4  5  1  0  0  0
  4 64  1  0  0  0
  4 65  1  0  0  0
  5  6  2  0  0  0
  5 44  1  0  0  0
  6  7  1  0  0  0
  6 63  1  0  0  0
  7  8  1  0  0  0
  7 15  1  0  0  0
  7 62  1  0  0  0
  8  9  1  0  0  0
  9 10  2  0  0  0
  9 11  1  0  0  0
 11 12  1  0  0  0
 11 13  1  0  0  0
 11 14  1  0  0  0
 15 16  1  0  0  0
 15 30  1  0  0  0
 15 58  1  0  0  0
 16 17  1  0  0  0
 16 36  1  0  0  0
 16 57  1  0  0  0
 17 18  1  0  0  0
 17 29  1  0  0  0
 17 35  1  0  0  0
 18 19  1  0  0  0
 18 21  1  0  0  0
 18 25  1  0  0  0
 19 20  1  0  0  0
 21 22  1  0  0  0
 21 23  1  0  0  0
 21 24  1  0  0  0
 25 26  1  0  0  0
 25 27  1  0  0  0
 25 28  1  0  0  0
 29 30  1  0  0  0
 29 33  1  0  0  0
 29 34  1  0  0  0
 30 31  1  0  0  0
 30 32  1  0  0  0
 36 37  1  0  0  0
 36 55  1  0  0  0
 36 56  1  0  0  0
 37 38  1  0  0  0
 37 39  1  0  0  0
 37 54  1  0  0  0
 38 39  1  0  0  0
 39 40  1  0  0  0
 39 50  1  0  0  0
 40 41  1  0  0  0
 40 43  1  0  0  0
 40 49  1  0  0  0
 41 42  1  0  0  0
 43 44  1  0  0  0
 43 47  1  0  0  0
 43 48  1  0  0  0
 44 45  1  0  0  0
 44 46  1  0  0  0
 50 51  1  0  0  0
 50 52  1  0  0  0
 50 53  1  0  0  0
 58 59  1  0  0  0
 58 60  1  0  0  0
 58 61  1  0  0  0
 66 67  1  0  0  0
 66 81  1  0  0  0
 66 82  1  0  0  0
 67 68  1  0  0  0
 67 70  1  0  0  0
 67 77  1  0  0  0
 68 69  1  0  0  0
 70 71  1  0  0  0
 70 75  1  0  0  0
 70 76  1  0  0  0
 71 72  2  0  0  0
 71 73  1  0  0  0
 73 74  1  0  0  0
 77 78  1  0  0  0
 77 79  1  0  0  0
 77 80  1  0  0  0
M  END
> <Tumorigenic>
none

> <Score>
36.677433

> <Active/Decoy>
active

> <InChI>
InChI=1S/C28H44O10/c1-16(29)37-21-11-17(15-36-24(33)14-26(4,35)13-23(31)32)7-8-20(30)28(6)22(38-28)12-19-18(25(2,3)34)9-10-27(19,21)5/h11,18-22,30,34-35H,7-10,12-15H2,1-6H3,(H,31,32)/t18-,19+,20-,21-,22+,26-,27-,28-/m1/s1

> <Matching Features>
H:14924486185440016873||HBA:14924321692640012300|HBA:14924486112070016868

> <Mol. Index>
522

> <Pharmacophore Match>
Model -1

> <# Confs.>
25

> <Source Database>
Pharm-Screening-input-NANPDB_After_DataWarror.ldb

> <Pharmacophore-Fit Score>
36.68

> <formula>
C28H44O10

> <Mutagenic>
none

> <Reproductive Effective>
none

> <Irritant>
none

$$$$
fercomin
XX    ILIB03122402113D

 58 60  0  0  1  0              1 V2000
    0.7876    3.2066   -1.5104 O   0  0  0  0  0
    1.9113    2.7515   -1.3266 C   0  0  0  0  0
    2.3767    1.3733   -1.7993 C   0  0  1  0  0
    3.8583    1.3235   -1.2454 C   0  0  1  0  0
    4.7685    1.6838   -2.2964 O   0  0  0  0  0
    4.8373    0.9339   -2.9110 H   0  0  0  0  0
    3.9370    2.4403   -0.1560 C   0  0  1  0  0
    5.3153    3.0112    0.2281 C   0  0  0  0  0
    5.1917    4.0921    1.3076 C   0  0  0  0  0
    6.1796    4.4730    1.5916 H   0  0  0  0  0
    4.6047    4.9445    0.9525 H   0  0  0  0  0
    4.7098    3.6979    2.2092 H   0  0  0  0  0
    6.2594    1.9095    0.7189 C   0  0  0  0  0
    7.2297    2.3285    1.0070 H   0  0  0  0  0
    5.8428    1.3906    1.5897 H   0  0  0  0  0
    6.4440    1.1648   -0.0626 H   0  0  0  0  0
    5.7702    3.4724   -0.6582 H   0  0  0  0  0
    3.0070    3.5419   -0.6728 C   0  0  0  0  0
    3.4700    4.1787   -1.4312 H   0  0  0  0  0
    2.6109    4.1508    0.1442 H   0  0  0  0  0
    3.4837    2.0731    0.7713 H   0  0  0  0  0
    4.2810   -0.0838   -0.7646 C   0  0  0  0  0
    3.7820   -0.5585    0.6076 C   0  0  0  0  0
    2.3539   -0.3023    1.0233 C   0  0  0  0  0
    1.3593    0.0948    0.2123 C   0  0  0  0  0
    1.4484    0.2433   -1.2854 C   0  0  1  0  0
    0.1171    0.4490   -1.7784 O   0  0  0  0  0
   -0.6488   -0.6417   -1.9813 C   0  0  0  0  0
   -0.3386   -1.8005   -1.7923 O   0  0  0  0  0
   -1.9870   -0.2304   -2.4699 C   0  0  0  0  0
   -2.9910   -1.1570   -2.7669 C   0  0  0  0  0
   -4.2290   -0.7171   -3.2426 C   0  0  0  0  0
   -4.4817    0.6465   -3.4224 C   0  0  0  0  0
   -5.7275    0.9499   -3.8940 O   0  0  0  0  0
   -5.9850    2.3405   -4.0838 C   0  0  0  0  0
   -5.9162    2.8830   -3.1431 H   0  0  0  0  0
   -7.0079    2.4402   -4.4578 H   0  0  0  0  0
   -5.3078    2.7702   -4.8395 H   0  0  0  0  0
   -3.4778    1.5713   -3.1254 C   0  0  0  0  0
   -2.2364    1.1343   -2.6525 C   0  0  0  0  0
   -1.4773    1.8791   -2.4269 H   0  0  0  0  0
   -3.6237    2.6392   -3.2546 H   0  0  0  0  0
   -4.9991   -1.4498   -3.4693 H   0  0  0  0  0
   -2.8398   -2.2254   -2.6419 H   0  0  0  0  0
    1.7931   -0.7124   -1.6937 H   0  0  0  0  0
    0.3800    0.2731    0.6533 H   0  0  0  0  0
    2.0922   -0.4947    2.4951 C   0  0  0  0  0
    1.0481   -0.3051    2.7628 H   0  0  0  0  0
    2.3275   -1.5230    2.7888 H   0  0  0  0  0
    2.7143    0.1874    3.0833 H   0  0  0  0  0
    4.4310   -0.0948    1.3620 H   0  0  0  0  0
    3.9720   -1.6376    0.6843 H   0  0  0  0  0
    4.0010   -0.8219   -1.5277 H   0  0  0  0  0
    5.3783   -0.1443   -0.7529 H   0  0  0  0  0
    2.3186    1.3984   -3.3434 C   0  0  0  0  0
    2.7364    0.4788   -3.7660 H   0  0  0  0  0
    2.8665    2.2522   -3.7595 H   0  0  0  0  0
    1.2916    1.4977   -3.7124 H   0  0  0  0  0
  1  2  2  0  0  0
  2  3  1  0  0  0
  2 18  1  0  0  0
  3  4  1  0  0  0
  3 26  1  0  0  0
  3 55  1  0  0  0
  4  5  1  0  0  0
  4  7  1  0  0  0
  4 22  1  0  0  0
  5  6  1  0  0  0
  7  8  1  0  0  0
  7 18  1  0  0  0
  7 21  1  0  0  0
  8  9  1  0  0  0
  8 13  1  0  0  0
  8 17  1  0  0  0
  9 10  1  0  0  0
  9 11  1  0  0  0
  9 12  1  0  0  0
 13 14  1  0  0  0
 13 15  1  0  0  0
 13 16  1  0  0  0
 18 19  1  0  0  0
 18 20  1  0  0  0
 22 23  1  0  0  0
 22 53  1  0  0  0
 22 54  1  0  0  0
 23 24  1  0  0  0
 23 51  1  0  0  0
 23 52  1  0  0  0
 24 25  2  0  0  0
 24 47  1  0  0  0
 25 26  1  0  0  0
 25 46  1  0  0  0
 26 27  1  0  0  0
 26 45  1  0  0  0
 27 28  1  0  0  0
 28 29  2  0  0  0
 28 30  1  0  0  0
 30 31  2  0  0  0
 30 40  1  0  0  0
 31 32  1  0  0  0
 31 44  1  0  0  0
 32 33  2  0  0  0
 32 43  1  0  0  0
 33 34  1  0  0  0
 33 39  1  0  0  0
 34 35  1  0  0  0
 35 36  1  0  0  0
 35 37  1  0  0  0
 35 38  1  0  0  0
 39 40  2  0  0  0
 39 42  1  0  0  0
 40 41  1  0  0  0
 47 48  1  0  0  0
 47 49  1  0  0  0
 47 50  1  0  0  0
 55 56  1  0  0  0
 55 57  1  0  0  0
 55 58  1  0  0  0
M  END
> <Tumorigenic>
none

> <Score>
36.65793

> <Active/Decoy>
active

> <InChI>
InChI=1S/C23H30O5/c1-14(2)18-13-19(24)22(4)20(12-15(3)10-11-23(18,22)26)28-21(25)16-6-8-17(27-5)9-7-16/h6-9,12,14,18,20,26H,10-11,13H2,1-5H3/t18-,20-,22-,23+/m1/s1

> <Matching Features>
H:14924486185440016873||HBA:14924321692640012300|HBA:14924486112070016868

> <Mol. Index>
928

> <Pharmacophore Match>
Model -1

> <# Confs.>
25

> <Source Database>
Pharm-Screening-input-NANPDB_After_DataWarror.ldb

> <Pharmacophore-Fit Score>
36.66

> <formula>
C23H30O5

> <Mutagenic>
none

> <Reproductive Effective>
none

> <Irritant>
none

$$$$
3,4,5-trimethoxyphenol O-alpha-L-rhamnopyranosyl-(1''?6')-beta-D-glucopyranoside
XX    ILIB03122402113D

 58 59  0  0  1  0              1 V2000
    4.6389    1.4825   -1.8139 O   0  0  0  0  0
    3.7381    1.6356   -0.9891 C   0  0  0  0  0
    3.5678    0.6390    0.0927 C   0  0  0  0  0
    2.5592    0.7291    0.9732 C   0  0  0  0  0
    1.5313    1.8524    0.9474 C   0  0  1  0  0
    2.0955    3.1396    0.2537 C   0  0  0  0  0
    2.7745    2.7974   -1.0858 C   0  0  0  0  0
    3.3350    3.6667   -1.4501 H   0  0  0  0  0
    2.0370    2.5475   -1.8557 H   0  0  0  0  0
    3.1368    3.8126    1.1890 C   0  0  0  0  0
    3.5472    4.7205    0.7323 H   0  0  0  0  0
    2.6759    4.1032    2.1401 H   0  0  0  0  0
    3.9818    3.1561    1.4197 H   0  0  0  0  0
    0.9939    4.1865   -0.0032 C   0  0  0  0  0
    0.2751    3.8477   -0.7558 H   0  0  0  0  0
    1.4208    5.1265   -0.3737 H   0  0  0  0  0
    0.4436    4.4138    0.9169 H   0  0  0  0  0
    0.1982    1.3341    0.4063 C   0  0  0  0  0
    0.2905    0.7888   -1.0196 C   0  0  0  0  0
   -1.0337    0.2740   -1.5571 C   0  0  2  0  0
   -2.0149    1.2994   -1.5938 O   0  0  0  0  0
   -2.0303    2.0178   -2.8146 C   0  0  1  0  0
   -2.2379    1.1786   -3.9583 O   0  0  0  0  0
   -3.5193    0.5345   -3.9875 C   0  0  1  0  0
   -4.6490    1.5813   -3.9873 C   0  0  1  0  0
   -5.9203    0.9473   -3.9519 O   0  0  0  0  0
   -6.5966    1.6461   -3.9485 H   0  0  0  0  0
   -4.5161    2.5329   -2.7948 C   0  0  1  0  0
   -4.7544    1.8241   -1.5784 O   0  0  0  0  0
   -5.6435    1.4361   -1.6383 H   0  0  0  0  0
   -3.1029    3.1137   -2.7813 C   0  0  1  0  0
   -2.9191    3.9595   -1.6546 O   0  0  0  0  0
   -3.0233    3.4124   -0.8576 H   0  0  0  0  0
   -2.9872    3.7359   -3.6775 H   0  0  0  0  0
   -5.2631    3.3319   -2.8375 H   0  0  0  0  0
   -4.5899    2.1692   -4.9113 H   0  0  0  0  0
   -3.5389   -0.3419   -5.2278 C   0  0  0  0  0
   -2.5043   -1.3113   -5.1782 O   0  0  0  0  0
   -1.6593   -0.8334   -5.1123 H   0  0  0  0  0
   -3.4141    0.2624   -6.1332 H   0  0  0  0  0
   -4.4981   -0.8613   -5.3256 H   0  0  0  0  0
   -3.6219   -0.1224   -3.1140 H   0  0  0  0  0
   -1.0518    2.5016   -2.9278 H   0  0  0  0  0
   -1.5881   -0.8277   -0.6375 C   0  0  0  0  0
   -1.7824   -0.4376    0.3677 H   0  0  0  0  0
   -0.8965   -1.6720   -0.5608 H   0  0  0  0  0
   -2.5458   -1.1979   -1.0199 H   0  0  0  0  0
   -0.9136   -0.1642   -2.5568 H   0  0  0  0  0
    1.0407   -0.0205   -1.0425 H   0  0  0  0  0
    0.6564    1.5884   -1.6602 H   0  0  0  0  0
   -0.5462    2.1384    0.4431 H   0  0  0  0  0
   -0.1476    0.5419    1.0828 H   0  0  0  0  0
    1.3340    2.1333    1.9925 H   0  0  0  0  0
    2.4156   -0.2896    2.0709 C   0  0  0  0  0
    3.2288   -1.0231    2.0618 H   0  0  0  0  0
    1.4767   -0.8409    1.9701 H   0  0  0  0  0
    2.4279    0.2023    3.0487 H   0  0  0  0  0
    4.2925   -0.1674    0.1339 H   0  0  0  0  0
  1  2  2  0  0  0
  2  3  1  0  0  0
  2  7  1  0  0  0
  3  4  2  0  0  0
  3 58  1  0  0  0
  4  5  1  0  0  0
  4 54  1  0  0  0
  5  6  1  0  0  0
  5 18  1  0  0  0
  5 53  1  0  0  0
  6  7  1  0  0  0
  6 10  1  0  0  0
  6 14  1  0  0  0
  7  8  1  0  0  0
  7  9  1  0  0  0
 10 11  1  0  0  0
 10 12  1  0  0  0
 10 13  1  0  0  0
 14 15  1  0  0  0
 14 16  1  0  0  0
 14 17  1  0  0  0
 18 19  1  0  0  0
 18 51  1  0  0  0
 18 52  1  0  0  0
 19 20  1  0  0  0
 19 49  1  0  0  0
 19 50  1  0  0  0
 20 21  1  0  0  0
 20 44  1  0  0  0
 20 48  1  0  0  0
 21 22  1  0  0  0
 22 23  1  0  0  0
 22 31  1  0  0  0
 22 43  1  0  0  0
 23 24  1  0  0  0
 24 25  1  0  0  0
 24 37  1  0  0  0
 24 42  1  0  0  0
 25 26  1  0  0  0
 25 28  1  0  0  0
 25 36  1  0  0  0
 26 27  1  0  0  0
 28 29  1  0  0  0
 28 31  1  0  0  0
 28 35  1  0  0  0
 29 30  1  0  0  0
 31 32  1  0  0  0
 31 34  1  0  0  0
 32 33  1  0  0  0
 37 38  1  0  0  0
 37 40  1  0  0  0
 37 41  1  0  0  0
 38 39  1  0  0  0
 44 45  1  0  0  0
 44 46  1  0  0  0
 44 47  1  0  0  0
 54 55  1  0  0  0
 54 56  1  0  0  0
 54 57  1  0  0  0
M  END
> <Tumorigenic>
none

> <Score>
36.643333

> <Active/Decoy>
active

> <InChI>
InChI=1S/C19H32O7/c1-10-7-12(21)8-19(3,4)13(10)6-5-11(2)25-18-17(24)16(23)15(22)14(9-20)26-18/h7,11,13-18,20,22-24H,5-6,8-9H2,1-4H3/t11-,13+,14-,15-,16-,17-,18+/m1/s1

> <Matching Features>
H:14924486185440016873||HBA:14924321692640012300|HBA:14924486112070016868

> <Mol. Index>
9

> <Pharmacophore Match>
Model -1

> <# Confs.>
25

> <Source Database>
Pharm-Screening-input-NANPDB_After_DataWarror.ldb

> <Pharmacophore-Fit Score>
36.64

> <formula>
C19H32O7

> <Mutagenic>
none

> <Reproductive Effective>
none

> <Irritant>
none

$$$$
afzelin
XX    ILIB03122402113D

 51 54  0  0  1  0              1 V2000
    0.5348   -0.8453   -3.0915 O   0  0  0  0  0
   -0.0363    0.2291   -2.9647 C   0  0  0  0  0
    0.7197    1.4577   -2.6074 C   0  0  0  0  0
    2.0728    1.3872   -2.4511 O   0  0  0  0  0
    2.5758    0.1215   -2.0240 C   0  0  2  0  0
    2.0655   -0.2755   -0.7380 O   0  0  0  0  0
    2.8979    0.0848    0.3651 C   0  0  2  0  0
    4.2280   -0.6923    0.2888 C   0  0  1  0  0
    4.1174   -1.9694    0.9205 O   0  0  0  0  0
    3.4081   -2.4622    0.4737 H   0  0  0  0  0
    4.6737   -0.9312   -1.1623 C   0  0  2  0  0
    6.0947   -0.9344   -1.2382 O   0  0  0  0  0
    6.4175   -1.6241   -0.6331 H   0  0  0  0  0
    4.1171    0.1447   -2.0866 C   0  0  2  0  0
    4.6051    1.4248   -1.6747 O   0  0  0  0  0
    5.5763    1.3820   -1.6896 H   0  0  0  0  0
    4.4568    0.0134   -3.1198 H   0  0  0  0  0
    4.3397   -1.9145   -1.5155 H   0  0  0  0  0
    4.9947   -0.1491    0.8544 H   0  0  0  0  0
    2.1152   -0.1668    1.6478 C   0  0  0  0  0
    1.7622   -1.2018    1.7084 H   0  0  0  0  0
    1.2180    0.4618    1.6702 H   0  0  0  0  0
    2.7159    0.0591    2.5340 H   0  0  0  0  0
    3.0921    1.1626    0.3058 H   0  0  0  0  0
    2.2402   -0.6595   -2.7204 H   0  0  0  0  0
    0.0204    2.5999   -2.3814 C   0  0  0  0  0
   -1.3536    2.7106   -2.5254 O   0  0  0  0  0
   -2.0716    1.6164   -2.9316 C   0  0  0  0  0
   -1.4918    0.3719   -3.1767 C   0  0  0  0  0
   -2.3015   -0.6928   -3.5918 C   0  0  0  0  0
   -1.7571   -1.9225   -3.8473 O   0  0  0  0  0
   -2.4647   -2.5281   -4.1277 H   0  0  0  0  0
   -3.6779   -0.5134   -3.7558 C   0  0  0  0  0
   -4.2388    0.7338   -3.5018 C   0  0  0  0  0
   -3.4462    1.8023   -3.0908 C   0  0  0  0  0
   -3.8904    2.7741   -2.8937 H   0  0  0  0  0
   -5.5876    0.8808   -3.6669 O   0  0  0  0  0
   -5.8286    1.7979   -3.4516 H   0  0  0  0  0
   -4.3074   -1.3381   -4.0775 H   0  0  0  0  0
    0.6570    3.8667   -1.9736 C   0  0  0  0  0
    1.4037    3.9449   -0.7843 C   0  0  0  0  0
    2.0113    5.1404   -0.3882 C   0  0  0  0  0
    1.8809    6.2727   -1.1828 C   0  0  0  0  0
    2.4628    7.4553   -0.8227 O   0  0  0  0  0
    2.9255    7.3284    0.0233 H   0  0  0  0  0
    1.1526    6.2272   -2.3645 C   0  0  0  0  0
    0.5452    5.0308   -2.7567 C   0  0  0  0  0
   -0.0138    5.0289   -3.6902 H   0  0  0  0  0
    1.0508    7.1114   -2.9877 H   0  0  0  0  0
    2.5803    5.1700    0.5363 H   0  0  0  0  0
    1.5240    3.0772   -0.1393 H   0  0  0  0  0
  1  2  2  0  0  0
  2  3  1  0  0  0
  2 29  1  0  0  0
  3  4  1  0  0  0
  3 26  2  0  0  0
  4  5  1  0  0  0
  5  6  1  0  0  0
  5 14  1  0  0  0
  5 25  1  0  0  0
  6  7  1  0  0  0
  7  8  1  0  0  0
  7 20  1  0  0  0
  7 24  1  0  0  0
  8  9  1  0  0  0
  8 11  1  0  0  0
  8 19  1  0  0  0
  9 10  1  0  0  0
 11 12  1  0  0  0
 11 14  1  0  0  0
 11 18  1  0  0  0
 12 13  1  0  0  0
 14 15  1  0  0  0
 14 17  1  0  0  0
 15 16  1  0  0  0
 20 21  1  0  0  0
 20 22  1  0  0  0
 20 23  1  0  0  0
 26 27  1  0  0  0
 26 40  1  0  0  0
 27 28  1  0  0  0
 28 29  2  0  0  0
 28 35  1  0  0  0
 29 30  1  0  0  0
 30 31  1  0  0  0
 30 33  2  0  0  0
 31 32  1  0  0  0
 33 34  1  0  0  0
 33 39  1  0  0  0
 34 35  2  0  0  0
 34 37  1  0  0  0
 35 36  1  0  0  0
 37 38  1  0  0  0
 40 41  2  0  0  0
 40 47  1  0  0  0
 41 42  1  0  0  0
 41 51  1  0  0  0
 42 43  2  0  0  0
 42 50  1  0  0  0
 43 44  1  0  0  0
 43 46  1  0  0  0
 44 45  1  0  0  0
 46 47  2  0  0  0
 46 49  1  0  0  0
 47 48  1  0  0  0
M  END
> <Tumorigenic>
none

> <Score>
36.603447

> <Active/Decoy>
active

> <InChI>
InChI=1S/C21H20O10/c1-8-15(25)17(27)18(28)21(29-8)31-20-16(26)14-12(24)6-11(23)7-13(14)30-19(20)9-2-4-10(22)5-3-9/h2-8,15,17-18,21-25,27-28H,1H3/t8-,15+,17-,18-,21-/m0/s1

> <Matching Features>
H:14924486185440016873||HBA:14924321692640012300|HBA:14924486112070016868

> <Mol. Index>
18

> <Pharmacophore Match>
Model -1

> <# Confs.>
17

> <Source Database>
Pharm-Screening-input-NANPDB_After_DataWarror.ldb

> <Pharmacophore-Fit Score>
36.6

> <formula>
C21H20O10

> <Mutagenic>
none

> <Reproductive Effective>
none

> <Irritant>
none

$$$$
uzarigenin
XX    ILIB03122402113D

 61 65  0  0  1  0              1 V2000
   -5.8137    0.8577   -3.6821 O   0  0  0  0  0
   -5.2578   -0.1855   -3.3833 C   0  0  0  0  0
   -5.8621   -1.2905   -2.8601 O   0  0  0  0  0
   -4.8789   -2.3064   -2.6343 C   0  0  0  0  0
   -3.6209   -1.7011   -3.1077 C   0  0  0  0  0
   -3.8275   -0.4532   -3.5424 C   0  0  0  0  0
   -3.1107    0.2461   -3.9369 H   0  0  0  0  0
   -2.3164   -2.4067   -3.0771 C   0  0  2  0  0
   -1.4218   -2.2678   -1.7853 C   0  0  1  0  0
    0.0178   -2.6779   -2.2766 C   0  0  2  0  0
    0.3233   -3.9915   -1.7953 O   0  0  0  0  0
    1.0350   -4.3644   -2.3416 H   0  0  0  0  0
    1.1491   -1.6843   -1.8402 C   0  0  1  0  0
    1.0009   -1.2372   -0.3635 C   0  0  1  0  0
    2.1681   -0.2951    0.1498 C   0  0  1  0  0
    3.5558   -0.9187   -0.2017 C   0  0  2  0  0
    4.7433   -0.0080    0.1865 C   0  0  0  0  0
    4.6301    1.4324   -0.3130 C   0  0  1  0  0
    4.9159    1.4773   -1.7078 O   0  0  0  0  0
    4.8753    2.4086   -1.9868 H   0  0  0  0  0
    3.2605    2.0429   -0.0445 C   0  0  0  0  0
    2.0994    1.1343   -0.4636 C   0  0  0  0  0
    2.0746    1.0781   -1.5572 H   0  0  0  0  0
    1.1767    1.6452   -0.1702 H   0  0  0  0  0
    3.1716    2.2798    1.0229 H   0  0  0  0  0
    3.1644    2.9936   -0.5810 H   0  0  0  0  0
    5.4011    2.0372    0.1781 H   0  0  0  0  0
    4.8331    0.0082    1.2792 H   0  0  0  0  0
    5.6744   -0.4544   -0.1877 H   0  0  0  0  0
    3.6531   -1.3245   -1.6810 C   0  0  0  0  0
    2.5464   -2.2908   -2.0644 C   0  0  0  0  0
    2.6772   -2.5751   -3.1141 H   0  0  0  0  0
    2.6709   -3.2053   -1.4720 H   0  0  0  0  0
    3.5999   -0.4579   -2.3450 H   0  0  0  0  0
    4.6219   -1.8040   -1.8675 H   0  0  0  0  0
    3.6681   -1.8438    0.3837 H   0  0  0  0  0
    2.0306   -0.1948    1.6961 C   0  0  0  0  0
    2.0382   -1.1916    2.1516 H   0  0  0  0  0
    1.0964    0.2947    1.9869 H   0  0  0  0  0
    2.8399    0.3731    2.1603 H   0  0  0  0  0
   -0.4082   -0.6704   -0.0714 C   0  0  0  0  0
   -1.4037   -0.8402   -1.2156 C   0  0  0  0  0
   -1.1534   -0.1181   -2.0020 H   0  0  0  0  0
   -2.3963   -0.5558   -0.8457 H   0  0  0  0  0
   -0.7985   -1.1590    0.8296 H   0  0  0  0  0
   -0.3891    0.3919    0.1820 H   0  0  0  0  0
    1.0786   -2.1623    0.2292 H   0  0  0  0  0
    1.0686   -0.7866   -2.4691 H   0  0  0  0  0
   -0.0801   -2.7514   -3.8238 C   0  0  0  0  0
   -1.3505   -2.0070   -4.1973 C   0  0  0  0  0
   -1.1619   -0.9277   -4.2248 H   0  0  0  0  0
   -1.7193   -2.3104   -5.1823 H   0  0  0  0  0
   -0.1542   -3.7941   -4.1589 H   0  0  0  0  0
    0.7814   -2.3144   -4.3380 H   0  0  0  0  0
   -1.9941   -3.2246   -0.7027 C   0  0  0  0  0
   -2.1310   -4.2403   -1.0905 H   0  0  0  0  0
   -2.9717   -2.8794   -0.3489 H   0  0  0  0  0
   -1.3335   -3.2974    0.1665 H   0  0  0  0  0
   -2.5164   -3.4731   -3.2201 H   0  0  0  0  0
   -5.1547   -3.1913   -3.2298 H   0  0  0  0  0
   -4.8616   -2.5613   -1.5798 H   0  0  0  0  0
  1  2  2  0  0  0
  2  3  1  0  0  0
  2  6  1  0  0  0
  3  4  1  0  0  0
  4  5  1  0  0  0
  4 60  1  0  0  0
  4 61  1  0  0  0
  5  6  2  0  0  0
  5  8  1  0  0  0
  6  7  1  0  0  0
  8  9  1  0  0  0
  8 50  1  0  0  0
  8 59  1  0  0  0
  9 10  1  0  0  0
  9 42  1  0  0  0
  9 55  1  0  0  0
 10 11  1  0  0  0
 10 13  1  0  0  0
 10 49  1  0  0  0
 11 12  1  0  0  0
 13 14  1  0  0  0
 13 31  1  0  0  0
 13 48  1  0  0  0
 14 15  1  0  0  0
 14 41  1  0  0  0
 14 47  1  0  0  0
 15 16  1  0  0  0
 15 22  1  0  0  0
 15 37  1  0  0  0
 16 17  1  0  0  0
 16 30  1  0  0  0
 16 36  1  0  0  0
 17 18  1  0  0  0
 17 28  1  0  0  0
 17 29  1  0  0  0
 18 19  1  0  0  0
 18 21  1  0  0  0
 18 27  1  0  0  0
 19 20  1  0  0  0
 21 22  1  0  0  0
 21 25  1  0  0  0
 21 26  1  0  0  0
 22 23  1  0  0  0
 22 24  1  0  0  0
 30 31  1  0  0  0
 30 34  1  0  0  0
 30 35  1  0  0  0
 31 32  1  0  0  0
 31 33  1  0  0  0
 37 38  1  0  0  0
 37 39  1  0  0  0
 37 40  1  0  0  0
 41 42  1  0  0  0
 41 45  1  0  0  0
 41 46  1  0  0  0
 42 43  1  0  0  0
 42 44  1  0  0  0
 49 50  1  0  0  0
 49 53  1  0  0  0
 49 54  1  0  0  0
 50 51  1  0  0  0
 50 52  1  0  0  0
 55 56  1  0  0  0
 55 57  1  0  0  0
 55 58  1  0  0  0
M  END
> <Tumorigenic>
none

> <Score>
36.58758

> <Active/Decoy>
active

> <InChI>
InChI=1S/C23H34O4/c1-21-8-5-16(24)12-15(21)3-4-19-18(21)6-9-22(2)17(7-10-23(19,22)26)14-11-20(25)27-13-14/h11,15-19,24,26H,3-10,12-13H2,1-2H3/t15-,16-,17+,18-,19+,21+,22-,23+/m0/s1

> <Matching Features>
H:14924486185440016873||HBA:14924321692640012300|HBA:14924486112070016868

> <Mol. Index>
4

> <Pharmacophore Match>
Model -1

> <# Confs.>
15

> <Source Database>
Pharm-Screening-input-NANPDB_After_DataWarror.ldb

> <Pharmacophore-Fit Score>
36.59

> <formula>
C23H34O4

> <Mutagenic>
none

> <Reproductive Effective>
none

> <Irritant>
none

$$$$
polyanthin
XX    ILIB03122402113D

 63 66  0  0  1  0              1 V2000
    4.2260    1.5489   -2.1257 O   0  0  0  0  0
    3.9738    1.0757   -1.0238 C   0  0  0  0  0
    2.6695    0.8225   -0.6114 O   0  0  0  0  0
    2.3874    0.2764    0.6584 C   0  0  0  0  0
    3.4184   -0.0383    1.5363 C   0  0  0  0  0
    3.1006   -0.5807    2.7797 C   0  0  0  0  0
    1.7630   -0.8018    3.1234 C   0  0  0  0  0
    0.7304   -0.4668    2.2370 C   0  0  0  0  0
    1.0460    0.0798    0.9912 C   0  0  0  0  0
    0.2823    0.3442    0.2670 H   0  0  0  0  0
   -0.5296   -0.7503    2.6817 O   0  0  0  0  0
   -1.5990   -0.4216    1.8033 C   0  0  0  0  0
   -2.9480   -0.7792    2.4242 C   0  0  2  0  0
   -4.2288   -0.4866    1.5522 C   0  0  1  0  0
   -4.4608    1.0778    1.4518 C   0  0  1  0  0
   -5.5791    1.5494    0.4435 C   0  0  0  0  0
   -5.3696    0.8341   -0.9288 C   0  0  2  0  0
   -6.4718    1.1182   -1.8026 O   0  0  0  0  0
   -6.2020    1.1389   -3.1373 C   0  0  0  0  0
   -5.1148    0.9393   -3.6613 O   0  0  0  0  0
   -7.4576    1.4356   -3.8962 C   0  0  0  0  0
   -8.1706    0.6179   -3.7637 H   0  0  0  0  0
   -7.2260    1.5319   -4.9630 H   0  0  0  0  0
   -7.8853    2.3810   -3.5540 H   0  0  0  0  0
   -5.2227   -0.6844   -0.8068 C   0  0  0  0  0
   -4.0776   -1.0611    0.1288 C   0  0  0  0  0
   -3.9883   -2.1532    0.1713 H   0  0  0  0  0
   -3.1572   -0.6904   -0.3359 H   0  0  0  0  0
   -6.1676   -1.1410   -0.4956 H   0  0  0  0  0
   -5.0236   -1.1094   -1.7989 H   0  0  0  0  0
   -4.4463    1.2266   -1.3809 H   0  0  0  0  0
   -7.0217    1.3616    0.9606 C   0  0  0  0  0
   -7.7391    1.8993    0.3283 H   0  0  0  0  0
   -7.3448    0.3216    0.9591 H   0  0  0  0  0
   -7.1475    1.7570    1.9727 H   0  0  0  0  0
   -5.4258    3.0764    0.1871 C   0  0  0  0  0
   -4.4045    3.3279   -0.1192 H   0  0  0  0  0
   -6.0987    3.4195   -0.6070 H   0  0  0  0  0
   -5.6660    3.6665    1.0779 H   0  0  0  0  0
   -4.5511    1.7254    2.8540 C   0  0  0  0  0
   -3.3233    1.4140    3.7128 C   0  0  0  0  0
   -3.0487   -0.0634    3.7711 C   0  0  0  0  0
   -2.9348   -0.7189    4.9365 C   0  0  0  0  0
   -3.0261   -0.2019    5.8854 H   0  0  0  0  0
   -2.7466   -1.7864    4.9658 H   0  0  0  0  0
   -3.4758    1.8306    4.7149 H   0  0  0  0  0
   -2.4466    1.9236    3.2953 H   0  0  0  0  0
   -5.4529    1.3946    3.3800 H   0  0  0  0  0
   -4.6252    2.8143    2.7731 H   0  0  0  0  0
   -3.5334    1.4787    1.0161 H   0  0  0  0  0
   -5.4014   -1.2269    2.2546 C   0  0  0  0  0
   -6.3124   -1.2574    1.6600 H   0  0  0  0  0
   -5.6615   -0.7966    3.2254 H   0  0  0  0  0
   -5.1344   -2.2761    2.4326 H   0  0  0  0  0
   -2.9155   -1.8587    2.6071 H   0  0  0  0  0
   -1.4795   -0.9316    0.8274 H   0  0  0  0  0
   -1.5607    0.6476    1.5821 H   0  0  0  0  0
    1.5292   -1.2064    4.1053 H   0  0  0  0  0
    3.8782   -0.8353    3.4942 H   0  0  0  0  0
    4.7911    0.2173    1.1287 C   0  0  0  0  0
    5.0465    0.7342   -0.0731 C   0  0  0  0  0
    6.0702    0.9198   -0.3885 H   0  0  0  0  0
    5.5976   -0.0271    1.8114 H   0  0  0  0  0
  1  2  2  0  0  0
  2  3  1  0  0  0
  2 61  1  0  0  0
  3  4  1  0  0  0
  4  5  2  0  0  0
  4  9  1  0  0  0
  5  6  1  0  0  0
  5 60  1  0  0  0
  6  7  2  0  0  0
  6 59  1  0  0  0
  7  8  1  0  0  0
  7 58  1  0  0  0
  8  9  2  0  0  0
  8 11  1  0  0  0
  9 10  1  0  0  0
 11 12  1  0  0  0
 12 13  1  0  0  0
 12 56  1  0  0  0
 12 57  1  0  0  0
 13 14  1  0  0  0
 13 42  1  0  0  0
 13 55  1  0  0  0
 14 15  1  0  0  0
 14 26  1  0  0  0
 14 51  1  0  0  0
 15 16  1  0  0  0
 15 40  1  0  0  0
 15 50  1  0  0  0
 16 17  1  0  0  0
 16 32  1  0  0  0
 16 36  1  0  0  0
 17 18  1  0  0  0
 17 25  1  0  0  0
 17 31  1  0  0  0
 18 19  1  0  0  0
 19 20  2  0  0  0
 19 21  1  0  0  0
 21 22  1  0  0  0
 21 23  1  0  0  0
 21 24  1  0  0  0
 25 26  1  0  0  0
 25 29  1  0  0  0
 25 30  1  0  0  0
 26 27  1  0  0  0
 26 28  1  0  0  0
 32 33  1  0  0  0
 32 34  1  0  0  0
 32 35  1  0  0  0
 36 37  1  0  0  0
 36 38  1  0  0  0
 36 39  1  0  0  0
 40 41  1  0  0  0
 40 48  1  0  0  0
 40 49  1  0  0  0
 41 42  1  0  0  0
 41 46  1  0  0  0
 41 47  1  0  0  0
 42 43  2  0  0  0
 43 44  1  0  0  0
 43 45  1  0  0  0
 51 52  1  0  0  0
 51 53  1  0  0  0
 51 54  1  0  0  0
 60 61  2  0  0  0
 60 63  1  0  0  0
 61 62  1  0  0  0
M  END
> <Tumorigenic>
none

> <Score>
36.50355

> <Active/Decoy>
active

> <InChI>
InChI=1S/C26H32O5/c1-16-6-10-22-25(3,4)23(30-17(2)27)12-13-26(22,5)20(16)15-29-19-9-7-18-8-11-24(28)31-21(18)14-19/h7-9,11,14,20,22-23H,1,6,10,12-13,15H2,2-5H3/t20-,22+,23+,26-/m0/s1

> <Matching Features>
H:14924486185440016873||HBA:14924321692640012300|HBA:14924486112070016868

> <Mol. Index>
912

> <Pharmacophore Match>
Model -1

> <# Confs.>
25

> <Source Database>
Pharm-Screening-input-NANPDB_After_DataWarror.ldb

> <Pharmacophore-Fit Score>
36.5

> <formula>
C26H32O5

> <Mutagenic>
none

> <Reproductive Effective>
none

> <Irritant>
none

$$$$
acacetin 7-glucoside
XX    ILIB03122402113D

 54 57  0  0  1  0              1 V2000
    4.8441    1.7374   -2.4110 O   0  0  0  0  0
    3.7455    1.3265   -2.0633 C   0  0  0  0  0
    2.5822    1.2793   -2.9697 C   0  0  0  0  0
    1.3750    0.7953   -2.4655 C   0  0  0  0  0
    1.2186    0.3753   -1.1684 O   0  0  0  0  0
    2.3059    0.4245   -0.3115 C   0  0  0  0  0
    3.5208    0.8632   -0.6782 C   0  0  0  0  0
    4.3716    0.9071   -0.0060 H   0  0  0  0  0
    2.0128   -0.0413    1.0574 C   0  0  0  0  0
    2.6928    0.4737    2.1728 C   0  0  0  0  0
    2.4048    0.0243    3.4664 C   0  0  0  0  0
    1.4272   -0.9494    3.6799 C   0  0  0  0  0
    1.2362   -1.3092    4.9844 O   0  0  0  0  0
    0.2375   -2.3040    5.2019 C   0  0  0  0  0
   -0.7481   -1.9510    4.8787 H   0  0  0  0  0
    0.5015   -3.2429    4.7029 H   0  0  0  0  0
    0.1903   -2.4963    6.2751 H   0  0  0  0  0
    0.7396   -1.4678    2.5825 C   0  0  0  0  0
    1.0303   -1.0178    1.2887 C   0  0  0  0  0
    0.4713   -1.4542    0.4653 H   0  0  0  0  0
   -0.0325   -2.2249    2.6955 H   0  0  0  0  0
    2.9530    0.4454    4.3057 H   0  0  0  0  0
    3.4605    1.2364    2.0618 H   0  0  0  0  0
    0.2369    0.7291   -3.2778 C   0  0  0  0  0
    0.2978    1.1203   -4.6159 C   0  0  0  0  0
   -0.7388    1.1213   -5.4926 O   0  0  0  0  0
   -1.7128    0.0917   -5.3067 C   0  0  1  0  0
   -2.7884    0.4975   -4.4489 O   0  0  0  0  0
   -3.5309    1.6142   -4.9560 C   0  0  1  0  0
   -4.1620    1.2789   -6.3124 C   0  0  1  0  0
   -4.7858    2.4473   -6.8390 O   0  0  0  0  0
   -5.1550    2.2141   -7.7081 H   0  0  0  0  0
   -3.1058    0.7788   -7.3007 C   0  0  2  0  0
   -3.7533    0.2814   -8.4724 O   0  0  0  0  0
   -4.3282   -0.4571   -8.2086 H   0  0  0  0  0
   -2.2770   -0.3365   -6.6662 C   0  0  1  0  0
   -1.2170   -0.7172   -7.5372 O   0  0  0  0  0
   -0.6307    0.0512   -7.6425 H   0  0  0  0  0
   -2.9138   -1.2199   -6.5325 H   0  0  0  0  0
   -2.4657    1.6030   -7.6364 H   0  0  0  0  0
   -4.9399    0.5135   -6.1984 H   0  0  0  0  0
   -4.5587    1.9990   -3.9052 C   0  0  0  0  0
   -5.4283    0.8987   -3.6602 O   0  0  0  0  0
   -4.8763    0.1481   -3.3819 H   0  0  0  0  0
   -4.0854    2.2706   -2.9557 H   0  0  0  0  0
   -5.1743    2.8371   -4.2463 H   0  0  0  0  0
   -2.8544    2.4724   -5.0620 H   0  0  0  0  0
   -1.2318   -0.7864   -4.8537 H   0  0  0  0  0
    1.5196    1.6018   -5.1256 C   0  0  0  0  0
    2.6534    1.6707   -4.3100 C   0  0  0  0  0
    3.8231    2.1482   -4.8328 O   0  0  0  0  0
    3.6779    2.3866   -5.7646 H   0  0  0  0  0
    1.5745    1.9264   -6.1623 H   0  0  0  0  0
   -0.6787    0.3260   -2.8529 H   0  0  0  0  0
  1  2  2  0  0  0
  2  3  1  0  0  0
  2  7  1  0  0  0
  3  4  2  0  0  0
  3 50  1  0  0  0
  4  5  1  0  0  0
  4 24  1  0  0  0
  5  6  1  0  0  0
  6  7  2  0  0  0
  6  9  1  0  0  0
  7  8  1  0  0  0
  9 10  2  0  0  0
  9 19  1  0  0  0
 10 11  1  0  0  0
 10 23  1  0  0  0
 11 12  2  0  0  0
 11 22  1  0  0  0
 12 13  1  0  0  0
 12 18  1  0  0  0
 13 14  1  0  0  0
 14 15  1  0  0  0
 14 16  1  0  0  0
 14 17  1  0  0  0
 18 19  2  0  0  0
 18 21  1  0  0  0
 19 20  1  0  0  0
 24 25  2  0  0  0
 24 54  1  0  0  0
 25 26  1  0  0  0
 25 49  1  0  0  0
 26 27  1  0  0  0
 27 28  1  0  0  0
 27 36  1  0  0  0
 27 48  1  0  0  0
 28 29  1  0  0  0
 29 30  1  0  0  0
 29 42  1  0  0  0
 29 47  1  0  0  0
 30 31  1  0  0  0
 30 33  1  0  0  0
 30 41  1  0  0  0
 31 32  1  0  0  0
 33 34  1  0  0  0
 33 36  1  0  0  0
 33 40  1  0  0  0
 34 35  1  0  0  0
 36 37  1  0  0  0
 36 39  1  0  0  0
 37 38  1  0  0  0
 42 43  1  0  0  0
 42 45  1  0  0  0
 42 46  1  0  0  0
 43 44  1  0  0  0
 49 50  2  0  0  0
 49 53  1  0  0  0
 50 51  1  0  0  0
 51 52  1  0  0  0
M  END
> <Tumorigenic>
none

> <Score>
36.496037

> <Active/Decoy>
active

> <InChI>
InChI=1S/C22H22O10/c1-29-11-4-2-10(3-5-11)15-8-14(25)18-13(24)6-12(7-16(18)31-15)30-22-21(28)20(27)19(26)17(9-23)32-22/h2-8,17,19-24,26-28H,9H2,1H3/t17-,19-,20+,21-,22+/m1/s1

> <Matching Features>
H:14924486185440016873||HBA:14924321692640012300|HBA:14924486112070016868

> <Mol. Index>
298

> <Pharmacophore Match>
Model -1

> <# Confs.>
25

> <Source Database>
Pharm-Screening-input-NANPDB_After_DataWarror.ldb

> <Pharmacophore-Fit Score>
36.5

> <formula>
C22H22O10

> <Mutagenic>
none

> <Reproductive Effective>
none

> <Irritant>
none

$$$$
Sargassaceae meroditerpenoid 2
XX    ILIB03122402113D

 75 77  0  0  1  0              1 V2000
    6.0150    2.9107    0.9592 O   0  0  0  0  0
    4.8606    2.5035    0.7939 C   0  0  0  0  0
    4.2670    1.3934    1.6853 C   0  0  1  0  0
    3.2823    0.4488    0.9264 C   0  0  1  0  0
    2.4467    1.1594   -0.1664 C   0  0  0  0  0
    3.2130    2.1513   -1.0745 C   0  0  2  0  0
    4.1883    1.4311   -1.8307 O   0  0  0  0  0
    4.6419    2.0619   -2.4147 H   0  0  0  0  0
    3.9691    3.1995   -0.2285 C   0  0  1  0  0
    3.1250    4.2668    0.4726 C   0  0  0  0  0
    3.8941    5.3854    1.1887 C   0  0  0  0  0
    4.7269    4.8133    2.2031 O   0  0  0  0  0
    5.4146    4.2808    1.7688 H   0  0  0  0  0
    4.7919    6.1828    0.2333 C   0  0  0  0  0
    5.3682    6.9352    0.7830 H   0  0  0  0  0
    4.2116    6.6938   -0.5415 H   0  0  0  0  0
    5.5278    5.5346   -0.2539 H   0  0  0  0  0
    2.9412    6.3536    1.9015 C   0  0  0  0  0
    2.2574    6.8417    1.2001 H   0  0  0  0  0
    3.5030    7.1317    2.4313 H   0  0  0  0  0
    2.3481    5.8363    2.6632 H   0  0  0  0  0
    2.4546    3.7774    1.1916 H   0  0  0  0  0
    2.4741    4.7259   -0.2837 H   0  0  0  0  0
    4.6740    3.7132   -0.8997 H   0  0  0  0  0
    2.2590    2.7983   -2.0718 C   0  0  0  0  0
    1.5555    1.8450   -2.9890 C   0  0  0  0  0
    0.2186    1.6950   -3.0574 C   0  0  0  0  0
   -0.8257    2.4145   -2.2589 C   0  0  0  0  0
   -2.0666    1.5930   -2.0523 C   0  0  0  0  0
   -2.2425    0.7345   -0.9526 C   0  0  0  0  0
   -1.2833    0.5945    0.0175 O   0  0  0  0  0
   -0.4954    1.1096   -0.2141 H   0  0  0  0  0
   -3.4158   -0.0204   -0.8018 C   0  0  0  0  0
   -4.4261    0.0946   -1.7644 C   0  0  0  0  0
   -4.2689    0.9324   -2.8726 C   0  0  0  0  0
   -3.0918    1.6721   -3.0131 C   0  0  0  0  0
   -2.9482    2.3282   -3.8685 H   0  0  0  0  0
   -5.3224    0.9441   -3.7431 O   0  0  0  0  0
   -5.1684    1.7964   -4.8742 C   0  0  0  0  0
   -5.0664    2.8441   -4.5680 H   0  0  0  0  0
   -6.0739    1.7112   -5.4824 H   0  0  0  0  0
   -4.3201    1.4839   -5.4933 H   0  0  0  0  0
   -5.3453   -0.4765   -1.6534 H   0  0  0  0  0
   -3.6182   -0.9208    0.3851 C   0  0  0  0  0
   -3.7390   -0.3233    1.2932 H   0  0  0  0  0
   -4.5091   -1.5460    0.2681 H   0  0  0  0  0
   -2.7637   -1.5939    0.5051 H   0  0  0  0  0
   -0.4306    2.7217   -1.2817 H   0  0  0  0  0
   -1.0885    3.3463   -2.7774 H   0  0  0  0  0
   -0.1793    0.9631   -3.7580 H   0  0  0  0  0
    2.4585    0.9948   -3.8439 C   0  0  0  0  0
    3.0487    1.6357   -4.5064 H   0  0  0  0  0
    1.8991    0.2939   -4.4723 H   0  0  0  0  0
    3.1439    0.4072   -3.2253 H   0  0  0  0  0
    1.5244    3.3937   -1.5136 H   0  0  0  0  0
    2.8162    3.5342   -2.6879 H   0  0  0  0  0
    1.9855    0.3781   -0.7853 H   0  0  0  0  0
    1.6186    1.6960    0.3132 H   0  0  0  0  0
    4.1837   -0.6813    0.3401 C   0  0  0  0  0
    5.5925   -0.4444    0.8686 C   0  0  0  0  0
    5.3989    0.4281    2.0973 C   0  0  0  0  0
    5.0951   -0.1963    2.9464 H   0  0  0  0  0
    6.3310    0.9281    2.3809 H   0  0  0  0  0
    6.1060   -1.3798    1.1050 H   0  0  0  0  0
    6.1912    0.0813    0.1154 H   0  0  0  0  0
    3.8431   -1.6696    0.6712 H   0  0  0  0  0
    4.1825   -0.7221   -0.7528 H   0  0  0  0  0
    2.2675   -0.2371    1.8791 C   0  0  0  0  0
    2.7700   -0.7806    2.6860 H   0  0  0  0  0
    1.5854    0.4865    2.3378 H   0  0  0  0  0
    1.6476   -0.9594    1.3346 H   0  0  0  0  0
    3.6931    2.0786    2.9330 C   0  0  0  0  0
    4.3999    2.8087    3.3437 H   0  0  0  0  0
    3.4731    1.3633    3.7314 H   0  0  0  0  0
    2.7659    2.6138    2.7078 H   0  0  0  0  0
  1  2  2  0  0  0
  2  3  1  0  0  0
  2  9  1  0  0  0
  3  4  1  0  0  0
  3 61  1  0  0  0
  3 72  1  0  0  0
  4  5  1  0  0  0
  4 59  1  0  0  0
  4 68  1  0  0  0
  5  6  1  0  0  0
  5 57  1  0  0  0
  5 58  1  0  0  0
  6  7  1  0  0  0
  6  9  1  0  0  0
  6 25  1  0  0  0
  7  8  1  0  0  0
  9 10  1  0  0  0
  9 24  1  0  0  0
 10 11  1  0  0  0
 10 22  1  0  0  0
 10 23  1  0  0  0
 11 12  1  0  0  0
 11 14  1  0  0  0
 11 18  1  0  0  0
 12 13  1  0  0  0
 14 15  1  0  0  0
 14 16  1  0  0  0
 14 17  1  0  0  0
 18 19  1  0  0  0
 18 20  1  0  0  0
 18 21  1  0  0  0
 25 26  1  0  0  0
 25 55  1  0  0  0
 25 56  1  0  0  0
 26 27  2  0  0  0
 26 51  1  0  0  0
 27 28  1  0  0  0
 27 50  1  0  0  0
 28 29  1  0  0  0
 28 48  1  0  0  0
 28 49  1  0  0  0
 29 30  2  0  0  0
 29 36  1  0  0  0
 30 31  1  0  0  0
 30 33  1  0  0  0
 31 32  1  0  0  0
 33 34  2  0  0  0
 33 44  1  0  0  0
 34 35  1  0  0  0
 34 43  1  0  0  0
 35 36  2  0  0  0
 35 38  1  0  0  0
 36 37  1  0  0  0
 38 39  1  0  0  0
 39 40  1  0  0  0
 39 41  1  0  0  0
 39 42  1  0  0  0
 44 45  1  0  0  0
 44 46  1  0  0  0
 44 47  1  0  0  0
 51 52  1  0  0  0
 51 53  1  0  0  0
 51 54  1  0  0  0
 59 60  1  0  0  0
 59 66  1  0  0  0
 59 67  1  0  0  0
 60 61  1  0  0  0
 60 64  1  0  0  0
 60 65  1  0  0  0
 61 62  1  0  0  0
 61 63  1  0  0  0
 68 69  1  0  0  0
 68 70  1  0  0  0
 68 71  1  0  0  0
 72 73  1  0  0  0
 72 74  1  0  0  0
 72 75  1  0  0  0
M  END
> <Tumorigenic>
none

> <Score>
36.476166

> <Active/Decoy>
active

> <InChI>
InChI=1S/C28H42O5/c1-18(9-10-20-14-21(33-7)13-19(2)23(20)29)15-28(32)17-26(5)11-8-12-27(26,6)24(30)22(28)16-25(3,4)31/h9,13-14,22,29,31-32H,8,10-12,15-17H2,1-7H3/b18-9+/t22-,26+,27-,28-/m0/s1

> <Matching Features>
H:14924486185440016873||HBA:14924321692640012300|HBA:14924486112070016868

> <Mol. Index>
753

> <Pharmacophore Match>
Model -1

> <# Confs.>
25

> <Source Database>
Pharm-Screening-input-NANPDB_After_DataWarror.ldb

> <Pharmacophore-Fit Score>
36.48

> <formula>
C28H42O5

> <Mutagenic>
none

> <Reproductive Effective>
none

> <Irritant>
none

$$$$
anastatin B
XX    ILIB03122402113D

 42 46  0  0  1  0              1 V2000
    4.8606    1.7334   -2.3950 O   0  0  0  0  0
    3.7322    1.4611   -2.0003 C   0  0  0  0  0
    2.5467    1.5020   -2.8998 C   0  0  0  0  0
    1.2819    1.2280   -2.3392 C   0  0  0  0  0
    1.1034    0.8872   -1.0209 O   0  0  0  0  0
    2.2536    0.2311   -0.4484 C   0  0  2  0  0
    1.9523   -0.1248    0.9732 C   0  0  0  0  0
    1.6220    0.8642    1.9139 C   0  0  0  0  0
    1.3413    0.5231    3.2387 C   0  0  0  0  0
    1.3744   -0.8131    3.6239 C   0  0  0  0  0
    1.1076   -1.1788    4.9148 O   0  0  0  0  0
    0.9237   -0.3760    5.4327 H   0  0  0  0  0
    1.6824   -1.8110    2.7060 C   0  0  0  0  0
    1.9632   -1.4663    1.3821 C   0  0  0  0  0
    2.2057   -2.2549    0.6737 H   0  0  0  0  0
    1.7088   -2.8540    3.0074 H   0  0  0  0  0
    1.1018    1.3047    3.9542 H   0  0  0  0  0
    1.5970    1.9116    1.6241 H   0  0  0  0  0
    3.4679    1.1330   -0.5530 C   0  0  0  0  0
    4.3486    0.6296   -0.1383 H   0  0  0  0  0
    3.3198    2.0818   -0.0239 H   0  0  0  0  0
    2.4058   -0.7010   -1.0242 H   0  0  0  0  0
    0.1364    1.3224   -3.1565 C   0  0  0  0  0
    0.3061    1.6568   -4.4958 C   0  0  0  0  0
   -0.8956    1.6943   -5.1352 O   0  0  0  0  0
   -1.8508    1.3826   -4.2170 C   0  0  0  0  0
   -1.2704    1.1438   -2.9753 C   0  0  0  0  0
   -2.1104    0.8025   -1.8973 C   0  0  0  0  0
   -3.4903    0.7222   -2.1252 C   0  0  0  0  0
   -4.3363    0.3932   -1.1007 O   0  0  0  0  0
   -3.8108    0.2512   -0.2958 H   0  0  0  0  0
   -4.0304    0.9690   -3.3876 C   0  0  0  0  0
   -3.2206    1.3084   -4.4734 C   0  0  0  0  0
   -3.6252    1.5000   -5.4588 H   0  0  0  0  0
   -5.3784    0.8848   -3.6073 O   0  0  0  0  0
   -5.8066    0.6368   -2.7690 H   0  0  0  0  0
   -1.6974    0.6055   -0.9131 H   0  0  0  0  0
    1.5379    1.9137   -5.0888 C   0  0  0  0  0
    2.6615    1.8327   -4.2581 C   0  0  0  0  0
    3.8936    2.0884   -4.8030 O   0  0  0  0  0
    3.7842    2.2959   -5.7460 H   0  0  0  0  0
    1.6139    2.1694   -6.1400 H   0  0  0  0  0
  1  2  2  0  0  0
  2  3  1  0  0  0
  2 19  1  0  0  0
  3  4  2  0  0  0
  3 39  1  0  0  0
  4  5  1  0  0  0
  4 23  1  0  0  0
  5  6  1  0  0  0
  6  7  1  0  0  0
  6 19  1  0  0  0
  6 22  1  0  0  0
  7  8  2  0  0  0
  7 14  1  0  0  0
  8  9  1  0  0  0
  8 18  1  0  0  0
  9 10  2  0  0  0
  9 17  1  0  0  0
 10 11  1  0  0  0
 10 13  1  0  0  0
 11 12  1  0  0  0
 13 14  2  0  0  0
 13 16  1  0  0  0
 14 15  1  0  0  0
 19 20  1  0  0  0
 19 21  1  0  0  0
 23 24  2  0  0  0
 23 27  1  0  0  0
 24 25  1  0  0  0
 24 38  1  0  0  0
 25 26  1  0  0  0
 26 27  2  0  0  0
 26 33  1  0  0  0
 27 28  1  0  0  0
 28 29  2  0  0  0
 28 37  1  0  0  0
 29 30  1  0  0  0
 29 32  1  0  0  0
 30 31  1  0  0  0
 32 33  2  0  0  0
 32 35  1  0  0  0
 33 34  1  0  0  0
 35 36  1  0  0  0
 38 39  2  0  0  0
 38 42  1  0  0  0
 39 40  1  0  0  0
 40 41  1  0  0  0
M  END
> <Tumorigenic>
none

> <Score>
36.459827

> <Active/Decoy>
active

> <InChI>
InChI=1S/C21H14O7/c22-10-3-1-9(2-4-10)16-7-14(25)20-15(26)8-18-19(21(20)28-16)11-5-12(23)13(24)6-17(11)27-18/h1-6,8,16,22-24,26H,7H2/t16-/m0/s1

> <Matching Features>
H:14924486185440016873||HBA:14924321692640012300|HBA:14924486112070016868

> <Mol. Index>
242

> <Pharmacophore Match>
Model -1

> <# Confs.>
4

> <Source Database>
Pharm-Screening-input-NANPDB_After_DataWarror.ldb

> <Pharmacophore-Fit Score>
36.46

> <formula>
C21H14O7

> <Mutagenic>
none

> <Reproductive Effective>
none

> <Irritant>
none

$$$$
apigenin-7-O-acetyl-glucoside
XX    ILIB03122402113D

 56 59  0  0  1  0              1 V2000
    5.0639    1.7303   -2.3189 O   0  0  0  0  0
    3.9318    1.5158   -1.9079 C   0  0  0  0  0
    2.7194    1.8642   -2.6765 C   0  0  0  0  0
    1.4775    1.5780   -2.1092 C   0  0  0  0  0
    1.3313    1.0026   -0.8722 O   0  0  0  0  0
    2.4666    0.6807   -0.1443 C   0  0  0  0  0
    3.7161    0.8997   -0.5828 C   0  0  0  0  0
    4.6038    0.6526   -0.0106 H   0  0  0  0  0
    2.1832    0.0790    1.1734 C   0  0  0  0  0
    1.0095    0.4078    1.8750 C   0  0  0  0  0
    0.7307   -0.1565    3.1238 C   0  0  0  0  0
    1.6250   -1.0619    3.6847 C   0  0  0  0  0
    1.3812   -1.6300    4.9034 O   0  0  0  0  0
    0.5366   -1.2824    5.2405 H   0  0  0  0  0
    2.7905   -1.4084    3.0129 C   0  0  0  0  0
    3.0672   -0.8419    1.7663 C   0  0  0  0  0
    3.9874   -1.1396    1.2680 H   0  0  0  0  0
    3.4901   -2.1171    3.4487 H   0  0  0  0  0
   -0.1832    0.1186    3.6417 H   0  0  0  0  0
    0.2900    1.1135    1.4653 H   0  0  0  0  0
    0.2937    1.8676   -2.7995 C   0  0  0  0  0
    0.3475    2.4630   -4.0620 C   0  0  0  0  0
   -0.7360    2.8022   -4.8139 O   0  0  0  0  0
   -2.0197    2.5392   -4.2429 C   0  0  2  0  0
   -2.1813    1.1329   -4.0009 O   0  0  0  0  0
   -3.4530    0.8127   -3.4261 C   0  0  1  0  0
   -4.5637    1.1491   -4.4232 C   0  0  1  0  0
   -5.8307    0.9081   -3.8193 O   0  0  0  0  0
   -6.5129    1.1515   -4.4688 H   0  0  0  0  0
   -4.4815    2.6150   -4.8473 C   0  0  2  0  0
   -5.3862    2.8442   -5.9288 O   0  0  0  0  0
   -5.1181    2.2738   -6.6697 H   0  0  0  0  0
   -3.0666    2.9872   -5.2835 C   0  0  1  0  0
   -3.0036    4.4126   -5.4144 O   0  0  0  0  0
   -2.0858    4.6426   -5.6378 H   0  0  0  0  0
   -2.8490    2.5697   -6.2689 H   0  0  0  0  0
   -4.8188    3.2667   -4.0328 H   0  0  0  0  0
   -4.4891    0.5028   -5.3066 H   0  0  0  0  0
   -3.4373   -0.6700   -3.0797 C   0  0  0  0  0
   -2.3794   -0.9178   -2.1419 O   0  0  0  0  0
   -2.2280   -2.1954   -1.7286 C   0  0  0  0  0
   -2.9016   -3.1557   -2.0755 O   0  0  0  0  0
   -1.0793   -2.2793   -0.7697 C   0  0  0  0  0
   -0.1477   -2.0370   -1.2876 H   0  0  0  0  0
   -1.0084   -3.2964   -0.3758 H   0  0  0  0  0
   -1.2437   -1.5973    0.0677 H   0  0  0  0  0
   -3.2957   -1.2670   -3.9917 H   0  0  0  0  0
   -4.4068   -0.9502   -2.6452 H   0  0  0  0  0
   -3.5741    1.3833   -2.4953 H   0  0  0  0  0
   -2.1430    3.1035   -3.3229 H   0  0  0  0  0
    1.5923    2.7435   -4.6348 C   0  0  0  0  0
    2.7722    2.4368   -3.9497 C   0  0  0  0  0
    3.9760    2.7277   -4.5316 O   0  0  0  0  0
    3.8147    3.1352   -5.3996 H   0  0  0  0  0
    1.6380    3.2079   -5.6174 H   0  0  0  0  0
   -0.6533    1.6292   -2.3231 H   0  0  0  0  0
  1  2  2  0  0  0
  2  3  1  0  0  0
  2  7  1  0  0  0
  3  4  2  0  0  0
  3 52  1  0  0  0
  4  5  1  0  0  0
  4 21  1  0  0  0
  5  6  1  0  0  0
  6  7  2  0  0  0
  6  9  1  0  0  0
  7  8  1  0  0  0
  9 10  2  0  0  0
  9 16  1  0  0  0
 10 11  1  0  0  0
 10 20  1  0  0  0
 11 12  2  0  0  0
 11 19  1  0  0  0
 12 13  1  0  0  0
 12 15  1  0  0  0
 13 14  1  0  0  0
 15 16  2  0  0  0
 15 18  1  0  0  0
 16 17  1  0  0  0
 21 22  2  0  0  0
 21 56  1  0  0  0
 22 23  1  0  0  0
 22 51  1  0  0  0
 23 24  1  0  0  0
 24 25  1  0  0  0
 24 33  1  0  0  0
 24 50  1  0  0  0
 25 26  1  0  0  0
 26 27  1  0  0  0
 26 39  1  0  0  0
 26 49  1  0  0  0
 27 28  1  0  0  0
 27 30  1  0  0  0
 27 38  1  0  0  0
 28 29  1  0  0  0
 30 31  1  0  0  0
 30 33  1  0  0  0
 30 37  1  0  0  0
 31 32  1  0  0  0
 33 34  1  0  0  0
 33 36  1  0  0  0
 34 35  1  0  0  0
 39 40  1  0  0  0
 39 47  1  0  0  0
 39 48  1  0  0  0
 40 41  1  0  0  0
 41 42  2  0  0  0
 41 43  1  0  0  0
 43 44  1  0  0  0
 43 45  1  0  0  0
 43 46  1  0  0  0
 51 52  2  0  0  0
 51 55  1  0  0  0
 52 53  1  0  0  0
 53 54  1  0  0  0
M  END
> <Tumorigenic>
none

> <Score>
36.43848

> <Active/Decoy>
active

> <InChI>
InChI=1S/C23H22O11/c1-10(24)31-9-18-20(28)21(29)22(30)23(34-18)32-13-6-14(26)19-15(27)8-16(33-17(19)7-13)11-2-4-12(25)5-3-11/h2-8,18,20-23,25-26,28-30H,9H2,1H3/t18-,20-,21+,22-,23-/m1/s1

> <Matching Features>
H:14924486185440016873||HBA:14924321692640012300|HBA:14924486112070016868

> <Mol. Index>
1097

> <Pharmacophore Match>
Model -1

> <# Confs.>
25

> <Source Database>
Pharm-Screening-input-NANPDB_After_DataWarror.ldb

> <Pharmacophore-Fit Score>
36.44

> <formula>
C23H22O11

> <Mutagenic>
none

> <Reproductive Effective>
none

> <Irritant>
none

$$$$
coladin
XX    ILIB03122402113D

 63 66  0  0  1  0              1 V2000
    4.1412    1.5336   -2.1142 O   0  0  0  0  0
    3.9740    1.0985   -0.9795 C   0  0  0  0  0
    2.7313    0.6683   -0.5306 O   0  0  0  0  0
    2.5451    0.1780    0.7797 C   0  0  0  0  0
    3.6177    0.1042    1.6632 C   0  0  0  0  0
    3.3918   -0.3808    2.9510 C   0  0  0  0  0
    2.1071   -0.7819    3.3317 C   0  0  0  0  0
    1.0347   -0.7029    2.4337 C   0  0  0  0  0
    1.2564   -0.2174    1.1434 C   0  0  0  0  0
    0.4581   -0.1379    0.4126 H   0  0  0  0  0
   -0.1641   -1.1180    2.9192 O   0  0  0  0  0
   -1.0702   -1.6723    1.9739 C   0  0  0  0  0
   -2.3690   -0.8943    1.9374 C   0  0  1  0  0
   -3.4786   -1.3891    0.9117 C   0  0  1  0  0
   -4.6243   -0.2944    0.8870 C   0  0  1  0  0
   -5.7016   -0.4223   -0.2553 C   0  0  0  0  0
   -4.9717   -0.6124   -1.6194 C   0  0  2  0  0
   -5.9305   -0.8868   -2.6548 O   0  0  0  0  0
   -5.9855   -0.0144   -3.6990 C   0  0  0  0  0
   -5.2970    0.9861   -3.8445 O   0  0  0  0  0
   -7.0134   -0.4734   -4.6869 C   0  0  0  0  0
   -7.2585    0.3499   -5.3636 H   0  0  0  0  0
   -6.6207   -1.3117   -5.2654 H   0  0  0  0  0
   -7.9317   -0.7630   -4.1667 H   0  0  0  0  0
   -3.9436   -1.7410   -1.5962 C   0  0  0  0  0
   -2.8953   -1.5330   -0.5095 C   0  0  0  0  0
   -2.3219   -0.6304   -0.7577 H   0  0  0  0  0
   -2.1962   -2.3762   -0.5552 H   0  0  0  0  0
   -3.4386   -1.7906   -2.5686 H   0  0  0  0  0
   -4.4391   -2.7124   -1.4909 H   0  0  0  0  0
   -4.4455    0.3241   -1.8605 H   0  0  0  0  0
   -6.5092    0.9033   -0.3537 C   0  0  0  0  0
   -5.8439    1.7699   -0.4335 H   0  0  0  0  0
   -7.1560    1.0529    0.5160 H   0  0  0  0  0
   -7.1623    0.9119   -1.2339 H   0  0  0  0  0
   -6.7496   -1.5304   -0.0177 C   0  0  0  0  0
   -7.5864   -1.4365   -0.7203 H   0  0  0  0  0
   -7.1813   -1.4740    0.9862 H   0  0  0  0  0
   -6.3520   -2.5337   -0.1617 H   0  0  0  0  0
   -5.2182   -0.0589    2.2970 C   0  0  0  0  0
   -4.1395    0.3240    3.3125 C   0  0  0  0  0
   -3.0075   -0.6695    3.3109 C   0  0  0  0  0
   -2.6573   -1.2991    4.4444 C   0  0  0  0  0
   -1.8670   -2.0385    4.4801 H   0  0  0  0  0
   -3.1710   -1.0961    5.3784 H   0  0  0  0  0
   -3.7396    1.3162    3.0695 H   0  0  0  0  0
   -4.6005    0.4103    4.3039 H   0  0  0  0  0
   -5.9505    0.7533    2.2790 H   0  0  0  0  0
   -5.7509   -0.9486    2.6484 H   0  0  0  0  0
   -4.0962    0.6432    0.6443 H   0  0  0  0  0
   -3.9826   -2.7877    1.3766 C   0  0  0  0  0
   -4.6697   -3.2463    0.6686 H   0  0  0  0  0
   -3.1532   -3.4959    1.4685 H   0  0  0  0  0
   -4.4879   -2.7595    2.3457 H   0  0  0  0  0
   -2.0653    0.1182    1.5868 H   0  0  0  0  0
   -0.6173   -1.7327    0.9832 H   0  0  0  0  0
   -1.2842   -2.7082    2.3030 H   0  0  0  0  0
    1.9487   -1.1573    4.3402 H   0  0  0  0  0
    4.2044   -0.4518    3.6698 H   0  0  0  0  0
    4.9299    0.5351    1.2141 C   0  0  0  0  0
    5.0953    1.0030   -0.0260 C   0  0  0  0  0
    6.0719    1.3284   -0.3678 H   0  0  0  0  0
    5.7674    0.4730    1.8983 H   0  0  0  0  0
  1  2  2  0  0  0
  2  3  1  0  0  0
  2 61  1  0  0  0
  3  4  1  0  0  0
  4  5  2  0  0  0
  4  9  1  0  0  0
  5  6  1  0  0  0
  5 60  1  0  0  0
  6  7  2  0  0  0
  6 59  1  0  0  0
  7  8  1  0  0  0
  7 58  1  0  0  0
  8  9  2  0  0  0
  8 11  1  0  0  0
  9 10  1  0  0  0
 11 12  1  0  0  0
 12 13  1  0  0  0
 12 56  1  0  0  0
 12 57  1  0  0  0
 13 14  1  0  0  0
 13 42  1  0  0  0
 13 55  1  0  0  0
 14 15  1  0  0  0
 14 26  1  0  0  0
 14 51  1  0  0  0
 15 16  1  0  0  0
 15 40  1  0  0  0
 15 50  1  0  0  0
 16 17  1  0  0  0
 16 32  1  0  0  0
 16 36  1  0  0  0
 17 18  1  0  0  0
 17 25  1  0  0  0
 17 31  1  0  0  0
 18 19  1  0  0  0
 19 20  2  0  0  0
 19 21  1  0  0  0
 21 22  1  0  0  0
 21 23  1  0  0  0
 21 24  1  0  0  0
 25 26  1  0  0  0
 25 29  1  0  0  0
 25 30  1  0  0  0
 26 27  1  0  0  0
 26 28  1  0  0  0
 32 33  1  0  0  0
 32 34  1  0  0  0
 32 35  1  0  0  0
 36 37  1  0  0  0
 36 38  1  0  0  0
 36 39  1  0  0  0
 40 41  1  0  0  0
 40 48  1  0  0  0
 40 49  1  0  0  0
 41 42  1  0  0  0
 41 46  1  0  0  0
 41 47  1  0  0  0
 42 43  2  0  0  0
 43 44  1  0  0  0
 43 45  1  0  0  0
 51 52  1  0  0  0
 51 53  1  0  0  0
 51 54  1  0  0  0
 60 61  2  0  0  0
 60 63  1  0  0  0
 61 62  1  0  0  0
M  END
> <Tumorigenic>
none

> <Score>
36.44299

> <Active/Decoy>
active

> <InChI>
InChI=1S/C26H32O5/c1-16-6-10-22-25(3,4)23(30-17(2)27)12-13-26(22,5)20(16)15-29-19-9-7-18-8-11-24(28)31-21(18)14-19/h7-9,11,14,20,22-23H,1,6,10,12-13,15H2,2-5H3/t20-,22-,23-,26+/m1/s1

> <Matching Features>
H:14924486185440016873||HBA:14924321692640012300|HBA:14924486112070016868

> <Mol. Index>
960

> <Pharmacophore Match>
Model -1

> <# Confs.>
25

> <Source Database>
Pharm-Screening-input-NANPDB_After_DataWarror.ldb

> <Pharmacophore-Fit Score>
36.44

> <formula>
C26H32O5

> <Mutagenic>
none

> <Reproductive Effective>
none

> <Irritant>
none

$$$$
apigenin-7-O-beta-glucopyranoside
XX    ILIB03122402113D

 51 54  0  0  1  0              1 V2000
    5.0598    1.7298   -2.3189 O   0  0  0  0  0
    3.9272    1.5166   -1.9082 C   0  0  0  0  0
    2.7161    1.8634   -2.6763 C   0  0  0  0  0
    1.4739    1.5788   -2.1090 C   0  0  0  0  0
    1.3285    1.0055   -0.8706 O   0  0  0  0  0
    2.4626    0.6848   -0.1425 C   0  0  0  0  0
    3.7127    0.9026   -0.5813 C   0  0  0  0  0
    4.6014    0.6566   -0.0092 H   0  0  0  0  0
    2.1792    0.0854    1.1765 C   0  0  0  0  0
    1.0222   -0.6868    1.3810 C   0  0  0  0  0
    0.7434   -1.2593    2.6251 C   0  0  0  0  0
    1.6267   -1.0676    3.6818 C   0  0  0  0  0
    1.3821   -1.6140    4.9102 O   0  0  0  0  0
    0.5417   -2.1022    4.8705 H   0  0  0  0  0
    2.7801   -0.3126    3.5097 C   0  0  0  0  0
    3.0540    0.2590    2.2651 C   0  0  0  0  0
    3.9683    0.8402    2.1649 H   0  0  0  0  0
    3.4721   -0.1640    4.3353 H   0  0  0  0  0
   -0.1598   -1.8486    2.7515 H   0  0  0  0  0
    0.3120   -0.8541    0.5747 H   0  0  0  0  0
    0.2903    1.8872   -2.7898 C   0  0  0  0  0
    0.3331    2.4596   -4.0617 C   0  0  0  0  0
   -0.7311    2.8055   -4.8302 O   0  0  0  0  0
   -2.0205    2.5244   -4.2635 C   0  0  2  0  0
   -2.1778    1.1325   -4.0022 O   0  0  0  0  0
   -3.4494    0.8132   -3.4262 C   0  0  1  0  0
   -4.5607    1.1480   -4.4236 C   0  0  1  0  0
   -5.8281    0.9085   -3.8195 O   0  0  0  0  0
   -6.5104    1.1507   -4.4690 H   0  0  0  0  0
   -4.4779    2.6137   -4.8516 C   0  0  2  0  0
   -5.3818    2.8407   -5.9323 O   0  0  0  0  0
   -5.1153    2.2689   -6.6724 H   0  0  0  0  0
   -3.0635    2.9846   -5.2882 C   0  0  1  0  0
   -3.0002    4.4097   -5.4215 O   0  0  0  0  0
   -2.0819    4.6391   -5.6455 H   0  0  0  0  0
   -2.8462    2.5654   -6.2731 H   0  0  0  0  0
   -4.8152    3.2666   -4.0376 H   0  0  0  0  0
   -4.4846    0.5001   -5.3059 H   0  0  0  0  0
   -3.4342   -0.6648   -3.0788 C   0  0  0  0  0
   -3.2173   -1.4327   -4.2576 O   0  0  0  0  0
   -2.3783   -1.1350   -4.6482 H   0  0  0  0  0
   -2.6352   -0.9063   -2.3700 H   0  0  0  0  0
   -4.3924   -0.9780   -2.6513 H   0  0  0  0  0
   -3.5704    1.3857   -2.4966 H   0  0  0  0  0
   -2.1392    3.1043   -3.3278 H   0  0  0  0  0
    1.5885    2.7395   -4.6363 C   0  0  0  0  0
    2.7688    2.4342   -3.9515 C   0  0  0  0  0
    3.9717    2.7235   -4.5336 O   0  0  0  0  0
    3.8117    3.1298   -5.4027 H   0  0  0  0  0
    1.6341    3.2021   -5.6197 H   0  0  0  0  0
   -0.6568    1.6300   -2.3226 H   0  0  0  0  0
  1  2  2  0  0  0
  2  3  1  0  0  0
  2  7  1  0  0  0
  3  4  2  0  0  0
  3 47  1  0  0  0
  4  5  1  0  0  0
  4 21  1  0  0  0
  5  6  1  0  0  0
  6  7  2  0  0  0
  6  9  1  0  0  0
  7  8  1  0  0  0
  9 10  2  0  0  0
  9 16  1  0  0  0
 10 11  1  0  0  0
 10 20  1  0  0  0
 11 12  2  0  0  0
 11 19  1  0  0  0
 12 13  1  0  0  0
 12 15  1  0  0  0
 13 14  1  0  0  0
 15 16  2  0  0  0
 15 18  1  0  0  0
 16 17  1  0  0  0
 21 22  2  0  0  0
 21 51  1  0  0  0
 22 23  1  0  0  0
 22 46  1  0  0  0
 23 24  1  0  0  0
 24 25  1  0  0  0
 24 33  1  0  0  0
 24 45  1  0  0  0
 25 26  1  0  0  0
 26 27  1  0  0  0
 26 39  1  0  0  0
 26 44  1  0  0  0
 27 28  1  0  0  0
 27 30  1  0  0  0
 27 38  1  0  0  0
 28 29  1  0  0  0
 30 31  1  0  0  0
 30 33  1  0  0  0
 30 37  1  0  0  0
 31 32  1  0  0  0
 33 34  1  0  0  0
 33 36  1  0  0  0
 34 35  1  0  0  0
 39 40  1  0  0  0
 39 42  1  0  0  0
 39 43  1  0  0  0
 40 41  1  0  0  0
 46 47  2  0  0  0
 46 50  1  0  0  0
 47 48  1  0  0  0
 48 49  1  0  0  0
M  END
> <Tumorigenic>
none

> <Score>
36.4444

> <Active/Decoy>
active

> <InChI>
InChI=1S/C21H20O10/c22-8-16-18(26)19(27)20(28)21(31-16)29-11-5-12(24)17-13(25)7-14(30-15(17)6-11)9-1-3-10(23)4-2-9/h1-7,16,18-24,26-28H,8H2/t16-,18-,19+,20-,21-/m1/s1

> <Matching Features>
H:14924486185440016873||HBA:14924321692640012300|HBA:14924486112070016868

> <Mol. Index>
2

> <Pharmacophore Match>
Model -1

> <# Confs.>
25

> <Source Database>
Pharm-Screening-input-NANPDB_After_DataWarror.ldb

> <Pharmacophore-Fit Score>
36.44

> <formula>
C21H20O10

> <Mutagenic>
none

> <Reproductive Effective>
none

> <Irritant>
none

$$$$
6-O-deacetylsecomahoganin
XX    ILIB03122402113D

 69 73  0  0  1  0              1 V2000
   -5.0570    0.9317   -3.6219 O   0  0  0  0  0
   -4.5979    0.4943   -2.5674 C   0  0  0  0  0
   -3.8915    1.4237   -1.6723 C   0  0  0  0  0
   -3.0888    0.9460   -0.7222 C   0  0  0  0  0
   -2.7159   -0.5041   -0.4846 C   0  0  1  0  0
   -3.4546   -1.5057   -1.4948 C   0  0  1  0  0
   -3.6491   -2.9168   -0.9682 C   0  0  0  0  0
   -3.6388   -3.8395   -2.0528 O   0  0  0  0  0
   -2.7930   -3.7302   -2.5191 H   0  0  0  0  0
   -2.8511   -3.2047   -0.2758 H   0  0  0  0  0
   -4.6118   -3.0169   -0.4584 H   0  0  0  0  0
   -4.8052   -0.9455   -2.0865 C   0  0  0  0  0
   -5.2546   -1.7815   -3.3101 C   0  0  0  0  0
   -4.4481   -1.8653   -4.0476 H   0  0  0  0  0
   -5.5705   -2.7910   -3.0316 H   0  0  0  0  0
   -6.1109   -1.3226   -3.8190 H   0  0  0  0  0
   -5.9712   -0.9273   -1.0813 C   0  0  0  0  0
   -6.2176   -1.9313   -0.7230 H   0  0  0  0  0
   -5.7643   -0.2961   -0.2135 H   0  0  0  0  0
   -6.8761   -0.5189   -1.5468 H   0  0  0  0  0
   -2.7796   -1.6047   -2.3567 H   0  0  0  0  0
   -1.1574   -0.5261   -0.6357 C   0  0  2  0  0
   -0.5341   -0.1251   -2.0292 C   0  0  1  0  0
   -0.8691    1.3150   -2.2832 C   0  0  0  0  0
   -0.5310    2.2224   -1.5328 O   0  0  0  0  0
   -1.6105    1.4551   -3.4175 O   0  0  0  0  0
   -2.0098    2.7945   -3.7241 C   0  0  0  0  0
   -2.6579    3.1856   -2.9344 H   0  0  0  0  0
   -2.5712    2.7771   -4.6613 H   0  0  0  0  0
   -1.1300    3.4326   -3.8532 H   0  0  0  0  0
    1.0134   -0.2851   -1.9831 C   0  0  1  0  0
    1.6251    0.1808   -3.2104 O   0  0  0  0  0
    1.9728    0.9066   -2.0379 C   0  0  2  0  0
    3.4038    0.7638   -1.7102 C   0  0  0  0  0
    4.2284    1.5567   -2.1453 O   0  0  0  0  0
    3.7396   -0.2979   -0.9253 O   0  0  0  0  0
    2.7178   -1.1515   -0.3389 C   0  0  2  0  0
    1.6331   -1.5515   -1.3982 C   0  0  1  0  0
    0.5751   -2.5019   -0.8066 C   0  0  0  0  0
   -0.5831   -1.8628   -0.0554 C   0  0  0  0  0
   -0.2907   -1.6853    0.9858 H   0  0  0  0  0
   -1.3642   -2.6285    0.0207 H   0  0  0  0  0
    0.1392   -3.1077   -1.6107 H   0  0  0  0  0
    1.0579   -3.2398   -0.1517 H   0  0  0  0  0
    2.3489   -2.3654   -2.5184 C   0  0  0  0  0
    3.1864   -1.8214   -2.9673 H   0  0  0  0  0
    1.6544   -2.6119   -3.3300 H   0  0  0  0  0
    2.7487   -3.3070   -2.1239 H   0  0  0  0  0
    2.2486   -0.5889    0.9537 C   0  0  0  0  0
    1.6599    0.6433    1.1580 C   0  0  0  0  0
    1.3619    0.8319    2.4693 O   0  0  0  0  0
    1.7647   -0.2873    3.1235 C   0  0  0  0  0
    2.3142   -1.1884    2.2436 C   0  0  0  0  0
    2.7147   -2.1601    2.4973 H   0  0  0  0  0
    1.5953   -0.2911    4.1895 H   0  0  0  0  0
    1.3977    1.4600    0.5015 H   0  0  0  0  0
    3.2620   -2.0723   -0.0869 H   0  0  0  0  0
    1.5878    1.9113   -1.9347 H   0  0  0  0  0
   -1.1071   -0.9965   -3.1805 C   0  0  0  0  0
   -2.1431   -0.7275   -3.4115 H   0  0  0  0  0
   -0.5380   -0.8597   -4.1076 H   0  0  0  0  0
   -1.0863   -2.0650   -2.9608 H   0  0  0  0  0
   -0.7911    0.2361    0.0673 H   0  0  0  0  0
   -3.0636   -0.8109    0.9979 C   0  0  0  0  0
   -4.1412   -0.7702    1.1828 H   0  0  0  0  0
   -2.7110   -1.7963    1.3170 H   0  0  0  0  0
   -2.5969   -0.0817    1.6717 H   0  0  0  0  0
   -2.6124    1.6816   -0.0749 H   0  0  0  0  0
   -4.0481    2.4878   -1.8032 H   0  0  0  0  0
  1  2  2  0  0  0
  2  3  1  0  0  0
  2 12  1  0  0  0
  3  4  2  0  0  0
  3 69  1  0  0  0
  4  5  1  0  0  0
  4 68  1  0  0  0
  5  6  1  0  0  0
  5 22  1  0  0  0
  5 64  1  0  0  0
  6  7  1  0  0  0
  6 12  1  0  0  0
  6 21  1  0  0  0
  7  8  1  0  0  0
  7 10  1  0  0  0
  7 11  1  0  0  0
  8  9  1  0  0  0
 12 13  1  0  0  0
 12 17  1  0  0  0
 13 14  1  0  0  0
 13 15  1  0  0  0
 13 16  1  0  0  0
 17 18  1  0  0  0
 17 19  1  0  0  0
 17 20  1  0  0  0
 22 23  1  0  0  0
 22 40  1  0  0  0
 22 63  1  0  0  0
 23 24  1  0  0  0
 23 31  1  0  0  0
 23 59  1  0  0  0
 24 25  2  0  0  0
 24 26  1  0  0  0
 26 27  1  0  0  0
 27 28  1  0  0  0
 27 29  1  0  0  0
 27 30  1  0  0  0
 31 32  1  0  0  0
 31 33  1  0  0  0
 31 38  1  0  0  0
 32 33  1  0  0  0
 33 34  1  0  0  0
 33 58  1  0  0  0
 34 35  2  0  0  0
 34 36  1  0  0  0
 36 37  1  0  0  0
 37 38  1  0  0  0
 37 49  1  0  0  0
 37 57  1  0  0  0
 38 39  1  0  0  0
 38 45  1  0  0  0
 39 40  1  0  0  0
 39 43  1  0  0  0
 39 44  1  0  0  0
 40 41  1  0  0  0
 40 42  1  0  0  0
 45 46  1  0  0  0
 45 47  1  0  0  0
 45 48  1  0  0  0
 49 50  2  0  0  0
 49 53  1  0  0  0
 50 51  1  0  0  0
 50 56  1  0  0  0
 51 52  1  0  0  0
 52 53  2  0  0  0
 52 55  1  0  0  0
 53 54  1  0  0  0
 59 60  1  0  0  0
 59 61  1  0  0  0
 59 62  1  0  0  0
 64 65  1  0  0  0
 64 66  1  0  0  0
 64 67  1  0  0  0
M  END
> <Tumorigenic>
none

> <Score>
36.412254

> <Active/Decoy>
active

> <InChI>
InChI=1S/C27H34O8/c1-23(2)17(13-28)24(3,10-8-18(23)29)16-7-11-25(4)19(15-9-12-33-14-15)34-21(30)20-27(25,35-20)26(16,5)22(31)32-6/h8-10,12,14,16-17,19-20,28H,7,11,13H2,1-6H3/t16-,17+,19+,20-,24-,25-,26+,27-/m1/s1

> <Matching Features>
H:14924486185440016873||HBA:14924321692640012300|HBA:14924486112070016868

> <Mol. Index>
625

> <Pharmacophore Match>
Model -1

> <# Confs.>
12

> <Source Database>
Pharm-Screening-input-NANPDB_After_DataWarror.ldb

> <Pharmacophore-Fit Score>
36.41

> <formula>
C27H34O8

> <Mutagenic>
none

> <Reproductive Effective>
none

> <Irritant>
none

$$$$
sweroside
XX    ILIB03122402113D

 47 49  0  0  1  0              1 V2000
    4.5198    1.6168   -2.2047 O   0  0  0  0  0
    4.2550    0.5080   -1.7550 C   0  0  0  0  0
    5.1903   -0.4772   -1.7246 O   0  0  0  0  0
    4.9198   -1.8330   -1.3083 C   0  0  0  0  0
    3.8713   -1.8952   -0.2160 C   0  0  0  0  0
    2.6108   -1.2152   -0.7348 C   0  0  2  0  0
    2.9235    0.1723   -1.1976 C   0  0  0  0  0
    2.0253    1.1595   -1.0684 C   0  0  0  0  0
    0.7650    1.0423   -0.5437 O   0  0  0  0  0
    0.3164   -0.2945   -0.2823 C   0  0  1  0  0
   -0.2458   -0.8997   -1.4587 O   0  0  0  0  0
   -1.2913   -0.1294   -2.0582 C   0  0  2  0  0
   -2.3876    0.0509   -1.1420 O   0  0  0  0  0
   -3.4539    0.8257   -1.7023 C   0  0  1  0  0
   -4.0662    0.0726   -2.8849 C   0  0  1  0  0
   -5.0694    0.8802   -3.4917 O   0  0  0  0  0
   -5.4226    0.3835   -4.2510 H   0  0  0  0  0
   -2.9954   -0.2616   -3.9240 C   0  0  2  0  0
   -3.5473   -1.1425   -4.9038 O   0  0  0  0  0
   -3.8287   -1.9556   -4.4512 H   0  0  0  0  0
   -1.7829   -0.9238   -3.2737 C   0  0  1  0  0
   -0.7296   -0.9674   -4.2475 O   0  0  0  0  0
    0.0548   -1.3386   -3.8085 H   0  0  0  0  0
   -2.0083   -1.9571   -3.0079 H   0  0  0  0  0
   -2.6974    0.6426   -4.4672 H   0  0  0  0  0
   -4.5473   -0.8512   -2.5389 H   0  0  0  0  0
   -4.4712    1.0621   -0.6003 C   0  0  0  0  0
   -5.1359    2.3025   -0.8206 O   0  0  0  0  0
   -5.5451    2.2611   -1.7016 H   0  0  0  0  0
   -5.2327    0.2760   -0.5741 H   0  0  0  0  0
   -3.9859    1.1182    0.3782 H   0  0  0  0  0
   -3.0551    1.7987   -2.0194 H   0  0  0  0  0
   -0.8980    0.8400   -2.3679 H   0  0  0  0  0
    1.4214   -1.2250    0.2472 C   0  0  2  0  0
    1.7320   -0.9464    1.6875 C   0  0  0  0  0
    1.6332    0.2315    2.3153 C   0  0  0  0  0
    1.8885    0.3110    3.3673 H   0  0  0  0  0
    1.3020    1.1319    1.8123 H   0  0  0  0  0
    2.0674   -1.7983    2.2752 H   0  0  0  0  0
    1.0212   -2.2554    0.2367 H   0  0  0  0  0
   -0.4958   -0.2216    0.4650 H   0  0  0  0  0
    2.2032    2.1918   -1.3391 H   0  0  0  0  0
    2.2893   -1.7701   -1.6296 H   0  0  0  0  0
    4.2575   -1.3832    0.6730 H   0  0  0  0  0
    3.6682   -2.9360    0.0557 H   0  0  0  0  0
    4.6198   -2.4035   -2.1941 H   0  0  0  0  0
    5.8626   -2.2549   -0.9454 H   0  0  0  0  0
  1  2  2  0  0  0
  2  3  1  0  0  0
  2  7  1  0  0  0
  3  4  1  0  0  0
  4  5  1  0  0  0
  4 46  1  0  0  0
  4 47  1  0  0  0
  5  6  1  0  0  0
  5 44  1  0  0  0
  5 45  1  0  0  0
  6  7  1  0  0  0
  6 34  1  0  0  0
  6 43  1  0  0  0
  7  8  2  0  0  0
  8  9  1  0  0  0
  8 42  1  0  0  0
  9 10  1  0  0  0
 10 11  1  0  0  0
 10 34  1  0  0  0
 10 41  1  0  0  0
 11 12  1  0  0  0
 12 13  1  0  0  0
 12 21  1  0  0  0
 12 33  1  0  0  0
 13 14  1  0  0  0
 14 15  1  0  0  0
 14 27  1  0  0  0
 14 32  1  0  0  0
 15 16  1  0  0  0
 15 18  1  0  0  0
 15 26  1  0  0  0
 16 17  1  0  0  0
 18 19  1  0  0  0
 18 21  1  0  0  0
 18 25  1  0  0  0
 19 20  1  0  0  0
 21 22  1  0  0  0
 21 24  1  0  0  0
 22 23  1  0  0  0
 27 28  1  0  0  0
 27 30  1  0  0  0
 27 31  1  0  0  0
 28 29  1  0  0  0
 34 35  1  0  0  0
 34 40  1  0  0  0
 35 36  2  0  0  0
 35 39  1  0  0  0
 36 37  1  0  0  0
 36 38  1  0  0  0
M  END
> <Tumorigenic>
none

> <Score>
36.40495

> <Active/Decoy>
active

> <InChI>
InChI=1S/C16H22O9/c1-2-7-8-3-4-22-14(21)9(8)6-23-15(7)25-16-13(20)12(19)11(18)10(5-17)24-16/h2,6-8,10-13,15-20H,1,3-5H2/t7-,8+,10-,11-,12+,13-,15+,16+/m1/s1

> <Matching Features>
H:14924486185440016873||HBA:14924321692640012300|HBA:14924486112070016868

> <Mol. Index>
551

> <Pharmacophore Match>
Model -1

> <# Confs.>
18

> <Source Database>
Pharm-Screening-input-NANPDB_After_DataWarror.ldb

> <Pharmacophore-Fit Score>
36.4

> <formula>
C16H22O9

> <Mutagenic>
none

> <Reproductive Effective>
none

> <Irritant>
none

$$$$
(-)-shikimic acid-4-O-gallate
XX    ILIB03122402113D

 40 41  0  0  1  0              1 V2000
    0.2196   -2.7953   -0.0564 O   0  0  0  0  0
    0.1058   -1.6201   -0.3167 C   0  0  0  0  0
   -1.0089   -0.8619   -0.2920 O   0  0  0  0  0
   -2.2251   -1.5490    0.0813 C   0  0  1  0  0
   -3.1627   -0.5454    0.7833 C   0  0  1  0  0
   -2.4398    0.2027    1.7570 O   0  0  0  0  0
   -2.0098   -0.4331    2.3546 H   0  0  0  0  0
   -3.8312    0.4052   -0.1698 C   0  0  0  0  0
   -3.8964    0.1912   -1.4958 C   0  0  0  0  0
   -4.5512    1.1509   -2.4008 C   0  0  0  0  0
   -5.1093    0.8578   -3.4466 O   0  0  0  0  0
   -4.4552    2.4157   -1.9235 O   0  0  0  0  0
   -3.9814    2.5282   -1.0717 H   0  0  0  0  0
   -3.3161   -1.0437   -2.1477 C   0  0  0  0  0
   -2.8964   -2.1394   -1.1545 C   0  0  2  0  0
   -4.0369   -2.8936   -0.7505 O   0  0  0  0  0
   -4.4298   -3.2838   -1.5501 H   0  0  0  0  0
   -2.2121   -2.8295   -1.6612 H   0  0  0  0  0
   -4.0475   -1.4602   -2.8513 H   0  0  0  0  0
   -2.4380   -0.7336   -2.7283 H   0  0  0  0  0
   -4.2823    1.2847    0.2815 H   0  0  0  0  0
   -3.9537   -1.0866    1.3157 H   0  0  0  0  0
   -1.9781   -2.3374    0.8118 H   0  0  0  0  0
    1.2501   -0.7719   -0.7529 C   0  0  0  0  0
    1.5711   -0.6539   -2.1023 C   0  0  0  0  0
    0.8218   -1.3205   -3.0330 O   0  0  0  0  0
    1.1908   -1.1314   -3.9138 H   0  0  0  0  0
    2.6593    0.1195   -2.4981 C   0  0  0  0  0
    2.9529    0.2190   -3.8297 O   0  0  0  0  0
    3.7386    0.7860   -3.9242 H   0  0  0  0  0
    3.4343    0.7681   -1.5421 C   0  0  0  0  0
    4.5030    1.5177   -1.9514 O   0  0  0  0  0
    4.9403    1.8907   -1.1670 H   0  0  0  0  0
    3.1284    0.6504   -0.1852 C   0  0  0  0  0
    2.0292   -0.1175    0.2332 C   0  0  0  0  0
    1.7392   -0.2362    1.7024 C   0  0  0  0  0
    2.0259   -1.2288    2.0635 H   0  0  0  0  0
    0.6769   -0.0664    1.9053 H   0  0  0  0  0
    2.2965    0.5087    2.2820 H   0  0  0  0  0
    3.7475    1.1562    0.5524 H   0  0  0  0  0
  1  2  2  0  0  0
  2  3  1  0  0  0
  2 24  1  0  0  0
  3  4  1  0  0  0
  4  5  1  0  0  0
  4 15  1  0  0  0
  4 23  1  0  0  0
  5  6  1  0  0  0
  5  8  1  0  0  0
  5 22  1  0  0  0
  6  7  1  0  0  0
  8  9  2  0  0  0
  8 21  1  0  0  0
  9 10  1  0  0  0
  9 14  1  0  0  0
 10 11  2  0  0  0
 10 12  1  0  0  0
 12 13  1  0  0  0
 14 15  1  0  0  0
 14 19  1  0  0  0
 14 20  1  0  0  0
 15 16  1  0  0  0
 15 18  1  0  0  0
 16 17  1  0  0  0
 24 25  2  0  0  0
 24 35  1  0  0  0
 25 26  1  0  0  0
 25 28  1  0  0  0
 26 27  1  0  0  0
 28 29  1  0  0  0
 28 31  2  0  0  0
 29 30  1  0  0  0
 31 32  1  0  0  0
 31 34  1  0  0  0
 32 33  1  0  0  0
 34 35  2  0  0  0
 34 40  1  0  0  0
 35 36  1  0  0  0
 36 37  1  0  0  0
 36 38  1  0  0  0
 36 39  1  0  0  0
M  END
> <Tumorigenic>
none

> <Score>
36.3211

> <Active/Decoy>
active

> <InChI>
InChI=1S/C15H16O9/c1-5-2-7(16)11(19)12(20)10(5)15(23)24-13-8(17)3-6(14(21)22)4-9(13)18/h2-3,8-9,13,16-20H,4H2,1H3,(H,21,22)/t8-,9-,13-/m0/s1

> <Matching Features>
H:14924486185440016873||HBA:14924321692640012300|HBA:14924486112070016868

> <Mol. Index>
508

> <Pharmacophore Match>
Model -1

> <# Confs.>
25

> <Source Database>
Pharm-Screening-input-NANPDB_After_DataWarror.ldb

> <Pharmacophore-Fit Score>
36.32

> <formula>
C15H16O9

> <Mutagenic>
none

> <Reproductive Effective>
none

> <Irritant>
none

$$$$
3-O-acetyl-12beta-acetoxy-17alpha-hydroxycabraleahydroxylactone
XX    ILIB03122402113D

 86 90  0  0  1  0              1 V2000
    8.8619    2.7396    3.9908 O   0  0  0  0  0
    7.7924    3.0295    3.4792 C   0  0  0  0  0
    6.6089    2.3976    3.7443 O   0  0  0  0  0
    5.5259    3.0372    3.0375 C   0  0  2  0  0
    4.5441    1.9633    2.5260 C   0  0  2  0  0
    5.2778    1.0993    1.6544 O   0  0  0  0  0
    6.0110    0.7151    2.1657 H   0  0  0  0  0
    3.2911    2.5689    1.7905 C   0  0  1  0  0
    3.2135    2.2576    0.2905 C   0  0  2  0  0
    4.1194    3.1246   -0.3924 O   0  0  0  0  0
    4.6579    2.6369   -1.5429 C   0  0  0  0  0
    4.4325    1.5456   -2.0480 O   0  0  0  0  0
    5.5815    3.6600   -2.1307 C   0  0  0  0  0
    5.0103    4.5417   -2.4321 H   0  0  0  0  0
    6.0741    3.2414   -3.0127 H   0  0  0  0  0
    6.3518    3.9281   -1.4036 H   0  0  0  0  0
    1.7895    2.5339   -0.2224 C   0  0  0  0  0
    0.7601    1.5328    0.3501 C   0  0  1  0  0
    1.0543    1.1310    1.8577 C   0  0  1  0  0
    2.0148    2.1758    2.6165 C   0  0  1  0  0
    2.5918    1.6479    3.9566 C   0  0  0  0  0
    3.9722    1.0916    3.6536 C   0  0  0  0  0
    4.5932    1.0976    4.5562 H   0  0  0  0  0
    3.9143    0.0425    3.3491 H   0  0  0  0  0
    2.7019    2.4594    4.6866 H   0  0  0  0  0
    1.9562    0.8999    4.4388 H   0  0  0  0  0
    1.2697    3.4928    2.9688 C   0  0  0  0  0
    1.9461    4.2175    3.4382 H   0  0  0  0  0
    0.8641    3.9872    2.0865 H   0  0  0  0  0
    0.4637    3.3325    3.6898 H   0  0  0  0  0
   -0.2786    0.9105    2.6269 C   0  0  0  0  0
   -1.3012    0.1134    1.8286 C   0  0  0  0  0
   -1.7493    0.7868    0.5125 C   0  0  2  0  0
   -2.2872   -0.2419   -0.5506 C   0  0  0  0  0
   -2.9715    0.5515   -1.7066 C   0  0  2  0  0
   -3.1762   -0.3143   -2.8326 O   0  0  0  0  0
   -4.2408   -0.0376   -3.6191 C   0  0  0  0  0
   -5.0402    0.8735   -3.4643 O   0  0  0  0  0
   -4.2999   -1.0241   -4.7459 C   0  0  0  0  0
   -3.4288   -0.8977   -5.3933 H   0  0  0  0  0
   -5.2055   -0.8493   -5.3359 H   0  0  0  0  0
   -4.3421   -2.0416   -4.3500 H   0  0  0  0  0
   -2.2321    1.8118   -2.1705 C   0  0  0  0  0
   -0.8305    1.9719   -1.5992 C   0  0  0  0  0
   -0.7410    1.8652   -0.0434 C   0  0  2  0  0
   -1.1934    3.2551    0.4905 C   0  0  0  0  0
   -1.2100    3.3096    1.5782 H   0  0  0  0  0
   -0.5600    4.0669    0.1224 H   0  0  0  0  0
   -2.2129    3.4910    0.1636 H   0  0  0  0  0
   -0.1778    1.2385   -2.0810 H   0  0  0  0  0
   -0.4415    2.9438   -1.9313 H   0  0  0  0  0
   -2.1719    1.8510   -3.2650 H   0  0  0  0  0
   -2.8272    2.6868   -1.8783 H   0  0  0  0  0
   -3.9595    0.8821   -1.3524 H   0  0  0  0  0
   -1.2042   -1.2149   -1.0727 C   0  0  0  0  0
   -1.6390   -1.9715   -1.7369 H   0  0  0  0  0
   -0.7238   -1.7672   -0.2607 H   0  0  0  0  0
   -0.4146   -0.7225   -1.6380 H   0  0  0  0  0
   -3.3851   -1.1403    0.0881 C   0  0  0  0  0
   -3.8618   -1.7783   -0.6637 H   0  0  0  0  0
   -2.9761   -1.8027    0.8580 H   0  0  0  0  0
   -4.1712   -0.5341    0.5529 H   0  0  0  0  0
   -2.6498    1.3522    0.8048 H   0  0  0  0  0
   -0.9149   -0.8931    1.6567 H   0  0  0  0  0
   -2.1861   -0.0326    2.4635 H   0  0  0  0  0
   -0.7486    1.8467    2.9251 H   0  0  0  0  0
   -0.0875    0.3801    3.5681 H   0  0  0  0  0
    1.7401   -0.2795    1.8167 C   0  0  0  0  0
    2.7478   -0.2473    1.4005 H   0  0  0  0  0
    1.8031   -0.7304    2.8123 H   0  0  0  0  0
    1.1844   -0.9910    1.1979 H   0  0  0  0  0
    0.9646    0.6193   -0.2277 H   0  0  0  0  0
    1.7905    2.4710   -1.3148 H   0  0  0  0  0
    1.5278    3.5717    0.0005 H   0  0  0  0  0
    3.4605    1.2144    0.0668 H   0  0  0  0  0
    3.4016    3.6564    1.8518 H   0  0  0  0  0
    6.2255    3.7961    1.9109 C   0  0  0  0  0
    7.5714    4.1460    2.5047 C   0  0  0  0  0
    8.3521    4.1612    1.7412 H   0  0  0  0  0
    7.5459    5.0961    3.0442 H   0  0  0  0  0
    6.3902    3.1553    1.0370 H   0  0  0  0  0
    5.6733    4.6750    1.5641 H   0  0  0  0  0
    4.8415    4.0208    4.0039 C   0  0  0  0  0
    5.5440    4.7750    4.3733 H   0  0  0  0  0
    4.0065    4.5410    3.5241 H   0  0  0  0  0
    4.4672    3.5041    4.8936 H   0  0  0  0  0
  1  2  2  0  0  0
  2  3  1  0  0  0
  2 78  1  0  0  0
  3  4  1  0  0  0
  4  5  1  0  0  0
  4 77  1  0  0  0
  4 83  1  0  0  0
  5  6  1  0  0  0
  5  8  1  0  0  0
  5 22  1  0  0  0
  6  7  1  0  0  0
  8  9  1  0  0  0
  8 20  1  0  0  0
  8 76  1  0  0  0
  9 10  1  0  0  0
  9 17  1  0  0  0
  9 75  1  0  0  0
 10 11  1  0  0  0
 11 12  2  0  0  0
 11 13  1  0  0  0
 13 14  1  0  0  0
 13 15  1  0  0  0
 13 16  1  0  0  0
 17 18  1  0  0  0
 17 73  1  0  0  0
 17 74  1  0  0  0
 18 19  1  0  0  0
 18 45  1  0  0  0
 18 72  1  0  0  0
 19 20  1  0  0  0
 19 31  1  0  0  0
 19 68  1  0  0  0
 20 21  1  0  0  0
 20 27  1  0  0  0
 21 22  1  0  0  0
 21 25  1  0  0  0
 21 26  1  0  0  0
 22 23  1  0  0  0
 22 24  1  0  0  0
 27 28  1  0  0  0
 27 29  1  0  0  0
 27 30  1  0  0  0
 31 32  1  0  0  0
 31 66  1  0  0  0
 31 67  1  0  0  0
 32 33  1  0  0  0
 32 64  1  0  0  0
 32 65  1  0  0  0
 33 34  1  0  0  0
 33 45  1  0  0  0
 33 63  1  0  0  0
 34 35  1  0  0  0
 34 55  1  0  0  0
 34 59  1  0  0  0
 35 36  1  0  0  0
 35 43  1  0  0  0
 35 54  1  0  0  0
 36 37  1  0  0  0
 37 38  2  0  0  0
 37 39  1  0  0  0
 39 40  1  0  0  0
 39 41  1  0  0  0
 39 42  1  0  0  0
 43 44  1  0  0  0
 43 52  1  0  0  0
 43 53  1  0  0  0
 44 45  1  0  0  0
 44 50  1  0  0  0
 44 51  1  0  0  0
 45 46  1  0  0  0
 46 47  1  0  0  0
 46 48  1  0  0  0
 46 49  1  0  0  0
 55 56  1  0  0  0
 55 57  1  0  0  0
 55 58  1  0  0  0
 59 60  1  0  0  0
 59 61  1  0  0  0
 59 62  1  0  0  0
 68 69  1  0  0  0
 68 70  1  0  0  0
 68 71  1  0  0  0
 77 78  1  0  0  0
 77 81  1  0  0  0
 77 82  1  0  0  0
 78 79  1  0  0  0
 78 80  1  0  0  0
 83 84  1  0  0  0
 83 85  1  0  0  0
 83 86  1  0  0  0
M  END
> <Tumorigenic>
none

> <Score>
36.318684

> <Active/Decoy>
active

> <InChI>
InChI=1S/C31H48O7/c1-18(32)36-20-17-22-27(5)12-10-23(37-19(2)33)26(3,4)21(27)9-13-28(22,6)29(7)15-16-31(35,25(20)29)30(8)14-11-24(34)38-30/h20-23,25,35H,9-17H2,1-8H3/t20-,21-,22-,23-,25+,27+,28+,29+,30+,31-/m1/s1

> <Matching Features>
H:14924486185440016873||HBA:14924321692640012300|HBA:14924486112070016868

> <Mol. Index>
175

> <Pharmacophore Match>
Model -1

> <# Confs.>
9

> <Source Database>
Pharm-Screening-input-NANPDB_After_DataWarror.ldb

> <Pharmacophore-Fit Score>
36.32

> <formula>
C31H48O7

> <Mutagenic>
none

> <Reproductive Effective>
none

> <Irritant>
none

$$$$
3beta-acetoxy-1beta,4alpha,13-trihydroxyeudesm-7(11)-en-6alpha,12-olide
XX    ILIB03122402113D

 50 52  0  0  1  0              1 V2000
   -2.5429    3.2053   -0.9096 O   0  0  0  0  0
   -1.8571    2.2303   -1.1678 C   0  0  0  0  0
   -0.5454    2.0771   -0.8285 O   0  0  0  0  0
   -0.0528    0.8349   -1.3402 C   0  0  2  0  0
   -1.2507    0.2333   -1.9771 C   0  0  0  0  0
   -2.3177    1.0461   -1.9051 C   0  0  0  0  0
   -3.7169    0.8763   -2.3740 C   0  0  0  0  0
   -3.8395    1.4254   -3.6732 O   0  0  0  0  0
   -5.0595    1.3505   -4.2484 C   0  0  0  0  0
   -6.0643    0.8544   -3.7573 O   0  0  0  0  0
   -5.0102    1.9731   -5.6105 C   0  0  0  0  0
   -4.8098    3.0429   -5.5111 H   0  0  0  0  0
   -5.9759    1.8404   -6.1069 H   0  0  0  0  0
   -4.2432    1.4912   -6.2210 H   0  0  0  0  0
   -3.9517   -0.2061   -2.4025 H   0  0  0  0  0
   -4.4225    1.3619   -1.6963 H   0  0  0  0  0
   -1.1402   -1.1531   -2.5080 C   0  0  0  0  0
   -0.5782   -2.0675   -1.4168 C   0  0  0  0  0
    0.7098   -1.5244   -0.7524 C   0  0  1  0  0
    1.9293   -1.6066   -1.6927 C   0  0  2  0  0
    2.1566   -2.9691   -2.0473 O   0  0  0  0  0
    2.9173   -2.9891   -2.6574 H   0  0  0  0  0
    3.1922   -1.0582   -1.0357 C   0  0  0  0  0
    3.0078    0.3623   -0.4985 C   0  0  2  0  0
    4.1958    0.7520    0.2058 O   0  0  0  0  0
    5.1779    1.3130   -0.5335 C   0  0  0  0  0
    5.1509    1.5195   -1.7393 O   0  0  0  0  0
    6.3314    1.6689    0.3538 C   0  0  0  0  0
    6.0276    2.4469    1.0587 H   0  0  0  0  0
    7.1559    2.0489   -0.2562 H   0  0  0  0  0
    6.6814    0.7805    0.8854 H   0  0  0  0  0
    1.7958    0.4701    0.4562 C   0  0  1  0  0
    1.6052    1.8551    0.7720 O   0  0  0  0  0
    2.4419    2.1966    1.1315 H   0  0  0  0  0
    0.4999   -0.0781   -0.2169 C   0  0  1  0  0
   -0.2751   -0.1084    0.5647 H   0  0  0  0  0
    2.0457   -0.2348    1.8019 C   0  0  0  0  0
    1.1733   -0.1289    2.4578 H   0  0  0  0  0
    2.8807    0.2244    2.3432 H   0  0  0  0  0
    2.2592   -1.3008    1.6911 H   0  0  0  0  0
    2.8645    1.0586   -1.3358 H   0  0  0  0  0
    4.0194   -1.0796   -1.7573 H   0  0  0  0  0
    3.5266   -1.7315   -0.2354 H   0  0  0  0  0
    1.7385   -1.0582   -2.6213 H   0  0  0  0  0
    0.9029   -2.1915    0.0982 H   0  0  0  0  0
   -1.3409   -2.1916   -0.6361 H   0  0  0  0  0
   -0.4060   -3.0661   -1.8325 H   0  0  0  0  0
   -0.4815   -1.1571   -3.3839 H   0  0  0  0  0
   -2.1080   -1.5415   -2.8397 H   0  0  0  0  0
    0.7076    1.0575   -2.0952 H   0  0  0  0  0
  1  2  2  0  0  0
  2  3  1  0  0  0
  2  6  1  0  0  0
  3  4  1  0  0  0
  4  5  1  0  0  0
  4 35  1  0  0  0
  4 50  1  0  0  0
  5  6  2  0  0  0
  5 17  1  0  0  0
  6  7  1  0  0  0
  7  8  1  0  0  0
  7 15  1  0  0  0
  7 16  1  0  0  0
  8  9  1  0  0  0
  9 10  2  0  0  0
  9 11  1  0  0  0
 11 12  1  0  0  0
 11 13  1  0  0  0
 11 14  1  0  0  0
 17 18  1  0  0  0
 17 48  1  0  0  0
 17 49  1  0  0  0
 18 19  1  0  0  0
 18 46  1  0  0  0
 18 47  1  0  0  0
 19 20  1  0  0  0
 19 35  1  0  0  0
 19 45  1  0  0  0
 20 21  1  0  0  0
 20 23  1  0  0  0
 20 44  1  0  0  0
 21 22  1  0  0  0
 23 24  1  0  0  0
 23 42  1  0  0  0
 23 43  1  0  0  0
 24 25  1  0  0  0
 24 32  1  0  0  0
 24 41  1  0  0  0
 25 26  1  0  0  0
 26 27  2  0  0  0
 26 28  1  0  0  0
 28 29  1  0  0  0
 28 30  1  0  0  0
 28 31  1  0  0  0
 32 33  1  0  0  0
 32 35  1  0  0  0
 32 37  1  0  0  0
 33 34  1  0  0  0
 35 36  1  0  0  0
 37 38  1  0  0  0
 37 39  1  0  0  0
 37 40  1  0  0  0
M  END
> <Tumorigenic>
none

> <Score>
36.301926

> <Active/Decoy>
active

> <InChI>
InChI=1S/C18H24O8/c1-8(19)24-7-12-10-4-5-11-13(21)6-14(25-9(2)20)18(3,23)15(11)16(10)26-17(12)22/h11,13-16,21,23H,4-7H2,1-3H3/t11-,13+,14-,15+,16+,18+/m0/s1

> <Matching Features>
H:14924486185440016873||HBA:14924321692640012300|HBA:14924486112070016868

> <Mol. Index>
400

> <Pharmacophore Match>
Model -1

> <# Confs.>
25

> <Source Database>
Pharm-Screening-input-NANPDB_After_DataWarror.ldb

> <Pharmacophore-Fit Score>
36.3

> <formula>
C18H24O8

> <Mutagenic>
none

> <Reproductive Effective>
none

> <Irritant>
none

$$$$
13-hydroxyfeselol diacetate
XX    ILIB03122402113D

 69 72  0  0  1  0              1 V2000
   -5.6388    0.9306   -3.8138 O   0  0  0  0  0
   -4.6486    0.2172   -3.6925 C   0  0  0  0  0
   -3.9623    0.1076   -2.4873 O   0  0  0  0  0
   -2.8205   -0.7111   -2.3580 C   0  0  0  0  0
   -2.3472   -1.4386   -3.4441 C   0  0  0  0  0
   -1.2150   -2.2347   -3.2767 C   0  0  0  0  0
   -0.5784   -2.2903   -2.0328 C   0  0  0  0  0
   -1.0637   -1.5536   -0.9447 C   0  0  0  0  0
   -2.1980   -0.7553   -1.1083 C   0  0  0  0  0
   -2.6122   -0.1680   -0.2952 H   0  0  0  0  0
   -0.3530   -1.6939    0.2128 O   0  0  0  0  0
   -0.8183   -0.9564    1.3267 C   0  0  0  0  0
   -0.1495    0.4025    1.3431 C   0  0  2  0  0
    1.4485    0.3699    1.4438 C   0  0  2  0  0
    1.9419    1.8563    1.6656 C   0  0  2  0  0
    3.4695    2.1773    1.3933 C   0  0  2  0  0
    3.8625    1.5450    0.0214 C   0  0  1  0  0
    5.2660    1.7189   -0.2232 O   0  0  0  0  0
    5.6448    1.8201   -1.5158 C   0  0  0  0  0
    4.9100    1.7771   -2.4925 O   0  0  0  0  0
    7.1303    2.0068   -1.5897 C   0  0  0  0  0
    7.4032    2.9640   -1.1395 H   0  0  0  0  0
    7.4442    2.0085   -2.6369 H   0  0  0  0  0
    7.6353    1.1815   -1.0821 H   0  0  0  0  0
    3.5361    0.0570   -0.0413 C   0  0  0  0  0
    2.0441   -0.1878    0.1314 C   0  0  0  0  0
    1.8855   -1.2684    0.0582 H   0  0  0  0  0
    1.5238    0.2620   -0.7248 H   0  0  0  0  0
    4.1153   -0.5030    0.7010 H   0  0  0  0  0
    3.8532   -0.3480   -1.0104 H   0  0  0  0  0
    3.3000    2.0579   -0.7733 H   0  0  0  0  0
    4.4539    1.7460    2.4724 C   0  0  0  0  0
    4.0691    2.3373    3.7118 O   0  0  0  0  0
    4.8453    2.0533    4.7808 C   0  0  0  0  0
    5.8403    1.3412    4.7869 O   0  0  0  0  0
    4.3108    2.7610    5.9878 C   0  0  0  0  0
    4.4005    3.8413    5.8532 H   0  0  0  0  0
    4.8905    2.4664    6.8686 H   0  0  0  0  0
    3.2690    2.4770    6.1563 H   0  0  0  0  0
    5.4722    2.0523    2.1953 H   0  0  0  0  0
    4.4447    0.6505    2.5527 H   0  0  0  0  0
    3.6360    3.7185    1.2440 C   0  0  0  0  0
    3.4075    4.2526    2.1709 H   0  0  0  0  0
    2.9772    4.1144    0.4628 H   0  0  0  0  0
    4.6631    3.9834    0.9693 H   0  0  0  0  0
    1.3892    2.4109    2.9935 C   0  0  0  0  0
   -0.0835    2.1912    3.1389 C   0  0  0  0  0
   -0.8002    1.3275    2.3999 C   0  0  0  0  0
   -2.2974    1.2981    2.5565 C   0  0  0  0  0
   -2.6207    0.3658    3.0299 H   0  0  0  0  0
   -2.7847    1.3920    1.5804 H   0  0  0  0  0
   -2.6650    2.1218    3.1782 H   0  0  0  0  0
   -0.5831    2.8119    3.8788 H   0  0  0  0  0
    1.5648    3.4898    3.0502 H   0  0  0  0  0
    1.8766    1.9561    3.8604 H   0  0  0  0  0
    1.4198    2.4255    0.8766 H   0  0  0  0  0
    1.8621   -0.5685    2.6108 C   0  0  0  0  0
    1.5966   -1.6087    2.3932 H   0  0  0  0  0
    1.3763   -0.3071    3.5551 H   0  0  0  0  0
    2.9366   -0.5739    2.7868 H   0  0  0  0  0
   -0.3860    0.8742    0.3787 H   0  0  0  0  0
   -1.9179   -0.8332    1.2949 H   0  0  0  0  0
   -0.5871   -1.4816    2.2731 H   0  0  0  0  0
    0.3032   -2.9169   -1.9193 H   0  0  0  0  0
   -0.8146   -2.8173   -4.1035 H   0  0  0  0  0
   -3.0503   -1.3458   -4.7116 C   0  0  0  0  0
   -4.1312   -0.5698   -4.8264 C   0  0  0  0  0
   -4.6624   -0.4978   -5.7675 H   0  0  0  0  0
   -2.6855   -1.9150   -5.5605 H   0  0  0  0  0
  1  2  2  0  0  0
  2  3  1  0  0  0
  2 67  1  0  0  0
  3  4  1  0  0  0
  4  5  2  0  0  0
  4  9  1  0  0  0
  5  6  1  0  0  0
  5 66  1  0  0  0
  6  7  2  0  0  0
  6 65  1  0  0  0
  7  8  1  0  0  0
  7 64  1  0  0  0
  8  9  2  0  0  0
  8 11  1  0  0  0
  9 10  1  0  0  0
 11 12  1  0  0  0
 12 13  1  0  0  0
 12 62  1  0  0  0
 12 63  1  0  0  0
 13 14  1  0  0  0
 13 48  1  0  0  0
 13 61  1  0  0  0
 14 15  1  0  0  0
 14 26  1  0  0  0
 14 57  1  0  0  0
 15 16  1  0  0  0
 15 46  1  0  0  0
 15 56  1  0  0  0
 16 17  1  0  0  0
 16 32  1  0  0  0
 16 42  1  0  0  0
 17 18  1  0  0  0
 17 25  1  0  0  0
 17 31  1  0  0  0
 18 19  1  0  0  0
 19 20  2  0  0  0
 19 21  1  0  0  0
 21 22  1  0  0  0
 21 23  1  0  0  0
 21 24  1  0  0  0
 25 26  1  0  0  0
 25 29  1  0  0  0
 25 30  1  0  0  0
 26 27  1  0  0  0
 26 28  1  0  0  0
 32 33  1  0  0  0
 32 40  1  0  0  0
 32 41  1  0  0  0
 33 34  1  0  0  0
 34 35  2  0  0  0
 34 36  1  0  0  0
 36 37  1  0  0  0
 36 38  1  0  0  0
 36 39  1  0  0  0
 42 43  1  0  0  0
 42 44  1  0  0  0
 42 45  1  0  0  0
 46 47  1  0  0  0
 46 54  1  0  0  0
 46 55  1  0  0  0
 47 48  2  0  0  0
 47 53  1  0  0  0
 48 49  1  0  0  0
 49 50  1  0  0  0
 49 51  1  0  0  0
 49 52  1  0  0  0
 57 58  1  0  0  0
 57 59  1  0  0  0
 57 60  1  0  0  0
 66 67  2  0  0  0
 66 69  1  0  0  0
 67 68  1  0  0  0
M  END
> <Tumorigenic>
none

> <Score>
36.22537

> <Active/Decoy>
active

> <InChI>
InChI=1S/C28H34O7/c1-17-6-10-24-27(4,13-12-25(34-19(3)30)28(24,5)16-33-18(2)29)22(17)15-32-21-9-7-20-8-11-26(31)35-23(20)14-21/h6-9,11,14,22,24-25H,10,12-13,15-16H2,1-5H3/t22-,24+,25-,27+,28+/m0/s1

> <Matching Features>
H:14924486185440016873||HBA:14924321692640012300|HBA:14924486112070016868

> <Mol. Index>
955

> <Pharmacophore Match>
Model -1

> <# Confs.>
25

> <Source Database>
Pharm-Screening-input-NANPDB_After_DataWarror.ldb

> <Pharmacophore-Fit Score>
36.23

> <formula>
C28H34O7

> <Mutagenic>
none

> <Reproductive Effective>
none

> <Irritant>
none

$$$$
6alpha-p-hydroxybenzoyloxy-4beta-hydroxydauc-8-ene-10-one
XX    ILIB03122402113D

 56 58  0  0  1  0              1 V2000
    2.9174   -0.4254   -4.3458 O   0  0  0  0  0
    2.2409   -0.2437   -3.3309 C   0  0  0  0  0
    1.2082    0.8101   -3.3963 C   0  0  0  0  0
    1.0301    1.7660   -2.4775 C   0  0  0  0  0
    1.8550    2.0073   -1.2421 C   0  0  0  0  0
    3.1266    1.1918   -0.9773 C   0  0  2  0  0
    4.0937    1.4822   -1.9958 O   0  0  0  0  0
    4.2098    2.4465   -2.0281 H   0  0  0  0  0
    3.0252   -0.3402   -0.8256 C   0  0  1  0  0
    2.2383   -0.8946    0.4037 C   0  0  1  0  0
    2.7792   -2.2142    0.6594 O   0  0  0  0  0
    2.1883   -2.6649    1.2869 H   0  0  0  0  0
    2.3152   -0.1775    1.7649 C   0  0  0  0  0
    1.5082   -0.8791    2.8617 C   0  0  0  0  0
    1.8803   -1.8904    3.0532 H   0  0  0  0  0
    1.5730   -0.3198    3.8008 H   0  0  0  0  0
    0.4500   -0.9494    2.5937 H   0  0  0  0  0
    3.7674   -0.0113    2.2182 C   0  0  0  0  0
    4.3546    0.5122    1.4565 H   0  0  0  0  0
    4.2439   -0.9769    2.4141 H   0  0  0  0  0
    3.8167    0.5771    3.1402 H   0  0  0  0  0
    1.8939    0.8290    1.6380 H   0  0  0  0  0
    0.8282   -1.0892   -0.1530 C   0  0  0  0  0
    1.0625   -1.7321   -1.5200 C   0  0  1  0  0
   -0.0398   -1.5411   -2.4072 O   0  0  0  0  0
   -1.2237   -2.0658   -1.9974 C   0  0  0  0  0
   -1.3850   -3.0618   -1.3026 O   0  0  0  0  0
   -2.3361   -1.2679   -2.5353 C   0  0  0  0  0
   -3.5288   -1.1901   -1.8042 C   0  0  0  0  0
   -4.5957   -0.4281   -2.2831 C   0  0  0  0  0
   -4.4669    0.2553   -3.4894 C   0  0  0  0  0
   -5.4917    1.0135   -3.9811 O   0  0  0  0  0
   -6.2355    0.9720   -3.3557 H   0  0  0  0  0
   -3.2865    0.1819   -4.2245 C   0  0  0  0  0
   -2.2194   -0.5812   -3.7492 C   0  0  0  0  0
   -1.3109   -0.6215   -4.3429 H   0  0  0  0  0
   -3.1902    0.7148   -5.1667 H   0  0  0  0  0
   -5.5166   -0.3742   -1.7091 H   0  0  0  0  0
   -3.6467   -1.7144   -0.8599 H   0  0  0  0  0
    2.4037   -1.0962   -2.0549 C   0  0  1  0  0
    3.3508   -2.2727   -2.4525 C   0  0  0  0  0
    3.5339   -2.9597   -1.6208 H   0  0  0  0  0
    4.3268   -1.8988   -2.7844 H   0  0  0  0  0
    2.9252   -2.8607   -3.2746 H   0  0  0  0  0
    1.2164   -2.8166   -1.3769 H   0  0  0  0  0
    0.2241   -1.7575    0.4711 H   0  0  0  0  0
    0.2718   -0.1536   -0.2556 H   0  0  0  0  0
    4.0668   -0.6824   -0.7251 H   0  0  0  0  0
    3.5740    1.5865   -0.0592 H   0  0  0  0  0
    1.1796    1.9296   -0.3893 H   0  0  0  0  0
    2.1643    3.0616   -1.2807 H   0  0  0  0  0
   -0.0893    2.7616   -2.6631 C   0  0  0  0  0
   -0.7729    2.7224   -1.8100 H   0  0  0  0  0
   -0.6777    2.5681   -3.5665 H   0  0  0  0  0
    0.3136    3.7767   -2.7423 H   0  0  0  0  0
    0.5885    0.7800   -4.2888 H   0  0  0  0  0
  1  2  2  0  0  0
  2  3  1  0  0  0
  2 40  1  0  0  0
  3  4  2  0  0  0
  3 56  1  0  0  0
  4  5  1  0  0  0
  4 52  1  0  0  0
  5  6  1  0  0  0
  5 50  1  0  0  0
  5 51  1  0  0  0
  6  7  1  0  0  0
  6  9  1  0  0  0
  6 49  1  0  0  0
  7  8  1  0  0  0
  9 10  1  0  0  0
  9 40  1  0  0  0
  9 48  1  0  0  0
 10 11  1  0  0  0
 10 13  1  0  0  0
 10 23  1  0  0  0
 11 12  1  0  0  0
 13 14  1  0  0  0
 13 18  1  0  0  0
 13 22  1  0  0  0
 14 15  1  0  0  0
 14 16  1  0  0  0
 14 17  1  0  0  0
 18 19  1  0  0  0
 18 20  1  0  0  0
 18 21  1  0  0  0
 23 24  1  0  0  0
 23 46  1  0  0  0
 23 47  1  0  0  0
 24 25  1  0  0  0
 24 40  1  0  0  0
 24 45  1  0  0  0
 25 26  1  0  0  0
 26 27  2  0  0  0
 26 28  1  0  0  0
 28 29  2  0  0  0
 28 35  1  0  0  0
 29 30  1  0  0  0
 29 39  1  0  0  0
 30 31  2  0  0  0
 30 38  1  0  0  0
 31 32  1  0  0  0
 31 34  1  0  0  0
 32 33  1  0  0  0
 34 35  2  0  0  0
 34 37  1  0  0  0
 35 36  1  0  0  0
 40 41  1  0  0  0
 41 42  1  0  0  0
 41 43  1  0  0  0
 41 44  1  0  0  0
 52 53  1  0  0  0
 52 54  1  0  0  0
 52 55  1  0  0  0
M  END
> <Tumorigenic>
none

> <Score>
36.20645

> <Active/Decoy>
active

> <InChI>
InChI=1S/C22H28O6/c1-12(2)22(27)11-18(28-20(26)14-5-7-15(23)8-6-14)21(4)17(25)10-13(3)9-16(24)19(21)22/h5-8,10,12,16,18-19,23-24,27H,9,11H2,1-4H3/t16-,18+,19+,21+,22-/m0/s1

> <Matching Features>
H:14924486185440016873||HBA:14924321692640012300|HBA:14924486112070016868

> <Mol. Index>
900

> <Pharmacophore Match>
Model -1

> <# Confs.>
25

> <Source Database>
Pharm-Screening-input-NANPDB_After_DataWarror.ldb

> <Pharmacophore-Fit Score>
36.21

> <formula>
C22H28O6

> <Mutagenic>
none

> <Reproductive Effective>
none

> <Irritant>
none

$$$$
epieuphoscopin A
XX    ILIB03122402113D

 79 81  0  0  1  0              1 V2000
   -5.2933    0.9762   -3.8173 O   0  0  0  0  0
   -4.1004    0.7642   -3.5768 C   0  0  0  0  0
   -3.0176    1.7793   -4.0196 C   0  0  0  0  0
   -1.6427    1.1393   -4.0744 C   0  0  0  0  0
   -0.5365    1.5136   -3.4124 C   0  0  0  0  0
    0.8030    0.8372   -3.5835 C   0  0  2  0  0
    1.5150    0.4296   -2.2539 C   0  0  1  0  0
    1.7733    1.6068   -1.4733 O   0  0  0  0  0
    3.0656    1.9847   -1.3634 C   0  0  0  0  0
    4.0313    1.4231   -1.8622 O   0  0  0  0  0
    3.1549    3.2289   -0.5331 C   0  0  0  0  0
    2.6610    4.0540   -1.0510 H   0  0  0  0  0
    4.2062    3.4887   -0.3781 H   0  0  0  0  0
    2.6971    3.0572    0.4444 H   0  0  0  0  0
    0.8152   -0.6840   -1.3881 C   0  0  2  0  0
    0.3841   -1.7381   -2.2621 O   0  0  0  0  0
    1.3483   -2.3594   -2.9776 C   0  0  0  0  0
    2.5450   -2.1109   -2.9509 O   0  0  0  0  0
    0.7302   -3.4335   -3.8210 C   0  0  0  0  0
    0.3092   -4.2103   -3.1784 H   0  0  0  0  0
    1.4989   -3.8810   -4.4578 H   0  0  0  0  0
   -0.0394   -3.0038   -4.4655 H   0  0  0  0  0
   -0.4053   -0.2034   -0.5415 C   0  0  2  0  0
    0.2176    0.2974    0.7738 C   0  0  1  0  0
   -0.7121    0.3995    1.8526 O   0  0  0  0  0
   -1.3369    1.5806    1.9997 C   0  0  0  0  0
   -1.1897    2.5761    1.3092 O   0  0  0  0  0
   -2.2603    1.5232    3.1494 C   0  0  0  0  0
   -2.5116    2.6891    3.8797 C   0  0  0  0  0
   -3.3962    2.6338    4.9580 C   0  0  0  0  0
   -4.0089    1.4270    5.2990 C   0  0  0  0  0
   -3.7413    0.2703    4.5637 C   0  0  0  0  0
   -2.8603    0.3154    3.4834 C   0  0  0  0  0
   -2.6587   -0.5867    2.9140 H   0  0  0  0  0
   -4.2214   -0.6656    4.8331 H   0  0  0  0  0
   -4.6966    1.3875    6.1395 H   0  0  0  0  0
   -3.6084    3.5306    5.5303 H   0  0  0  0  0
   -2.0391    3.6316    3.6187 H   0  0  0  0  0
    1.2838   -0.7720    1.0769 C   0  0  1  0  0
    1.7925   -1.2357   -0.2972 C   0  0  0  0  0
    2.8199   -0.8996   -0.4762 H   0  0  0  0  0
    1.8246   -2.3321   -0.3041 H   0  0  0  0  0
    2.3945   -0.2597    1.9840 C   0  0  0  0  0
    2.9233    0.5856    1.5325 H   0  0  0  0  0
    1.9893    0.0712    2.9457 H   0  0  0  0  0
    3.1270   -1.0495    2.1795 H   0  0  0  0  0
    0.8157   -1.6208    1.5932 H   0  0  0  0  0
    0.7116    1.2673    0.6412 H   0  0  0  0  0
   -1.4255   -1.2967   -0.2972 C   0  0  0  0  0
   -2.7341   -1.3112   -0.6232 C   0  0  0  0  0
   -3.4567   -0.1673   -1.3064 C   0  0  2  0  0
   -4.6968    0.0660   -0.6361 O   0  0  0  0  0
   -5.1223    0.8291   -1.0621 H   0  0  0  0  0
   -3.7219   -0.4782   -2.7786 C   0  0  0  0  0
   -2.8710   -0.9698   -3.2596 H   0  0  0  0  0
   -4.5651   -1.1758   -2.8720 H   0  0  0  0  0
   -2.8946    0.7591   -1.2008 H   0  0  0  0  0
   -3.5582   -2.5398   -0.3221 C   0  0  0  0  0
   -3.9988   -2.9414   -1.2395 H   0  0  0  0  0
   -2.9617   -3.3405    0.1288 H   0  0  0  0  0
   -4.3633   -2.3013    0.3794 H   0  0  0  0  0
   -1.0242   -2.1866    0.1864 H   0  0  0  0  0
   -0.8905    0.6582   -1.0183 H   0  0  0  0  0
    2.4791    0.0031   -2.5744 H   0  0  0  0  0
    1.6978    1.7747   -4.4106 C   0  0  0  0  0
    1.2580    1.9612   -5.3967 H   0  0  0  0  0
    1.8378    2.7446   -3.9217 H   0  0  0  0  0
    2.6836    1.3284   -4.5709 H   0  0  0  0  0
    0.6700   -0.0710   -4.1834 H   0  0  0  0  0
   -0.5655    2.3690   -2.7435 H   0  0  0  0  0
   -1.5543    0.2932   -4.7557 H   0  0  0  0  0
   -3.3574    2.2286   -5.4562 C   0  0  0  0  0
   -2.6162    2.9414   -5.8388 H   0  0  0  0  0
   -4.3380    2.7174   -5.5055 H   0  0  0  0  0
   -3.3908    1.3769   -6.1450 H   0  0  0  0  0
   -3.1216    3.0092   -3.1012 C   0  0  0  0  0
   -4.1397    3.4163   -3.0967 H   0  0  0  0  0
   -2.4511    3.8132   -3.4286 H   0  0  0  0  0
   -2.8748    2.7721   -2.0622 H   0  0  0  0  0
  1  2  2  0  0  0
  2  3  1  0  0  0
  2 54  1  0  0  0
  3  4  1  0  0  0
  3 72  1  0  0  0
  3 76  1  0  0  0
  4  5  2  0  0  0
  4 71  1  0  0  0
  5  6  1  0  0  0
  5 70  1  0  0  0
  6  7  1  0  0  0
  6 65  1  0  0  0
  6 69  1  0  0  0
  7  8  1  0  0  0
  7 15  1  0  0  0
  7 64  1  0  0  0
  8  9  1  0  0  0
  9 10  2  0  0  0
  9 11  1  0  0  0
 11 12  1  0  0  0
 11 13  1  0  0  0
 11 14  1  0  0  0
 15 16  1  0  0  0
 15 23  1  0  0  0
 15 40  1  0  0  0
 16 17  1  0  0  0
 17 18  2  0  0  0
 17 19  1  0  0  0
 19 20  1  0  0  0
 19 21  1  0  0  0
 19 22  1  0  0  0
 23 24  1  0  0  0
 23 49  1  0  0  0
 23 63  1  0  0  0
 24 25  1  0  0  0
 24 39  1  0  0  0
 24 48  1  0  0  0
 25 26  1  0  0  0
 26 27  2  0  0  0
 26 28  1  0  0  0
 28 29  2  0  0  0
 28 33  1  0  0  0
 29 30  1  0  0  0
 29 38  1  0  0  0
 30 31  2  0  0  0
 30 37  1  0  0  0
 31 32  1  0  0  0
 31 36  1  0  0  0
 32 33  2  0  0  0
 32 35  1  0  0  0
 33 34  1  0  0  0
 39 40  1  0  0  0
 39 43  1  0  0  0
 39 47  1  0  0  0
 40 41  1  0  0  0
 40 42  1  0  0  0
 43 44  1  0  0  0
 43 45  1  0  0  0
 43 46  1  0  0  0
 49 50  2  0  0  0
 49 62  1  0  0  0
 50 51  1  0  0  0
 50 58  1  0  0  0
 51 52  1  0  0  0
 51 54  1  0  0  0
 51 57  1  0  0  0
 52 53  1  0  0  0
 54 55  1  0  0  0
 54 56  1  0  0  0
 58 59  1  0  0  0
 58 60  1  0  0  0
 58 61  1  0  0  0
 65 66  1  0  0  0
 65 67  1  0  0  0
 65 68  1  0  0  0
 72 73  1  0  0  0
 72 74  1  0  0  0
 72 75  1  0  0  0
 76 77  1  0  0  0
 76 78  1  0  0  0
 76 79  1  0  0  0
M  END
> <Tumorigenic>
none

> <Score>
36.210903

> <Active/Decoy>
active

> <InChI>
InChI=1S/C31H40O8/c1-18-13-14-30(6,7)26(35)16-25(34)19(2)15-24-27(38-29(36)23-11-9-8-10-12-23)20(3)17-31(24,39-22(5)33)28(18)37-21(4)32/h8-15,18,20,24-25,27-28,34H,16-17H2,1-7H3/b14-13?,19-15-/t18-,20-,24-,25-,27+,28-,31-/m1/s1

> <Matching Features>
H:14924486185440016873||HBA:14924321692640012300|HBA:14924486112070016868

> <Mol. Index>
493

> <Pharmacophore Match>
Model -1

> <# Confs.>
25

> <Source Database>
Pharm-Screening-input-NANPDB_After_DataWarror.ldb

> <Pharmacophore-Fit Score>
36.21

> <formula>
C31H40O8

> <Mutagenic>
none

> <Reproductive Effective>
none

> <Irritant>
none

$$$$
scopolamine
XX    ILIB03122402113D

 43 46  0  0  1  0              1 V2000
    0.5568   -0.0808   -2.8013 O   0  0  0  0  0
    0.6417    0.8046   -1.9618 C   0  0  0  0  0
   -0.4006    1.5889   -1.5349 O   0  0  0  0  0
   -1.6840    1.3315   -2.1245 C   0  0  0  0  0
   -1.8791    2.2016   -3.3938 C   0  0  0  0  0
   -3.3662    2.3628   -3.7752 C   0  0  2  0  0
   -3.9772    2.9643   -2.5687 N   0  0  0  0  0
   -5.1864    3.7328   -2.8290 C   0  0  0  0  0
   -5.9971    3.1666   -3.2912 H   0  0  0  0  0
   -4.9546    4.5808   -3.4832 H   0  0  0  0  0
   -5.5651    4.1594   -1.8927 H   0  0  0  0  0
   -4.1709    1.8065   -1.6668 C   0  0  1  0  0
   -4.5248    0.6515   -2.5706 C   0  0  1  0  0
   -5.4168    0.9008   -3.6618 O   0  0  0  0  0
   -4.0122    1.0059   -3.9145 C   0  0  1  0  0
   -3.5215    0.2798   -4.5406 H   0  0  0  0  0
   -4.4260   -0.3440   -2.1725 H   0  0  0  0  0
   -2.7728    1.5844   -1.0505 C   0  0  0  0  0
   -2.7923    0.7302   -0.3622 H   0  0  0  0  0
   -2.4932    2.4530   -0.4393 H   0  0  0  0  0
   -4.9174    1.9835   -0.8863 H   0  0  0  0  0
   -3.4748    2.9806   -4.6721 H   0  0  0  0  0
   -1.3261    1.7467   -4.2249 H   0  0  0  0  0
   -1.4261    3.1892   -3.2351 H   0  0  0  0  0
   -1.7347    0.2713   -2.4093 H   0  0  0  0  0
    1.9384    1.2045   -1.2913 C   0  0  2  0  0
    3.1073    0.9749   -2.2288 C   0  0  0  0  0
    4.3203    1.3548   -1.5871 O   0  0  0  0  0
    4.3892    0.8380   -0.7662 H   0  0  0  0  0
    3.1929   -0.0802   -2.5092 H   0  0  0  0  0
    3.0130    1.5756   -3.1389 H   0  0  0  0  0
    2.0760    0.5728    0.0692 C   0  0  0  0  0
    2.6982   -0.6762    0.2172 C   0  0  0  0  0
    2.8280   -1.2597    1.4781 C   0  0  0  0  0
    2.3372   -0.6038    2.6048 C   0  0  0  0  0
    1.7180    0.6374    2.4713 C   0  0  0  0  0
    1.5883    1.2231    1.2110 C   0  0  0  0  0
    1.1025    2.1923    1.1272 H   0  0  0  0  0
    1.3363    1.1492    3.3495 H   0  0  0  0  0
    2.4394   -1.0571    3.5858 H   0  0  0  0  0
    3.3126   -2.2257    1.5801 H   0  0  0  0  0
    3.0862   -1.2016   -0.6519 H   0  0  0  0  0
    1.8952    2.3002   -1.1160 H   0  0  0  0  0
  1  2  2  0  0  0
  2  3  1  0  0  0
  2 26  1  0  0  0
  3  4  1  0  0  0
  4  5  1  0  0  0
  4 18  1  0  0  0
  4 25  1  0  0  0
  5  6  1  0  0  0
  5 23  1  0  0  0
  5 24  1  0  0  0
  6  7  1  0  0  0
  6 15  1  0  0  0
  6 22  1  0  0  0
  7  8  1  0  0  0
  7 12  1  0  0  0
  8  9  1  0  0  0
  8 10  1  0  0  0
  8 11  1  0  0  0
 12 13  1  0  0  0
 12 18  1  0  0  0
 12 21  1  0  0  0
 13 14  1  0  0  0
 13 15  1  0  0  0
 13 17  1  0  0  0
 14 15  1  0  0  0
 15 16  1  0  0  0
 18 19  1  0  0  0
 18 20  1  0  0  0
 26 27  1  0  0  0
 26 32  1  0  0  0
 26 43  1  0  0  0
 27 28  1  0  0  0
 27 30  1  0  0  0
 27 31  1  0  0  0
 28 29  1  0  0  0
 32 33  2  0  0  0
 32 37  1  0  0  0
 33 34  1  0  0  0
 33 42  1  0  0  0
 34 35  2  0  0  0
 34 41  1  0  0  0
 35 36  1  0  0  0
 35 40  1  0  0  0
 36 37  2  0  0  0
 36 39  1  0  0  0
 37 38  1  0  0  0
M  END
> <Tumorigenic>
none

> <Score>
36.153748

> <Active/Decoy>
active

> <InChI>
InChI=1S/C17H21NO4/c1-18-13-7-11(8-14(18)16-15(13)22-16)21-17(20)12(9-19)10-5-3-2-4-6-10/h2-6,11-16,19H,7-9H2,1H3/t11-,12-,13-,14+,15-,16+/m1/s1

> <Matching Features>
H:14924486185440016873||HBA:14924321692640012300|HBA:14924486112070016868

> <Mol. Index>
791

> <Pharmacophore Match>
Model -1

> <# Confs.>
25

> <Source Database>
Pharm-Screening-input-NANPDB_After_DataWarror.ldb

> <Pharmacophore-Fit Score>
36.15

> <formula>
C17H21NO4

> <Mutagenic>
none

> <Reproductive Effective>
none

> <Irritant>
none

$$$$
isosilybin B
XX    ILIB03122402113D

 57 61  0  0  1  0              1 V2000
   -5.7979    1.0219   -4.1055 O   0  0  0  0  0
   -4.6683    1.3114   -4.4828 C   0  0  0  0  0
   -3.8311    0.3508   -5.2389 C   0  0  0  0  0
   -2.5869    0.7870   -5.7114 C   0  0  0  0  0
   -2.0721    2.0366   -5.4798 O   0  0  0  0  0
   -2.5619    2.6907   -4.2983 C   0  0  1  0  0
   -4.0920    2.6861   -4.2551 C   0  0  1  0  0
   -4.6202    3.5159   -5.2807 O   0  0  0  0  0
   -4.2104    3.2541   -6.1229 H   0  0  0  0  0
   -4.4572    3.0709   -3.2971 H   0  0  0  0  0
   -1.8393    2.1773   -3.0736 C   0  0  0  0  0
   -0.4483    2.3160   -2.9659 C   0  0  0  0  0
    0.2268    1.8329   -1.8431 C   0  0  0  0  0
    1.5856    1.9849   -1.8185 O   0  0  0  0  0
    2.2241    1.1473   -0.8344 C   0  0  2  0  0
    1.4499    1.2654    0.4972 C   0  0  1  0  0
    0.1154    0.7803    0.3401 O   0  0  0  0  0
   -0.4816    1.2382   -0.8029 C   0  0  0  0  0
   -1.8630    1.0858   -0.8999 C   0  0  0  0  0
   -2.5379    1.5545   -2.0278 C   0  0  0  0  0
   -3.6178    1.4347   -2.0826 H   0  0  0  0  0
   -2.4232    0.6137   -0.0976 H   0  0  0  0  0
    2.0520    0.4624    1.6290 C   0  0  0  0  0
    1.9495    0.8911    2.9587 C   0  0  0  0  0
    2.5061    0.1422    4.0030 C   0  0  0  0  0
    2.4587    0.4807    5.3242 O   0  0  0  0  0
    1.8014    1.7119    5.6167 C   0  0  0  0  0
    2.3026    2.5567    5.1455 H   0  0  0  0  0
    1.8365    1.8594    6.6986 H   0  0  0  0  0
    0.7426    1.6646    5.3202 H   0  0  0  0  0
    3.1647   -1.0517    3.6971 C   0  0  0  0  0
    3.7228   -1.8255    4.6785 O   0  0  0  0  0
    3.5800   -1.3802    5.5324 H   0  0  0  0  0
    3.2713   -1.5005    2.3835 C   0  0  0  0  0
    2.7195   -0.7455    1.3501 C   0  0  0  0  0
    2.8076   -1.1066    0.3293 H   0  0  0  0  0
    3.7804   -2.4332    2.1571 H   0  0  0  0  0
    1.4425    1.8329    3.1552 H   0  0  0  0  0
    1.3938    2.3164    0.7955 H   0  0  0  0  0
    3.6588    1.6310   -0.7364 C   0  0  0  0  0
    4.2982    1.5087   -1.9965 O   0  0  0  0  0
    5.2097    1.8290   -1.8867 H   0  0  0  0  0
    4.2190    1.0538    0.0077 H   0  0  0  0  0
    3.6864    2.6812   -0.4251 H   0  0  0  0  0
    2.2056    0.1215   -1.2275 H   0  0  0  0  0
    0.1146    2.7926   -3.7651 H   0  0  0  0  0
   -2.2587    3.7408   -4.4116 H   0  0  0  0  0
   -1.7941   -0.0552   -6.4956 C   0  0  0  0  0
   -2.2345   -1.3437   -6.7839 C   0  0  0  0  0
   -1.4763   -2.1929   -7.5391 O   0  0  0  0  0
   -0.6578   -1.7339   -7.7951 H   0  0  0  0  0
   -3.4573   -1.7997   -6.3055 C   0  0  0  0  0
   -4.2562   -0.9517   -5.5348 C   0  0  0  0  0
   -5.4474   -1.4760   -5.1113 O   0  0  0  0  0
   -5.9040   -0.8261   -4.5535 H   0  0  0  0  0
   -3.7925   -2.8082   -6.5347 H   0  0  0  0  0
   -0.8342    0.2923   -6.8693 H   0  0  0  0  0
  1  2  2  0  0  0
  2  3  1  0  0  0
  2  7  1  0  0  0
  3  4  2  0  0  0
  3 53  1  0  0  0
  4  5  1  0  0  0
  4 48  1  0  0  0
  5  6  1  0  0  0
  6  7  1  0  0  0
  6 11  1  0  0  0
  6 47  1  0  0  0
  7  8  1  0  0  0
  7 10  1  0  0  0
  8  9  1  0  0  0
 11 12  2  0  0  0
 11 20  1  0  0  0
 12 13  1  0  0  0
 12 46  1  0  0  0
 13 14  1  0  0  0
 13 18  2  0  0  0
 14 15  1  0  0  0
 15 16  1  0  0  0
 15 40  1  0  0  0
 15 45  1  0  0  0
 16 17  1  0  0  0
 16 23  1  0  0  0
 16 39  1  0  0  0
 17 18  1  0  0  0
 18 19  1  0  0  0
 19 20  2  0  0  0
 19 22  1  0  0  0
 20 21  1  0  0  0
 23 24  2  0  0  0
 23 35  1  0  0  0
 24 25  1  0  0  0
 24 38  1  0  0  0
 25 26  1  0  0  0
 25 31  2  0  0  0
 26 27  1  0  0  0
 27 28  1  0  0  0
 27 29  1  0  0  0
 27 30  1  0  0  0
 31 32  1  0  0  0
 31 34  1  0  0  0
 32 33  1  0  0  0
 34 35  2  0  0  0
 34 37  1  0  0  0
 35 36  1  0  0  0
 40 41  1  0  0  0
 40 43  1  0  0  0
 40 44  1  0  0  0
 41 42  1  0  0  0
 48 49  2  0  0  0
 48 57  1  0  0  0
 49 50  1  0  0  0
 49 52  1  0  0  0
 50 51  1  0  0  0
 52 53  2  0  0  0
 52 56  1  0  0  0
 53 54  1  0  0  0
 54 55  1  0  0  0
M  END
> <Tumorigenic>
none

> <Score>
36.11946

> <Active/Decoy>
active

> <InChI>
InChI=1S/C25H22O10/c1-32-17-6-11(2-4-14(17)28)24-20(10-26)33-18-7-12(3-5-16(18)34-24)25-23(31)22(30)21-15(29)8-13(27)9-19(21)35-25/h2-9,20,23-29,31H,10H2,1H3/t20-,23-,24-,25+/m0/s1

> <Matching Features>
H:14924486185440016873||HBA:14924321692640012300|HBA:14924486112070016868

> <Mol. Index>
250

> <Pharmacophore Match>
Model -1

> <# Confs.>
25

> <Source Database>
Pharm-Screening-input-NANPDB_After_DataWarror.ldb

> <Pharmacophore-Fit Score>
36.12

> <formula>
C25H22O10

> <Mutagenic>
none

> <Reproductive Effective>
none

> <Irritant>
none

$$$$
jaeschkeanadiol p-hydroxybenzoate
XX    ILIB03122402113D

 56 58  0  0  1  0              1 V2000
   -0.9278    2.9728    0.3215 O   0  0  0  0  0
   -0.8721    2.1596   -0.5710 C   0  0  0  0  0
    0.1817    1.4029   -0.9381 O   0  0  0  0  0
    1.1147    1.0578    0.0918 C   0  0  2  0  0
    2.5447    0.9197   -0.5113 C   0  0  1  0  0
    3.1126    2.1224   -1.3541 C   0  0  1  0  0
    4.0883    1.5882   -2.2743 O   0  0  0  0  0
    3.6370    0.9598   -2.8616 H   0  0  0  0  0
    2.1634    3.0208   -2.1685 C   0  0  0  0  0
    2.8802    4.1842   -2.8587 C   0  0  0  0  0
    3.6246    3.8317   -3.5804 H   0  0  0  0  0
    2.1626    4.8083   -3.4025 H   0  0  0  0  0
    3.3869    4.8263   -2.1320 H   0  0  0  0  0
    1.3867    2.2053   -3.2055 C   0  0  0  0  0
    0.8456    1.3827   -2.7274 H   0  0  0  0  0
    2.0494    1.7821   -3.9670 H   0  0  0  0  0
    0.6516    2.8350   -3.7182 H   0  0  0  0  0
    1.4234    3.4550   -1.4719 H   0  0  0  0  0
    3.8967    2.9235   -0.3141 C   0  0  0  0  0
    4.6645    1.8488    0.4344 C   0  0  0  0  0
    3.6704    0.6632    0.5801 C   0  0  1  0  0
    3.2006    0.6610    2.0575 C   0  0  0  0  0
    2.3190   -0.4632    2.4892 C   0  0  0  0  0
    1.2018   -0.8863    1.8819 C   0  0  0  0  0
    0.5775   -0.2663    0.6641 C   0  0  0  0  0
   -0.4864   -0.1153    0.8967 H   0  0  0  0  0
    0.5812   -1.0148   -0.1408 H   0  0  0  0  0
    0.4519   -2.0748    2.4284 C   0  0  0  0  0
   -0.5646   -1.7851    2.7129 H   0  0  0  0  0
    0.3913   -2.8636    1.6723 H   0  0  0  0  0
    0.9337   -2.5026    3.3144 H   0  0  0  0  0
    2.6508   -0.9847    3.3851 H   0  0  0  0  0
    4.0950    0.6065    2.6960 H   0  0  0  0  0
    2.7288    1.6142    2.3278 H   0  0  0  0  0
    4.4168   -0.6507    0.2670 C   0  0  0  0  0
    3.7460   -1.5150    0.3036 H   0  0  0  0  0
    4.8586   -0.6285   -0.7352 H   0  0  0  0  0
    5.2293   -0.8234    0.9819 H   0  0  0  0  0
    5.5509    1.5569   -0.1429 H   0  0  0  0  0
    5.0332    2.2323    1.3920 H   0  0  0  0  0
    4.5977    3.6376   -0.7580 H   0  0  0  0  0
    3.2243    3.4623    0.3633 H   0  0  0  0  0
    2.5028    0.0563   -1.1907 H   0  0  0  0  0
    1.1020    1.8583    0.8470 H   0  0  0  0  0
   -2.0316    1.8403   -1.4500 C   0  0  0  0  0
   -2.9788    2.8393   -1.7101 C   0  0  0  0  0
   -4.0736    2.5712   -2.5338 C   0  0  0  0  0
   -4.2169    1.3051   -3.0958 C   0  0  0  0  0
   -5.2751    1.0142   -3.9104 O   0  0  0  0  0
   -5.8256    1.8094   -3.9969 H   0  0  0  0  0
   -3.2843    0.3042   -2.8419 C   0  0  0  0  0
   -2.1893    0.5700   -2.0167 C   0  0  0  0  0
   -1.4768   -0.2286   -1.8347 H   0  0  0  0  0
   -3.4000   -0.6827   -3.2808 H   0  0  0  0  0
   -4.8018    3.3532   -2.7288 H   0  0  0  0  0
   -2.8819    3.8337   -1.2818 H   0  0  0  0  0
  1  2  2  0  0  0
  2  3  1  0  0  0
  2 45  1  0  0  0
  3  4  1  0  0  0
  4  5  1  0  0  0
  4 25  1  0  0  0
  4 44  1  0  0  0
  5  6  1  0  0  0
  5 21  1  0  0  0
  5 43  1  0  0  0
  6  7  1  0  0  0
  6  9  1  0  0  0
  6 19  1  0  0  0
  7  8  1  0  0  0
  9 10  1  0  0  0
  9 14  1  0  0  0
  9 18  1  0  0  0
 10 11  1  0  0  0
 10 12  1  0  0  0
 10 13  1  0  0  0
 14 15  1  0  0  0
 14 16  1  0  0  0
 14 17  1  0  0  0
 19 20  1  0  0  0
 19 41  1  0  0  0
 19 42  1  0  0  0
 20 21  1  0  0  0
 20 39  1  0  0  0
 20 40  1  0  0  0
 21 22  1  0  0  0
 21 35  1  0  0  0
 22 23  1  0  0  0
 22 33  1  0  0  0
 22 34  1  0  0  0
 23 24  2  0  0  0
 23 32  1  0  0  0
 24 25  1  0  0  0
 24 28  1  0  0  0
 25 26  1  0  0  0
 25 27  1  0  0  0
 28 29  1  0  0  0
 28 30  1  0  0  0
 28 31  1  0  0  0
 35 36  1  0  0  0
 35 37  1  0  0  0
 35 38  1  0  0  0
 45 46  2  0  0  0
 45 52  1  0  0  0
 46 47  1  0  0  0
 46 56  1  0  0  0
 47 48  2  0  0  0
 47 55  1  0  0  0
 48 49  1  0  0  0
 48 51  1  0  0  0
 49 50  1  0  0  0
 51 52  2  0  0  0
 51 54  1  0  0  0
 52 53  1  0  0  0
M  END
> <Tumorigenic>
none

> <Score>
36.104454

> <Active/Decoy>
active

> <InChI>
InChI=1S/C22H30O4/c1-14(2)22(25)12-11-21(4)10-9-15(3)13-18(19(21)22)26-20(24)16-5-7-17(23)8-6-16/h5-9,14,18-19,23,25H,10-13H2,1-4H3/t18-,19+,21+,22-/m0/s1

> <Matching Features>
H:14924486185440016873||HBA:14924321692640012300|HBA:14924486112070016868

> <Mol. Index>
886

> <Pharmacophore Match>
Model -1

> <# Confs.>
22

> <Source Database>
Pharm-Screening-input-NANPDB_After_DataWarror.ldb

> <Pharmacophore-Fit Score>
36.1

> <formula>
C22H30O4

> <Mutagenic>
none

> <Reproductive Effective>
none

> <Irritant>
none

$$$$
3beta,13-diacetoxy-1beta,13-dihydroxyeudesma-4(14),7(11)-dien-6alpha,12-olide
XX    ILIB03122402113D

 47 49  0  0  1  0              1 V2000
   -3.0526    0.6710    0.9336 O   0  0  0  0  0
   -1.9930    0.8727    0.3648 C   0  0  0  0  0
   -0.7885    1.0492    0.9815 O   0  0  0  0  0
    0.2176    1.3186   -0.0004 C   0  0  2  0  0
   -0.5132    1.1959   -1.2845 C   0  0  0  0  0
   -1.8208    0.9566   -1.0927 C   0  0  0  0  0
   -2.9323    0.7439   -2.0548 C   0  0  0  0  0
   -3.5707    1.9824   -2.3056 O   0  0  0  0  0
   -4.6107    1.9628   -3.1676 C   0  0  0  0  0
   -5.0513    0.9820   -3.7513 O   0  0  0  0  0
   -5.1636    3.3475   -3.3171 C   0  0  0  0  0
   -5.5919    3.6698   -2.3647 H   0  0  0  0  0
   -5.9523    3.3450   -4.0751 H   0  0  0  0  0
   -4.3802    4.0364   -3.6415 H   0  0  0  0  0
   -2.5121    0.3428   -2.9983 H   0  0  0  0  0
   -3.6565    0.0230   -1.6690 H   0  0  0  0  0
    0.2759    1.2617   -2.5470 C   0  0  0  0  0
    1.4283    0.2544   -2.4789 C   0  0  0  0  0
    2.2703    0.3619   -1.1840 C   0  0  1  0  0
    3.1693    1.6168   -1.1745 C   0  0  2  0  0
    4.0672    1.5879   -2.2807 O   0  0  0  0  0
    4.6120    0.7862   -2.2038 H   0  0  0  0  0
    3.9864    1.7068    0.1139 C   0  0  0  0  0
    3.1068    1.6809    1.3669 C   0  0  2  0  0
    3.9609    1.6639    2.5208 O   0  0  0  0  0
    4.3356    2.8658    3.0106 C   0  0  0  0  0
    4.0190    3.9613    2.5680 O   0  0  0  0  0
    5.2065    2.6666    4.2122 C   0  0  0  0  0
    4.6286    2.2018    5.0150 H   0  0  0  0  0
    5.5743    3.6365    4.5601 H   0  0  0  0  0
    6.0701    2.0489    3.9505 H   0  0  0  0  0
    2.1943    0.4672    1.3406 C   0  0  0  0  0
    1.3639    0.2918    0.0756 C   0  0  1  0  0
    0.9125   -0.7121    0.0964 H   0  0  0  0  0
    2.1167   -0.4313    2.3365 C   0  0  0  0  0
    2.7009   -0.3393    3.2449 H   0  0  0  0  0
    1.4557   -1.2895    2.2686 H   0  0  0  0  0
    2.4798    2.5824    1.3984 H   0  0  0  0  0
    4.5959    2.6192    0.0987 H   0  0  0  0  0
    4.7228    0.8913    0.1532 H   0  0  0  0  0
    2.5675    2.5253   -1.2788 H   0  0  0  0  0
    2.9338   -0.5159   -1.1788 H   0  0  0  0  0
    1.0099   -0.7596   -2.5327 H   0  0  0  0  0
    2.0651    0.3681   -3.3643 H   0  0  0  0  0
   -0.3413    1.0437   -3.4237 H   0  0  0  0  0
    0.6662    2.2766   -2.6793 H   0  0  0  0  0
    0.5670    2.3472    0.1426 H   0  0  0  0  0
  1  2  2  0  0  0
  2  3  1  0  0  0
  2  6  1  0  0  0
  3  4  1  0  0  0
  4  5  1  0  0  0
  4 33  1  0  0  0
  4 47  1  0  0  0
  5  6  2  0  0  0
  5 17  1  0  0  0
  6  7  1  0  0  0
  7  8  1  0  0  0
  7 15  1  0  0  0
  7 16  1  0  0  0
  8  9  1  0  0  0
  9 10  2  0  0  0
  9 11  1  0  0  0
 11 12  1  0  0  0
 11 13  1  0  0  0
 11 14  1  0  0  0
 17 18  1  0  0  0
 17 45  1  0  0  0
 17 46  1  0  0  0
 18 19  1  0  0  0
 18 43  1  0  0  0
 18 44  1  0  0  0
 19 20  1  0  0  0
 19 33  1  0  0  0
 19 42  1  0  0  0
 20 21  1  0  0  0
 20 23  1  0  0  0
 20 41  1  0  0  0
 21 22  1  0  0  0
 23 24  1  0  0  0
 23 39  1  0  0  0
 23 40  1  0  0  0
 24 25  1  0  0  0
 24 32  1  0  0  0
 24 38  1  0  0  0
 25 26  1  0  0  0
 26 27  2  0  0  0
 26 28  1  0  0  0
 28 29  1  0  0  0
 28 30  1  0  0  0
 28 31  1  0  0  0
 32 33  1  0  0  0
 32 35  2  0  0  0
 33 34  1  0  0  0
 35 36  1  0  0  0
 35 37  1  0  0  0
M  END
> <Tumorigenic>
none

> <Score>
36.09972

> <Active/Decoy>
active

> <InChI>
InChI=1S/C18H22O7/c1-8-15(24-10(3)20)6-14(21)12-5-4-11-13(7-23-9(2)19)18(22)25-17(11)16(8)12/h12,14-17,21H,1,4-7H2,2-3H3/t12-,14+,15-,16+,17+/m0/s1

> <Matching Features>
H:14924486185440016873||HBA:14924321692640012300|HBA:14924486112070016868

> <Mol. Index>
403

> <Pharmacophore Match>
Model -1

> <# Confs.>
25

> <Source Database>
Pharm-Screening-input-NANPDB_After_DataWarror.ldb

> <Pharmacophore-Fit Score>
36.1

> <formula>
C18H22O7

> <Mutagenic>
none

> <Reproductive Effective>
none

> <Irritant>
none

$$$$
14beta-acetoxy-3beta-benzoyloxy-7beta,9alpha,15beta trihydroxyjatropha-5E,11E-diene
XX    ILIB03122402113D

 76 78  0  0  1  0              1 V2000
    0.1860   -2.2448   -3.4556 O   0  0  0  0  0
    0.0101   -2.8995   -2.4402 C   0  0  0  0  0
   -0.8509   -2.6173   -1.4327 O   0  0  0  0  0
   -1.6196   -1.4152   -1.5253 C   0  0  2  0  0
   -0.9346   -0.1623   -0.9446 C   0  0  1  0  0
   -2.1375    0.8086   -0.7815 C   0  0  1  0  0
   -1.8437    1.8305    0.1699 O   0  0  0  0  0
   -2.6556    2.3466    0.3075 H   0  0  0  0  0
   -2.6018    1.5093   -2.1091 C   0  0  1  0  0
   -3.8666    2.1315   -1.8264 O   0  0  0  0  0
   -4.9373    1.7266   -2.5636 C   0  0  0  0  0
   -4.9317    0.8812   -3.4482 O   0  0  0  0  0
   -6.1653    2.4572   -2.1136 C   0  0  0  0  0
   -6.9483    2.3508   -2.8698 H   0  0  0  0  0
   -6.5178    2.0392   -1.1686 H   0  0  0  0  0
   -5.9489    3.5241   -2.0046 H   0  0  0  0  0
   -1.6685    2.6412   -2.6570 C   0  0  1  0  0
   -0.3372    2.1349   -3.1548 C   0  0  0  0  0
    0.8440    2.6695   -2.7984 C   0  0  0  0  0
    2.2398    2.1944   -3.1863 C   0  0  0  0  0
    3.1099    1.9496   -1.8989 C   0  0  2  0  0
    4.4567    1.6410   -2.2889 O   0  0  0  0  0
    4.4783    0.7200   -2.5970 H   0  0  0  0  0
    2.6431    0.8341   -0.9314 C   0  0  0  0  0
    1.5694    1.2796    0.0699 C   0  0  2  0  0
    2.1627    2.1888    1.0020 O   0  0  0  0  0
    1.4564    2.5070    1.5898 H   0  0  0  0  0
    0.9283    0.1110    0.7934 C   0  0  0  0  0
   -0.2105   -0.4739    0.3643 C   0  0  0  0  0
   -0.6312   -1.2737    0.9701 H   0  0  0  0  0
    1.6078   -0.3830    2.0416 C   0  0  0  0  0
    1.1250   -1.2760    2.4513 H   0  0  0  0  0
    2.6501   -0.6442    1.8291 H   0  0  0  0  0
    1.5922    0.3856    2.8212 H   0  0  0  0  0
    0.7925    1.8552   -0.4274 H   0  0  0  0  0
    2.3061   -0.0364   -1.5033 H   0  0  0  0  0
    3.5203    0.4902   -0.3642 H   0  0  0  0  0
    3.1835    2.8905   -1.3378 H   0  0  0  0  0
    2.2267    0.9486   -4.1007 C   0  0  0  0  0
    3.2395    0.6476   -4.3900 H   0  0  0  0  0
    1.6840    1.1460   -5.0336 H   0  0  0  0  0
    1.7499    0.0885   -3.6219 H   0  0  0  0  0
    2.8797    3.3427   -4.0025 C   0  0  0  0  0
    3.8776    3.0716   -4.3675 H   0  0  0  0  0
    2.2720    3.5941   -4.8800 H   0  0  0  0  0
    2.9825    4.2528   -3.4020 H   0  0  0  0  0
    0.8224    3.5369   -2.1388 H   0  0  0  0  0
   -0.3724    1.2823   -3.8253 H   0  0  0  0  0
   -2.3269    3.4062   -3.8174 C   0  0  0  0  0
   -3.2183    3.9468   -3.4823 H   0  0  0  0  0
   -1.6432    4.1534   -4.2366 H   0  0  0  0  0
   -2.6211    2.7288   -4.6263 H   0  0  0  0  0
   -1.5136    3.3759   -1.8557 H   0  0  0  0  0
   -2.7439    0.7563   -2.8952 H   0  0  0  0  0
   -3.2246   -0.1284   -0.1942 C   0  0  0  0  0
   -2.9380   -1.5376   -0.7444 C   0  0  1  0  0
   -4.0743   -2.0779   -1.6052 C   0  0  0  0  0
   -3.8246   -3.0691   -1.9958 H   0  0  0  0  0
   -4.2811   -1.4203   -2.4556 H   0  0  0  0  0
   -4.9931   -2.1673   -1.0177 H   0  0  0  0  0
   -2.8076   -2.2316    0.0957 H   0  0  0  0  0
   -4.2476    0.2017   -0.3940 H   0  0  0  0  0
   -3.1407   -0.1505    0.9012 H   0  0  0  0  0
   -0.1960    0.1809   -1.6538 H   0  0  0  0  0
   -1.8478   -1.2403   -2.5988 H   0  0  0  0  0
    0.7226   -4.1595   -2.1575 C   0  0  0  0  0
    1.6488   -4.6437   -3.0822 C   0  0  0  0  0
    2.3255   -5.8296   -2.8069 C   0  0  0  0  0
    2.0811   -6.5159   -1.6151 C   0  0  0  0  0
    1.1538   -6.0202   -0.6964 C   0  0  0  0  0
    0.4658   -4.8363   -0.9656 C   0  0  0  0  0
   -0.2520   -4.4540   -0.2468 H   0  0  0  0  0
    0.9685   -6.5559    0.2293 H   0  0  0  0  0
    2.6160   -7.4377   -1.4012 H   0  0  0  0  0
    3.0498   -6.2198   -3.5170 H   0  0  0  0  0
    1.8377   -4.1167   -4.0135 H   0  0  0  0  0
  1  2  2  0  0  0
  2  3  1  0  0  0
  2 66  1  0  0  0
  3  4  1  0  0  0
  4  5  1  0  0  0
  4 56  1  0  0  0
  4 65  1  0  0  0
  5  6  1  0  0  0
  5 29  1  0  0  0
  5 64  1  0  0  0
  6  7  1  0  0  0
  6  9  1  0  0  0
  6 55  1  0  0  0
  7  8  1  0  0  0
  9 10  1  0  0  0
  9 17  1  0  0  0
  9 54  1  0  0  0
 10 11  1  0  0  0
 11 12  2  0  0  0
 11 13  1  0  0  0
 13 14  1  0  0  0
 13 15  1  0  0  0
 13 16  1  0  0  0
 17 18  1  0  0  0
 17 49  1  0  0  0
 17 53  1  0  0  0
 18 19  2  0  0  0
 18 48  1  0  0  0
 19 20  1  0  0  0
 19 47  1  0  0  0
 20 21  1  0  0  0
 20 39  1  0  0  0
 20 43  1  0  0  0
 21 22  1  0  0  0
 21 24  1  0  0  0
 21 38  1  0  0  0
 22 23  1  0  0  0
 24 25  1  0  0  0
 24 36  1  0  0  0
 24 37  1  0  0  0
 25 26  1  0  0  0
 25 28  1  0  0  0
 25 35  1  0  0  0
 26 27  1  0  0  0
 28 29  2  0  0  0
 28 31  1  0  0  0
 29 30  1  0  0  0
 31 32  1  0  0  0
 31 33  1  0  0  0
 31 34  1  0  0  0
 39 40  1  0  0  0
 39 41  1  0  0  0
 39 42  1  0  0  0
 43 44  1  0  0  0
 43 45  1  0  0  0
 43 46  1  0  0  0
 49 50  1  0  0  0
 49 51  1  0  0  0
 49 52  1  0  0  0
 55 56  1  0  0  0
 55 62  1  0  0  0
 55 63  1  0  0  0
 56 57  1  0  0  0
 56 61  1  0  0  0
 57 58  1  0  0  0
 57 59  1  0  0  0
 57 60  1  0  0  0
 66 67  2  0  0  0
 66 71  1  0  0  0
 67 68  1  0  0  0
 67 76  1  0  0  0
 68 69  2  0  0  0
 68 75  1  0  0  0
 69 70  1  0  0  0
 69 74  1  0  0  0
 70 71  2  0  0  0
 70 73  1  0  0  0
 71 72  1  0  0  0
M  END
> <Tumorigenic>
none

> <Score>
36.08187

> <Active/Decoy>
active

> <InChI>
InChI=1S/C29H40O7/c1-17-12-13-28(5,6)24(32)15-23(31)18(2)14-22-25(36-27(33)21-10-8-7-9-11-21)19(3)16-29(22,34)26(17)35-20(4)30/h7-14,17,19,22-26,31-32,34H,15-16H2,1-6H3/b13-12+,18-14-/t17-,19-,22-,23-,24-,25+,26+,29-/m1/s1

> <Matching Features>
H:14924486185440016873||HBA:14924321692640012300|HBA:14924486112070016868

> <Mol. Index>
512

> <Pharmacophore Match>
Model -1

> <# Confs.>
25

> <Source Database>
Pharm-Screening-input-NANPDB_After_DataWarror.ldb

> <Pharmacophore-Fit Score>
36.08

> <formula>
C29H40O7

> <Mutagenic>
none

> <Reproductive Effective>
none

> <Irritant>
none

$$$$
euphornin L
XX    ILIB03122402113D

 81 83  0  0  1  0              1 V2000
   -1.3366    3.2648    1.5766 O   0  0  0  0  0
   -1.2739    2.4577    2.4902 C   0  0  0  0  0
   -0.5636    1.2956    2.5072 O   0  0  0  0  0
    0.1607    0.9669    1.3190 C   0  0  2  0  0
   -0.7025    0.8359    0.0545 C   0  0  1  0  0
    0.2326    0.0426   -0.9115 C   0  0  1  0  0
   -0.5813   -0.6005   -1.9072 O   0  0  0  0  0
   -0.1594   -1.8097   -2.3685 C   0  0  0  0  0
    0.8489   -2.4093   -2.0181 O   0  0  0  0  0
   -1.1396   -2.3377   -3.3719 C   0  0  0  0  0
   -0.6766   -3.1485   -3.9389 H   0  0  0  0  0
   -2.0247   -2.7178   -2.8571 H   0  0  0  0  0
   -1.4157   -1.5489   -4.0763 H   0  0  0  0  0
    1.3183    0.9661   -1.5870 C   0  0  1  0  0
    2.1499    0.1292   -2.4076 O   0  0  0  0  0
    3.4463    0.5127   -2.5751 C   0  0  0  0  0
    3.9770    1.5044   -2.0927 O   0  0  0  0  0
    4.1625   -0.4878   -3.4311 C   0  0  0  0  0
    5.0969   -0.0508   -3.7943 H   0  0  0  0  0
    4.3863   -1.3808   -2.8434 H   0  0  0  0  0
    3.5511   -0.7430   -4.3007 H   0  0  0  0  0
    0.8426    2.1617   -2.4834 C   0  0  1  0  0
   -0.4316    1.8839   -3.2522 C   0  0  0  0  0
   -1.6288    2.4730   -3.0865 C   0  0  0  0  0
   -2.9218    2.1581   -3.8319 C   0  0  0  0  0
   -3.9056    1.3360   -2.9241 C   0  0  2  0  0
   -5.0423    0.9752   -3.7307 O   0  0  0  0  0
   -5.5662    0.3281   -3.2284 H   0  0  0  0  0
   -4.4749    2.0159   -1.6607 C   0  0  0  0  0
   -3.6169    1.9780   -0.3843 C   0  0  1  0  0
   -4.3465    2.6408    0.6574 O   0  0  0  0  0
   -4.5304    3.5472    0.3569 H   0  0  0  0  0
   -3.2727    0.5873    0.1207 C   0  0  0  0  0
   -2.0219    0.1183    0.3158 C   0  0  0  0  0
   -1.9231   -0.8972    0.6979 H   0  0  0  0  0
   -4.4453   -0.3081    0.4476 C   0  0  0  0  0
   -5.0153   -0.5403   -0.4557 H   0  0  0  0  0
   -4.1323   -1.2619    0.8867 H   0  0  0  0  0
   -5.1106    0.1747    1.1696 H   0  0  0  0  0
   -2.7283    2.5870   -0.5323 H   0  0  0  0  0
   -5.4516    1.5709   -1.4221 H   0  0  0  0  0
   -4.7414    3.0560   -1.8799 H   0  0  0  0  0
   -3.4233    0.3901   -2.6498 H   0  0  0  0  0
   -2.6580    1.3484   -5.1299 C   0  0  0  0  0
   -2.3173    0.3308   -4.9070 H   0  0  0  0  0
   -3.5636    1.2610   -5.7420 H   0  0  0  0  0
   -1.9007    1.8308   -5.7587 H   0  0  0  0  0
   -3.5438    3.5009   -4.2769 C   0  0  0  0  0
   -2.8956    4.0138   -4.9996 H   0  0  0  0  0
   -3.6849    4.1903   -3.4373 H   0  0  0  0  0
   -4.5178    3.3542   -4.7565 H   0  0  0  0  0
   -1.7108    3.2560   -2.3385 H   0  0  0  0  0
   -0.3280    1.1005   -3.9977 H   0  0  0  0  0
    0.8648    3.4899   -1.7111 C   0  0  0  0  0
    1.8777    3.6818   -1.3074 H   0  0  0  0  0
    0.1707    3.5123   -0.8691 H   0  0  0  0  0
    0.6146    4.3289   -2.3716 H   0  0  0  0  0
    1.6017    2.2976   -3.2693 H   0  0  0  0  0
    1.9584    1.3730   -0.7927 H   0  0  0  0  0
    0.8937   -1.0009    0.0375 C   0  0  0  0  0
    0.8299   -0.4204    1.4627 C   0  0  1  0  0
    2.1978   -0.3400    2.1278 C   0  0  0  0  0
    2.6372   -1.3385    2.2264 H   0  0  0  0  0
    2.1177    0.0939    3.1298 H   0  0  0  0  0
    2.8912    0.2764    1.5455 H   0  0  0  0  0
    0.2028   -1.0707    2.0871 H   0  0  0  0  0
    1.9177   -1.2449   -0.2634 H   0  0  0  0  0
    0.3395   -1.9481    0.0226 H   0  0  0  0  0
   -0.9114    1.8207   -0.3267 H   0  0  0  0  0
    0.9421    1.7238    1.1639 H   0  0  0  0  0
   -1.9776    2.6340    3.7743 C   0  0  0  0  0
   -1.4267    2.0927    4.9363 C   0  0  0  0  0
   -2.0887    2.2727    6.1484 C   0  0  0  0  0
   -3.2857    2.9913    6.1939 C   0  0  0  0  0
   -3.8239    3.5328    5.0244 C   0  0  0  0  0
   -3.1698    3.3576    3.8059 C   0  0  0  0  0
   -3.5920    3.7831    2.9010 H   0  0  0  0  0
   -4.7541    4.0926    5.0665 H   0  0  0  0  0
   -3.7978    3.1310    7.1416 H   0  0  0  0  0
   -1.6733    1.8552    7.0611 H   0  0  0  0  0
   -0.4944    1.5361    4.9064 H   0  0  0  0  0
  1  2  2  0  0  0
  2  3  1  0  0  0
  2 71  1  0  0  0
  3  4  1  0  0  0
  4  5  1  0  0  0
  4 61  1  0  0  0
  4 70  1  0  0  0
  5  6  1  0  0  0
  5 34  1  0  0  0
  5 69  1  0  0  0
  6  7  1  0  0  0
  6 14  1  0  0  0
  6 60  1  0  0  0
  7  8  1  0  0  0
  8  9  2  0  0  0
  8 10  1  0  0  0
 10 11  1  0  0  0
 10 12  1  0  0  0
 10 13  1  0  0  0
 14 15  1  0  0  0
 14 22  1  0  0  0
 14 59  1  0  0  0
 15 16  1  0  0  0
 16 17  2  0  0  0
 16 18  1  0  0  0
 18 19  1  0  0  0
 18 20  1  0  0  0
 18 21  1  0  0  0
 22 23  1  0  0  0
 22 54  1  0  0  0
 22 58  1  0  0  0
 23 24  2  0  0  0
 23 53  1  0  0  0
 24 25  1  0  0  0
 24 52  1  0  0  0
 25 26  1  0  0  0
 25 44  1  0  0  0
 25 48  1  0  0  0
 26 27  1  0  0  0
 26 29  1  0  0  0
 26 43  1  0  0  0
 27 28  1  0  0  0
 29 30  1  0  0  0
 29 41  1  0  0  0
 29 42  1  0  0  0
 30 31  1  0  0  0
 30 33  1  0  0  0
 30 40  1  0  0  0
 31 32  1  0  0  0
 33 34  2  0  0  0
 33 36  1  0  0  0
 34 35  1  0  0  0
 36 37  1  0  0  0
 36 38  1  0  0  0
 36 39  1  0  0  0
 44 45  1  0  0  0
 44 46  1  0  0  0
 44 47  1  0  0  0
 48 49  1  0  0  0
 48 50  1  0  0  0
 48 51  1  0  0  0
 54 55  1  0  0  0
 54 56  1  0  0  0
 54 57  1  0  0  0
 60 61  1  0  0  0
 60 67  1  0  0  0
 60 68  1  0  0  0
 61 62  1  0  0  0
 61 66  1  0  0  0
 62 63  1  0  0  0
 62 64  1  0  0  0
 62 65  1  0  0  0
 71 72  2  0  0  0
 71 76  1  0  0  0
 72 73  1  0  0  0
 72 81  1  0  0  0
 73 74  2  0  0  0
 73 80  1  0  0  0
 74 75  1  0  0  0
 74 79  1  0  0  0
 75 76  2  0  0  0
 75 78  1  0  0  0
 76 77  1  0  0  0
M  END
> <Tumorigenic>
none

> <Score>
36.08416

> <Active/Decoy>
active

> <InChI>
InChI=1S/C31H42O8/c1-18-13-14-30(6,7)26(35)16-25(34)19(2)15-24-27(38-29(36)23-11-9-8-10-12-23)20(3)17-31(24,39-22(5)33)28(18)37-21(4)32/h8-15,18,20,24-28,34-35H,16-17H2,1-7H3/b14-13?,19-15-/t18-,20-,24+,25-,26-,27+,28+,31-/m1/s1

> <Matching Features>
H:14924486185440016873||HBA:14924321692640012300|HBA:14924486112070016868

> <Mol. Index>
501

> <Pharmacophore Match>
Model -1

> <# Confs.>
25

> <Source Database>
Pharm-Screening-input-NANPDB_After_DataWarror.ldb

> <Pharmacophore-Fit Score>
36.08

> <formula>
C31H42O8

> <Mutagenic>
none

> <Reproductive Effective>
none

> <Irritant>
none

$$$$
xanthienopyran
XX    ILIB03122402113D

 38 40  0  0  1  0              1 V2000
   -1.0681    0.5931    1.9313 S   0  0  0  0  0
    0.5875    0.4599    1.5414 C   0  0  0  0  0
    1.3261   -0.2394    2.5683 C   0  0  0  0  0
    2.6173   -0.3225    2.2205 C   0  0  0  0  0
    2.7105    0.3521    0.9294 C   0  0  0  0  0
    1.3928    0.8205    0.5401 C   0  0  0  0  0
    1.1899    1.5288   -0.7424 C   0  0  1  0  0
    2.4454    1.7563   -1.4561 O   0  0  0  0  0
    3.6699    1.2899   -1.1017 C   0  0  0  0  0
    3.7903    0.5512    0.1733 C   0  0  0  0  0
    5.0355    0.0972    0.5524 O   0  0  0  0  0
    5.6649    0.3619   -0.1398 H   0  0  0  0  0
    4.6566    1.4818   -1.8063 O   0  0  0  0  0
    0.2881    0.7737   -1.6677 C   0  0  0  0  0
   -0.8956    1.2337   -2.0960 C   0  0  0  0  0
   -1.7885    0.5645   -2.9986 C   0  0  0  0  0
   -2.9660    1.0284   -3.4230 C   0  0  0  0  0
   -3.8385    0.3040   -4.4002 C   0  0  0  0  0
   -5.2177   -0.0747   -3.8546 C   0  0  0  0  0
   -6.1408    0.9796   -4.1098 O   0  0  0  0  0
   -6.1498    1.1317   -5.0701 H   0  0  0  0  0
   -5.6065   -0.9819   -4.3300 H   0  0  0  0  0
   -5.1839   -0.2295   -2.7722 H   0  0  0  0  0
   -3.3189   -0.5986   -4.7172 H   0  0  0  0  0
   -3.9679    0.9149   -5.3031 H   0  0  0  0  0
   -3.3438    1.9749   -3.0435 H   0  0  0  0  0
   -1.3956   -0.3712   -3.4098 H   0  0  0  0  0
   -1.2410    2.2167   -1.7528 H   0  0  0  0  0
    0.6560   -0.1830   -2.0309 H   0  0  0  0  0
    0.7858    2.5278   -0.5392 H   0  0  0  0  0
    3.4241   -0.7808    2.7663 H   0  0  0  0  0
    0.5165   -0.6588    3.6660 C   0  0  0  0  0
   -0.7653   -0.2866    3.4616 C   0  0  0  0  0
   -1.9040   -0.5492    4.3882 C   0  0  0  0  0
   -2.3506    0.3914    4.7269 H   0  0  0  0  0
   -2.6780   -1.1429    3.8908 H   0  0  0  0  0
   -1.5796   -1.1022    5.2763 H   0  0  0  0  0
    0.8894   -1.1954    4.5233 H   0  0  0  0  0
  1  2  1  0  0  0
  1 33  1  0  0  0
  2  3  1  0  0  0
  2  6  2  0  0  0
  3  4  2  0  0  0
  3 32  1  0  0  0
  4  5  1  0  0  0
  4 31  1  0  0  0
  5  6  1  0  0  0
  5 10  2  0  0  0
  6  7  1  0  0  0
  7  8  1  0  0  0
  7 14  1  0  0  0
  7 30  1  0  0  0
  8  9  1  0  0  0
  9 10  1  0  0  0
  9 13  2  0  0  0
 10 11  1  0  0  0
 11 12  1  0  0  0
 14 15  2  0  0  0
 14 29  1  0  0  0
 15 16  1  0  0  0
 15 28  1  0  0  0
 16 17  2  0  0  0
 16 27  1  0  0  0
 17 18  1  0  0  0
 17 26  1  0  0  0
 18 19  1  0  0  0
 18 24  1  0  0  0
 18 25  1  0  0  0
 19 20  1  0  0  0
 19 22  1  0  0  0
 19 23  1  0  0  0
 20 21  1  0  0  0
 32 33  2  0  0  0
 32 38  1  0  0  0
 33 34  1  0  0  0
 34 35  1  0  0  0
 34 36  1  0  0  0
 34 37  1  0  0  0
M  END
> <Tumorigenic>
none

> <Score>
36.069176

> <Active/Decoy>
active

> <InChI>
InChI=1S/C17H16O4S/c1-10-8-11-9-12-14(16(11)22-10)13(21-17(20)15(12)19)6-4-2-3-5-7-18/h2-4,6,8-9,13,18-19H,5,7H2,1H3/b3-2+,6-4-/t13-/m0/s1

> <Matching Features>
H:14924486185440016873||HBA:14924321692640012300|HBA:14924486112070016868

> <Mol. Index>
1275

> <Pharmacophore Match>
Model -1

> <# Confs.>
25

> <Source Database>
Pharm-Screening-input-NANPDB_After_DataWarror.ldb

> <Pharmacophore-Fit Score>
36.07

> <formula>
C17H16O4S

> <Mutagenic>
none

> <Reproductive Effective>
none

> <Irritant>
none

$$$$
2,3-epoxy-jaeschkeanadiol vanillate
XX    ILIB03122402113D

 61 64  0  0  1  0              1 V2000
   -0.3506   -1.4321   -2.0455 O   0  0  0  0  0
   -0.8384   -0.3268   -1.9180 C   0  0  0  0  0
   -0.3050    0.7291   -1.2714 O   0  0  0  0  0
    0.9865    0.5430   -0.6820 C   0  0  2  0  0
    1.0999    1.4503    0.5710 C   0  0  1  0  0
   -0.0672    1.3865    1.6113 C   0  0  2  0  0
   -0.4837    0.0220    1.7403 O   0  0  0  0  0
   -1.0926   -0.0424    2.4952 H   0  0  0  0  0
   -1.3065    2.2236    1.2422 C   0  0  0  0  0
   -2.3920    2.1229    2.3192 C   0  0  0  0  0
   -2.7323    1.0919    2.4470 H   0  0  0  0  0
   -2.0248    2.4839    3.2856 H   0  0  0  0  0
   -3.2654    2.7234    2.0447 H   0  0  0  0  0
   -0.9453    3.6964    1.0243 C   0  0  0  0  0
   -0.2430    3.8167    0.1936 H   0  0  0  0  0
   -1.8388    4.2830    0.7830 H   0  0  0  0  0
   -0.4895    4.1292    1.9206 H   0  0  0  0  0
   -1.7285    1.8395    0.3035 H   0  0  0  0  0
    0.5766    1.8407    2.9478 C   0  0  0  0  0
    2.0480    2.1262    2.6422 C   0  0  0  0  0
    2.3892    1.2477    1.4255 C   0  0  2  0  0
    3.6469    1.7959    0.7126 C   0  0  0  0  0
    4.2001    0.8426   -0.2963 C   0  0  2  0  0
    4.4187    1.3745   -1.6058 O   0  0  0  0  0
    3.3888    0.3767   -1.4848 C   0  0  2  0  0
    2.0143    0.9171   -1.7546 C   0  0  0  0  0
    1.6763    0.5430   -2.7299 H   0  0  0  0  0
    2.0379    2.0078   -1.8795 H   0  0  0  0  0
    3.7380   -0.9350   -2.1134 C   0  0  0  0  0
    3.6371   -0.8810   -3.2019 H   0  0  0  0  0
    3.0735   -1.7224   -1.7434 H   0  0  0  0  0
    4.7679   -1.2346   -1.8886 H   0  0  0  0  0
    4.9511    0.1816    0.1147 H   0  0  0  0  0
    3.4320    2.7668    0.2492 H   0  0  0  0  0
    4.4321    1.9880    1.4554 H   0  0  0  0  0
    2.6300   -0.2011    1.9098 C   0  0  0  0  0
    1.8214   -0.5795    2.5401 H   0  0  0  0  0
    3.5450   -0.2531    2.5115 H   0  0  0  0  0
    2.7454   -0.9063    1.0819 H   0  0  0  0  0
    2.6864    1.9241    3.5085 H   0  0  0  0  0
    2.1636    3.1898    2.3942 H   0  0  0  0  0
    0.4987    1.0564    3.7103 H   0  0  0  0  0
    0.1171    2.7417    3.3662 H   0  0  0  0  0
    1.1209    2.4854    0.2001 H   0  0  0  0  0
    1.0907   -0.5167   -0.3930 H   0  0  0  0  0
   -2.1768    0.0327   -2.4456 C   0  0  0  0  0
   -2.4653    1.3526   -2.8410 C   0  0  0  0  0
   -3.7276    1.6706   -3.3605 C   0  0  0  0  0
   -4.1163    2.9157   -3.7664 O   0  0  0  0  0
   -3.1312    3.9373   -3.6306 C   0  0  0  0  0
   -2.2563    3.7283   -4.2553 H   0  0  0  0  0
   -2.8413    4.0686   -2.5818 H   0  0  0  0  0
   -3.5736    4.8751   -3.9757 H   0  0  0  0  0
   -4.6832    0.6570   -3.4877 C   0  0  0  0  0
   -5.9162    0.9661   -3.9996 O   0  0  0  0  0
   -6.4572    0.1589   -4.0167 H   0  0  0  0  0
   -4.3984   -0.6528   -3.1026 C   0  0  0  0  0
   -3.1433   -0.9632   -2.5845 C   0  0  0  0  0
   -2.9411   -1.9898   -2.2906 H   0  0  0  0  0
   -5.1440   -1.4350   -3.2016 H   0  0  0  0  0
   -1.7076    2.1226   -2.7369 H   0  0  0  0  0
  1  2  2  0  0  0
  2  3  1  0  0  0
  2 46  1  0  0  0
  3  4  1  0  0  0
  4  5  1  0  0  0
  4 26  1  0  0  0
  4 45  1  0  0  0
  5  6  1  0  0  0
  5 21  1  0  0  0
  5 44  1  0  0  0
  6  7  1  0  0  0
  6  9  1  0  0  0
  6 19  1  0  0  0
  7  8  1  0  0  0
  9 10  1  0  0  0
  9 14  1  0  0  0
  9 18  1  0  0  0
 10 11  1  0  0  0
 10 12  1  0  0  0
 10 13  1  0  0  0
 14 15  1  0  0  0
 14 16  1  0  0  0
 14 17  1  0  0  0
 19 20  1  0  0  0
 19 42  1  0  0  0
 19 43  1  0  0  0
 20 21  1  0  0  0
 20 40  1  0  0  0
 20 41  1  0  0  0
 21 22  1  0  0  0
 21 36  1  0  0  0
 22 23  1  0  0  0
 22 34  1  0  0  0
 22 35  1  0  0  0
 23 24  1  0  0  0
 23 25  1  0  0  0
 23 33  1  0  0  0
 24 25  1  0  0  0
 25 26  1  0  0  0
 25 29  1  0  0  0
 26 27  1  0  0  0
 26 28  1  0  0  0
 29 30  1  0  0  0
 29 31  1  0  0  0
 29 32  1  0  0  0
 36 37  1  0  0  0
 36 38  1  0  0  0
 36 39  1  0  0  0
 46 47  2  0  0  0
 46 58  1  0  0  0
 47 48  1  0  0  0
 47 61  1  0  0  0
 48 49  1  0  0  0
 48 54  2  0  0  0
 49 50  1  0  0  0
 50 51  1  0  0  0
 50 52  1  0  0  0
 50 53  1  0  0  0
 54 55  1  0  0  0
 54 57  1  0  0  0
 55 56  1  0  0  0
 57 58  2  0  0  0
 57 60  1  0  0  0
 58 59  1  0  0  0
M  END
> <Tumorigenic>
none

> <Score>
36.06909

> <Active/Decoy>
active

> <InChI>
InChI=1S/C23H32O6/c1-13(2)23(26)9-8-21(3)12-18-22(4,29-18)11-17(19(21)23)28-20(25)14-6-7-15(24)16(10-14)27-5/h6-7,10,13,17-19,24,26H,8-9,11-12H2,1-5H3/t17-,18-,19+,21+,22+,23+/m0/s1

> <Matching Features>
H:14924486185440016873||HBA:14924321692640012300|HBA:14924486112070016868

> <Mol. Index>
942

> <Pharmacophore Match>
Model -1

> <# Confs.>
25

> <Source Database>
Pharm-Screening-input-NANPDB_After_DataWarror.ldb

> <Pharmacophore-Fit Score>
36.07

> <formula>
C23H32O6

> <Mutagenic>
none

> <Reproductive Effective>
none

> <Irritant>
none

$$$$
euphornin A
XX    ILIB03122402113D

 81 83  0  0  1  0              1 V2000
    1.0624    3.6870    2.9878 O   0  0  0  0  0
    0.0764    2.9965    2.7832 C   0  0  0  0  0
   -0.0690    2.0464    1.8298 O   0  0  0  0  0
    1.0561    1.8214    0.9801 C   0  0  2  0  0
    0.6687    1.3350   -0.4399 C   0  0  1  0  0
    1.8735    0.4395   -0.9060 C   0  0  1  0  0
    1.4611   -0.9194   -1.0898 O   0  0  0  0  0
    2.2418   -1.4413   -1.3398 H   0  0  0  0  0
    2.5864    0.9075   -2.2076 C   0  0  2  0  0
    2.9560    2.2898   -2.0923 O   0  0  0  0  0
    4.2740    2.5717   -2.1941 C   0  0  0  0  0
    5.1768    1.7658   -2.3737 O   0  0  0  0  0
    4.4813    4.0499   -2.0647 C   0  0  0  0  0
    4.0150    4.5630   -2.9099 H   0  0  0  0  0
    5.5522    4.2692   -2.0667 H   0  0  0  0  0
    4.0615    4.4045   -1.1195 H   0  0  0  0  0
    1.8024    0.6731   -3.5298 C   0  0  1  0  0
    0.6919    1.6618   -3.8082 C   0  0  0  0  0
   -0.5653    1.2947   -4.1072 C   0  0  0  0  0
   -1.6978    2.1776   -4.6262 C   0  0  0  0  0
   -2.9937    1.9626   -3.7730 C   0  0  2  0  0
   -4.1242    2.3585   -4.5648 O   0  0  0  0  0
   -5.2862    1.7143   -4.3207 C   0  0  0  0  0
   -5.4658    0.8303   -3.4942 O   0  0  0  0  0
   -6.3555    2.2563   -5.2171 C   0  0  0  0  0
   -6.5549    3.3010   -4.9685 H   0  0  0  0  0
   -7.2754    1.6798   -5.0749 H   0  0  0  0  0
   -6.0508    2.1596   -6.2624 H   0  0  0  0  0
   -3.1216    2.7548   -2.4562 C   0  0  0  0  0
   -2.0559    2.5664   -1.3669 C   0  0  1  0  0
   -2.4309    3.3874   -0.2529 O   0  0  0  0  0
   -2.4625    4.3078   -0.5630 H   0  0  0  0  0
   -1.8758    1.1633   -0.8300 C   0  0  0  0  0
   -0.6860    0.6459   -0.4567 C   0  0  0  0  0
   -0.7038   -0.3568   -0.0344 H   0  0  0  0  0
   -3.1288    0.3558   -0.5926 C   0  0  0  0  0
   -3.8497    0.9348   -0.0071 H   0  0  0  0  0
   -2.9309   -0.5666   -0.0371 H   0  0  0  0  0
   -3.5989    0.0678   -1.5367 H   0  0  0  0  0
   -1.1162    2.9732   -1.7398 H   0  0  0  0  0
   -4.1101    2.5512   -2.0203 H   0  0  0  0  0
   -3.1912    3.8266   -2.6918 H   0  0  0  0  0
   -3.0903    0.8899   -3.5601 H   0  0  0  0  0
   -1.3385    3.6757   -4.7341 C   0  0  0  0  0
   -2.1920    4.2581   -5.0990 H   0  0  0  0  0
   -0.5142    3.8390   -5.4384 H   0  0  0  0  0
   -1.0351    4.1004   -3.7736 H   0  0  0  0  0
   -1.9484    1.6790   -6.0755 C   0  0  0  0  0
   -2.6764    2.3065   -6.6033 H   0  0  0  0  0
   -1.0262    1.6960   -6.6697 H   0  0  0  0  0
   -2.3278    0.6498   -6.0847 H   0  0  0  0  0
   -0.7971    0.2306   -4.0651 H   0  0  0  0  0
    0.9782    2.7079   -3.8651 H   0  0  0  0  0
    2.7614    0.7236   -4.7314 C   0  0  0  0  0
    3.2126    1.7141   -4.8557 H   0  0  0  0  0
    3.5702   -0.0053   -4.6129 H   0  0  0  0  0
    2.2357    0.4802   -5.6617 H   0  0  0  0  0
    1.3931   -0.3445   -3.5120 H   0  0  0  0  0
    3.4995    0.2961   -2.2824 H   0  0  0  0  0
    2.8725    0.4523    0.2838 C   0  0  0  0  0
    2.0502    0.7757    1.5284 C   0  0  2  0  0
    1.4215   -0.4566    2.1723 C   0  0  0  0  0
    0.7867   -1.0201    1.4863 H   0  0  0  0  0
    0.8157   -0.1786    3.0406 H   0  0  0  0  0
    2.2042   -1.1388    2.5226 H   0  0  0  0  0
    2.6907    1.2387    2.2895 H   0  0  0  0  0
    3.4128   -0.4945    0.3900 H   0  0  0  0  0
    3.6197    1.2446    0.1592 H   0  0  0  0  0
    0.6334    2.2274   -1.0551 H   0  0  0  0  0
    1.6081    2.7661    0.8548 H   0  0  0  0  0
   -1.1658    3.1072    3.5721 C   0  0  0  0  0
   -1.2369    4.0408    4.6059 C   0  0  0  0  0
   -2.4163    4.1515    5.3384 C   0  0  0  0  0
   -3.5093    3.3368    5.0356 C   0  0  0  0  0
   -3.4263    2.4080    3.9967 C   0  0  0  0  0
   -2.2501    2.2900    3.2552 C   0  0  0  0  0
   -2.1931    1.5679    2.4470 H   0  0  0  0  0
   -4.2785    1.7769    3.7639 H   0  0  0  0  0
   -4.4265    3.4259    5.6091 H   0  0  0  0  0
   -2.4892    4.8741    6.1467 H   0  0  0  0  0
   -0.3905    4.6782    4.8456 H   0  0  0  0  0
  1  2  2  0  0  0
  2  3  1  0  0  0
  2 71  1  0  0  0
  3  4  1  0  0  0
  4  5  1  0  0  0
  4 61  1  0  0  0
  4 70  1  0  0  0
  5  6  1  0  0  0
  5 34  1  0  0  0
  5 69  1  0  0  0
  6  7  1  0  0  0
  6  9  1  0  0  0
  6 60  1  0  0  0
  7  8  1  0  0  0
  9 10  1  0  0  0
  9 17  1  0  0  0
  9 59  1  0  0  0
 10 11  1  0  0  0
 11 12  2  0  0  0
 11 13  1  0  0  0
 13 14  1  0  0  0
 13 15  1  0  0  0
 13 16  1  0  0  0
 17 18  1  0  0  0
 17 54  1  0  0  0
 17 58  1  0  0  0
 18 19  2  0  0  0
 18 53  1  0  0  0
 19 20  1  0  0  0
 19 52  1  0  0  0
 20 21  1  0  0  0
 20 44  1  0  0  0
 20 48  1  0  0  0
 21 22  1  0  0  0
 21 29  1  0  0  0
 21 43  1  0  0  0
 22 23  1  0  0  0
 23 24  2  0  0  0
 23 25  1  0  0  0
 25 26  1  0  0  0
 25 27  1  0  0  0
 25 28  1  0  0  0
 29 30  1  0  0  0
 29 41  1  0  0  0
 29 42  1  0  0  0
 30 31  1  0  0  0
 30 33  1  0  0  0
 30 40  1  0  0  0
 31 32  1  0  0  0
 33 34  2  0  0  0
 33 36  1  0  0  0
 34 35  1  0  0  0
 36 37  1  0  0  0
 36 38  1  0  0  0
 36 39  1  0  0  0
 44 45  1  0  0  0
 44 46  1  0  0  0
 44 47  1  0  0  0
 48 49  1  0  0  0
 48 50  1  0  0  0
 48 51  1  0  0  0
 54 55  1  0  0  0
 54 56  1  0  0  0
 54 57  1  0  0  0
 60 61  1  0  0  0
 60 67  1  0  0  0
 60 68  1  0  0  0
 61 62  1  0  0  0
 61 66  1  0  0  0
 62 63  1  0  0  0
 62 64  1  0  0  0
 62 65  1  0  0  0
 71 72  2  0  0  0
 71 76  1  0  0  0
 72 73  1  0  0  0
 72 81  1  0  0  0
 73 74  2  0  0  0
 73 80  1  0  0  0
 74 75  1  0  0  0
 74 79  1  0  0  0
 75 76  2  0  0  0
 75 78  1  0  0  0
 76 77  1  0  0  0
M  END
> <Tumorigenic>
none

> <Score>
36.025585

> <Active/Decoy>
active

> <InChI>
InChI=1S/C31H42O8/c1-18-13-14-30(6,7)26(37-21(4)32)16-25(34)19(2)15-24-27(39-29(35)23-11-9-8-10-12-23)20(3)17-31(24,36)28(18)38-22(5)33/h8-15,18,20,24-28,34,36H,16-17H2,1-7H3/t18-,20+,24+,25-,26-,27+,28-,31-/m1/s1

> <Matching Features>
H:14924486185440016873||HBA:14924321692640012300|HBA:14924486112070016868

> <Mol. Index>
479

> <Pharmacophore Match>
Model -1

> <# Confs.>
25

> <Source Database>
Pharm-Screening-input-NANPDB_After_DataWarror.ldb

> <Pharmacophore-Fit Score>
36.03

> <formula>
C31H42O8

> <Mutagenic>
none

> <Reproductive Effective>
none

> <Irritant>
none

$$$$
2-acetoxy-6-p-methoxybenzoyl-jaeschkeanadiol
XX    ILIB03122402113D

 65 67  0  0  1  0              1 V2000
    0.7834    2.0056   -4.4025 O   0  0  0  0  0
    0.1572    1.6969   -3.4006 C   0  0  0  0  0
    0.6600    1.5124   -2.1676 O   0  0  0  0  0
    2.0652    1.6927   -1.9854 C   0  0  2  0  0
    2.5536    0.7899   -0.8375 C   0  0  1  0  0
    4.1119    0.5238   -0.8035 C   0  0  2  0  0
    4.7981    1.4423   -1.6557 O   0  0  0  0  0
    5.7551    1.3234   -1.5336 H   0  0  0  0  0
    4.4718   -0.9076   -1.2432 C   0  0  0  0  0
    5.9796   -1.1540   -1.1396 C   0  0  0  0  0
    6.5419   -0.5199   -1.8315 H   0  0  0  0  0
    6.2163   -2.1971   -1.3752 H   0  0  0  0  0
    6.3371   -0.9537   -0.1245 H   0  0  0  0  0
    3.9914   -1.2424   -2.6590 C   0  0  0  0  0
    2.9071   -1.1251   -2.7487 H   0  0  0  0  0
    4.4684   -0.6029   -3.4087 H   0  0  0  0  0
    4.2311   -2.2807   -2.9094 H   0  0  0  0  0
    3.9785   -1.6041   -0.5529 H   0  0  0  0  0
    4.5487    0.8043    0.6452 C   0  0  0  0  0
    3.4839    1.7584    1.1802 C   0  0  2  0  0
    3.4783    1.8003    2.6156 O   0  0  0  0  0
    4.5971    2.2943    3.2154 C   0  0  0  0  0
    5.6025    2.7030    2.6510 O   0  0  0  0  0
    4.4160    2.2780    4.7021 C   0  0  0  0  0
    3.6157    2.9658    4.9850 H   0  0  0  0  0
    5.3441    2.5972    5.1846 H   0  0  0  0  0
    4.1896    1.2628    5.0389 H   0  0  0  0  0
    2.1630    1.1800    0.6160 C   0  0  1  0  0
    0.9694    2.1466    0.7840 C   0  0  0  0  0
    1.0827    3.5563    0.2939 C   0  0  0  0  0
    1.6933    4.0253   -0.8055 C   0  0  0  0  0
    2.3680    3.2092   -1.8770 C   0  0  0  0  0
    3.4452    3.3861   -1.8006 H   0  0  0  0  0
    2.0631    3.6479   -2.8378 H   0  0  0  0  0
    1.7303    5.5129   -1.0562 C   0  0  0  0  0
    1.2514    6.0855   -0.2561 H   0  0  0  0  0
    2.7672    5.8559   -1.1324 H   0  0  0  0  0
    1.2128    5.7539   -1.9896 H   0  0  0  0  0
    0.6055    4.2818    0.9524 H   0  0  0  0  0
    0.0579    1.7080    0.3592 H   0  0  0  0  0
    0.7656    2.2289    1.8621 H   0  0  0  0  0
    1.7542   -0.1132    1.3861 C   0  0  0  0  0
    1.5738    0.0901    2.4472 H   0  0  0  0  0
    0.8286   -0.5315    0.9732 H   0  0  0  0  0
    2.5126   -0.8989    1.3269 H   0  0  0  0  0
    3.6713    2.7641    0.7838 H   0  0  0  0  0
    4.5862   -0.1059    1.2555 H   0  0  0  0  0
    5.5416    1.2645    0.7096 H   0  0  0  0  0
    2.0601   -0.1794   -1.0362 H   0  0  0  0  0
    2.5544    1.3460   -2.9058 H   0  0  0  0  0
   -1.2991    1.4628   -3.3980 C   0  0  0  0  0
   -1.9983    1.1104   -2.2404 C   0  0  0  0  0
   -3.3801    0.9016   -2.2951 C   0  0  0  0  0
   -4.0757    1.0396   -3.4998 C   0  0  0  0  0
   -5.4199    0.8098   -3.4252 O   0  0  0  0  0
   -6.1292    0.9503   -4.6524 C   0  0  0  0  0
   -6.0604    1.9744   -5.0346 H   0  0  0  0  0
   -5.7800    0.2276   -5.3971 H   0  0  0  0  0
   -7.1867    0.7379   -4.4519 H   0  0  0  0  0
   -3.3757    1.3915   -4.6557 C   0  0  0  0  0
   -1.9936    1.6015   -4.6051 C   0  0  0  0  0
   -1.4769    1.8746   -5.5219 H   0  0  0  0  0
   -3.8712    1.5129   -5.6138 H   0  0  0  0  0
   -3.9079    0.6285   -1.3853 H   0  0  0  0  0
   -1.4988    0.9899   -1.2837 H   0  0  0  0  0
  1  2  2  0  0  0
  2  3  1  0  0  0
  2 51  1  0  0  0
  3  4  1  0  0  0
  4  5  1  0  0  0
  4 32  1  0  0  0
  4 50  1  0  0  0
  5  6  1  0  0  0
  5 28  1  0  0  0
  5 49  1  0  0  0
  6  7  1  0  0  0
  6  9  1  0  0  0
  6 19  1  0  0  0
  7  8  1  0  0  0
  9 10  1  0  0  0
  9 14  1  0  0  0
  9 18  1  0  0  0
 10 11  1  0  0  0
 10 12  1  0  0  0
 10 13  1  0  0  0
 14 15  1  0  0  0
 14 16  1  0  0  0
 14 17  1  0  0  0
 19 20  1  0  0  0
 19 47  1  0  0  0
 19 48  1  0  0  0
 20 21  1  0  0  0
 20 28  1  0  0  0
 20 46  1  0  0  0
 21 22  1  0  0  0
 22 23  2  0  0  0
 22 24  1  0  0  0
 24 25  1  0  0  0
 24 26  1  0  0  0
 24 27  1  0  0  0
 28 29  1  0  0  0
 28 42  1  0  0  0
 29 30  1  0  0  0
 29 40  1  0  0  0
 29 41  1  0  0  0
 30 31  2  0  0  0
 30 39  1  0  0  0
 31 32  1  0  0  0
 31 35  1  0  0  0
 32 33  1  0  0  0
 32 34  1  0  0  0
 35 36  1  0  0  0
 35 37  1  0  0  0
 35 38  1  0  0  0
 42 43  1  0  0  0
 42 44  1  0  0  0
 42 45  1  0  0  0
 51 52  2  0  0  0
 51 61  1  0  0  0
 52 53  1  0  0  0
 52 65  1  0  0  0
 53 54  2  0  0  0
 53 64  1  0  0  0
 54 55  1  0  0  0
 54 60  1  0  0  0
 55 56  1  0  0  0
 56 57  1  0  0  0
 56 58  1  0  0  0
 56 59  1  0  0  0
 60 61  2  0  0  0
 60 63  1  0  0  0
 61 62  1  0  0  0
M  END
> <Tumorigenic>
none

> <Score>
36.00707

> <Active/Decoy>
active

> <InChI>
InChI=1S/C25H34O6/c1-15(2)25(28)14-21(30-17(4)26)24(5)12-11-16(3)13-20(22(24)25)31-23(27)18-7-9-19(29-6)10-8-18/h7-11,15,20-22,28H,12-14H2,1-6H3/t20-,21-,22+,24+,25+/m0/s1

> <Matching Features>
H:14924486185440016873||HBA:14924321692640012300|HBA:14924486112070016868

> <Mol. Index>
905

> <Pharmacophore Match>
Model -1

> <# Confs.>
25

> <Source Database>
Pharm-Screening-input-NANPDB_After_DataWarror.ldb

> <Pharmacophore-Fit Score>
36.01

> <formula>
C25H34O6

> <Mutagenic>
none

> <Reproductive Effective>
none

> <Irritant>
none

$$$$
(+)-strigol
XX    ILIB03122402113D

 47 50  0  0  1  0              1 V2000
   -1.3026    2.5920    1.3784 O   0  0  0  0  0
   -0.8272    1.7257    0.6673 C   0  0  0  0  0
   -0.1355    0.6360    1.1024 O   0  0  0  0  0
    0.2251   -0.2323    0.0215 C   0  0  2  0  0
    1.7102   -0.4219   -0.0386 C   0  0  0  0  0
    2.2272    0.1536   -1.1335 C   0  0  0  0  0
    3.6779    0.1444   -1.4929 C   0  0  1  0  0
    4.1039    1.4433   -1.8909 O   0  0  0  0  0
    3.9502    2.0535   -1.1489 H   0  0  0  0  0
    4.5593   -0.3308   -0.3322 C   0  0  0  0  0
    3.9284   -1.5142    0.4026 C   0  0  0  0  0
    2.5234   -1.1815    0.9872 C   0  0  0  0  0
    1.8459   -2.5115    1.3678 C   0  0  0  0  0
    0.8877   -2.3466    1.8745 H   0  0  0  0  0
    1.6527   -3.1287    0.4829 H   0  0  0  0  0
    2.4774   -3.0940    2.0484 H   0  0  0  0  0
    2.6842   -0.3301    2.2608 C   0  0  0  0  0
    3.0981    0.6601    2.0411 H   0  0  0  0  0
    1.7239   -0.1762    2.7671 H   0  0  0  0  0
    3.3514   -0.8173    2.9792 H   0  0  0  0  0
    4.6036   -1.8492    1.2011 H   0  0  0  0  0
    3.8499   -2.3541   -0.3026 H   0  0  0  0  0
    4.7510    0.4917    0.3676 H   0  0  0  0  0
    5.5452   -0.6151   -0.7214 H   0  0  0  0  0
    3.8180   -0.5199   -2.3523 H   0  0  0  0  0
    1.1924    0.8087   -1.9879 C   0  0  0  0  0
   -0.1311    0.4734   -1.2852 C   0  0  2  0  0
   -0.9078    1.6425   -0.8008 C   0  0  0  0  0
   -1.5820    2.5355   -1.5096 C   0  0  0  0  0
   -1.6693    2.4703   -2.8849 O   0  0  0  0  0
   -2.8614    2.9946   -3.4692 C   0  0  2  0  0
   -4.0404    2.2982   -3.0375 O   0  0  0  0  0
   -4.6375    1.6950   -4.1070 C   0  0  0  0  0
   -5.6540    1.0250   -4.0656 O   0  0  0  0  0
   -3.8569    1.9883   -5.3145 C   0  0  0  0  0
   -2.8306    2.7398   -4.9260 C   0  0  0  0  0
   -2.0694    3.1258   -5.5890 H   0  0  0  0  0
   -4.2168    1.4996   -6.6620 C   0  0  0  0  0
   -3.5007    1.8406   -7.4169 H   0  0  0  0  0
   -4.2304    0.4053   -6.6815 H   0  0  0  0  0
   -5.2084    1.8623   -6.9505 H   0  0  0  0  0
   -2.9772    4.0690   -3.2750 H   0  0  0  0  0
   -2.1233    3.3665   -1.0675 H   0  0  0  0  0
   -0.7477   -0.1740   -1.9203 H   0  0  0  0  0
    1.3693    1.8865   -2.0637 H   0  0  0  0  0
    1.2045    0.3853   -2.9980 H   0  0  0  0  0
   -0.3112   -1.1817    0.1241 H   0  0  0  0  0
  1  2  2  0  0  0
  2  3  1  0  0  0
  2 28  1  0  0  0
  3  4  1  0  0  0
  4  5  1  0  0  0
  4 27  1  0  0  0
  4 47  1  0  0  0
  5  6  2  0  0  0
  5 12  1  0  0  0
  6  7  1  0  0  0
  6 26  1  0  0  0
  7  8  1  0  0  0
  7 10  1  0  0  0
  7 25  1  0  0  0
  8  9  1  0  0  0
 10 11  1  0  0  0
 10 23  1  0  0  0
 10 24  1  0  0  0
 11 12  1  0  0  0
 11 21  1  0  0  0
 11 22  1  0  0  0
 12 13  1  0  0  0
 12 17  1  0  0  0
 13 14  1  0  0  0
 13 15  1  0  0  0
 13 16  1  0  0  0
 17 18  1  0  0  0
 17 19  1  0  0  0
 17 20  1  0  0  0
 26 27  1  0  0  0
 26 45  1  0  0  0
 26 46  1  0  0  0
 27 28  1  0  0  0
 27 44  1  0  0  0
 28 29  2  0  0  0
 29 30  1  0  0  0
 29 43  1  0  0  0
 30 31  1  0  0  0
 31 32  1  0  0  0
 31 36  1  0  0  0
 31 42  1  0  0  0
 32 33  1  0  0  0
 33 34  2  0  0  0
 33 35  1  0  0  0
 35 36  2  0  0  0
 35 38  1  0  0  0
 36 37  1  0  0  0
 38 39  1  0  0  0
 38 40  1  0  0  0
 38 41  1  0  0  0
M  END
> <Tumorigenic>
none

> <Score>
35.99402

> <Active/Decoy>
active

> <InChI>
InChI=1S/C19H22O6/c1-9-6-14(24-17(9)21)23-8-12-10-7-11-13(20)4-5-19(2,3)15(11)16(10)25-18(12)22/h6,8,10,13-14,16,20H,4-5,7H2,1-3H3/b12-8+/t10-,13+,14-,16+/m1/s1

> <Matching Features>
H:14924486185440016873||HBA:14924321692640012300|HBA:14924486112070016868

> <Mol. Index>
628

> <Pharmacophore Match>
Model -1

> <# Confs.>
25

> <Source Database>
Pharm-Screening-input-NANPDB_After_DataWarror.ldb

> <Pharmacophore-Fit Score>
35.99

> <formula>
C19H22O6

> <Mutagenic>
none

> <Reproductive Effective>
none

> <Irritant>
none

$$$$
ferugin
XX    ILIB03122402113D

 57 59  0  0  1  0              1 V2000
   -0.8486   -1.7602   -1.7955 O   0  0  0  0  0
   -1.2369   -0.6092   -1.7881 C   0  0  0  0  0
   -0.6013    0.4614   -1.2711 O   0  0  0  0  0
    0.6727    0.2265   -0.6612 C   0  0  2  0  0
    0.8739    1.2629    0.4708 C   0  0  1  0  0
   -0.2119    1.2976    1.5963 C   0  0  2  0  0
   -0.5538   -0.0525    1.9349 O   0  0  0  0  0
   -1.1092   -0.0367    2.7333 H   0  0  0  0  0
   -1.5162    2.0265    1.2227 C   0  0  0  0  0
   -2.5103    2.0281    2.3894 C   0  0  0  0  0
   -2.7878    1.0101    2.6805 H   0  0  0  0  0
   -2.0899    2.5300    3.2677 H   0  0  0  0  0
   -3.4325    2.5502    2.1121 H   0  0  0  0  0
   -1.2486    3.4701    0.7856 C   0  0  0  0  0
   -0.6185    3.5057   -0.1083 H   0  0  0  0  0
   -2.1862    3.9822    0.5442 H   0  0  0  0  0
   -0.7484    4.0377    1.5776 H   0  0  0  0  0
   -1.9883    1.5031    0.3814 H   0  0  0  0  0
    0.5074    1.9449    2.8068 C   0  0  0  0  0
    1.9547    2.1844    2.3729 C   0  0  0  0  0
    2.2257    1.1696    1.2433 C   0  0  2  0  0
    3.4043    1.6637    0.3756 C   0  0  0  0  0
    4.0195    0.6647   -0.6191 C   0  0  2  0  0
    4.7832    1.4091   -1.5740 O   0  0  0  0  0
    5.4450    1.9231   -1.0811 H   0  0  0  0  0
    3.0635   -0.2116   -1.3852 C   0  0  0  0  0
    1.7221    0.3432   -1.7740 C   0  0  0  0  0
    1.3557   -0.1844   -2.6659 H   0  0  0  0  0
    1.8197    1.3853   -2.1051 H   0  0  0  0  0
    3.4012   -1.4703   -1.7128 C   0  0  0  0  0
    2.7207   -2.1144   -2.2597 H   0  0  0  0  0
    4.3650   -1.8861   -1.4385 H   0  0  0  0  0
    4.7299    0.0330   -0.0721 H   0  0  0  0  0
    3.1106    2.5762   -0.1625 H   0  0  0  0  0
    4.2167    1.9988    1.0359 H   0  0  0  0  0
    2.5378   -0.2011    1.8774 C   0  0  0  0  0
    1.8248   -0.4776    2.6594 H   0  0  0  0  0
    3.5261   -0.1843    2.3517 H   0  0  0  0  0
    2.5387   -1.0149    1.1500 H   0  0  0  0  0
    2.6498    2.0838    3.2138 H   0  0  0  0  0
    2.0481    3.2124    1.9983 H   0  0  0  0  0
    0.0667    2.9000    3.1101 H   0  0  0  0  0
    0.4829    1.2857    3.6827 H   0  0  0  0  0
    0.8479    2.2504   -0.0143 H   0  0  0  0  0
    0.6719   -0.7985   -0.2403 H   0  0  0  0  0
   -2.5408   -0.1912   -2.3573 C   0  0  0  0  0
   -3.3625   -1.1585   -2.9510 C   0  0  0  0  0
   -4.5860   -0.7908   -3.5123 C   0  0  0  0  0
   -4.9890    0.5421   -3.4703 C   0  0  0  0  0
   -6.1878    0.9310   -3.9987 O   0  0  0  0  0
   -6.6357    0.1468   -4.3553 H   0  0  0  0  0
   -4.1780    1.5119   -2.8874 C   0  0  0  0  0
   -2.9507    1.1468   -2.3311 C   0  0  0  0  0
   -2.3411    1.9223   -1.8770 H   0  0  0  0  0
   -4.4949    2.5508   -2.8578 H   0  0  0  0  0
   -5.2159   -1.5490   -3.9691 H   0  0  0  0  0
   -3.0564   -2.1999   -3.0093 H   0  0  0  0  0
  1  2  2  0  0  0
  2  3  1  0  0  0
  2 46  1  0  0  0
  3  4  1  0  0  0
  4  5  1  0  0  0
  4 27  1  0  0  0
  4 45  1  0  0  0
  5  6  1  0  0  0
  5 21  1  0  0  0
  5 44  1  0  0  0
  6  7  1  0  0  0
  6  9  1  0  0  0
  6 19  1  0  0  0
  7  8  1  0  0  0
  9 10  1  0  0  0
  9 14  1  0  0  0
  9 18  1  0  0  0
 10 11  1  0  0  0
 10 12  1  0  0  0
 10 13  1  0  0  0
 14 15  1  0  0  0
 14 16  1  0  0  0
 14 17  1  0  0  0
 19 20  1  0  0  0
 19 42  1  0  0  0
 19 43  1  0  0  0
 20 21  1  0  0  0
 20 40  1  0  0  0
 20 41  1  0  0  0
 21 22  1  0  0  0
 21 36  1  0  0  0
 22 23  1  0  0  0
 22 34  1  0  0  0
 22 35  1  0  0  0
 23 24  1  0  0  0
 23 26  1  0  0  0
 23 33  1  0  0  0
 24 25  1  0  0  0
 26 27  1  0  0  0
 26 30  2  0  0  0
 27 28  1  0  0  0
 27 29  1  0  0  0
 30 31  1  0  0  0
 30 32  1  0  0  0
 36 37  1  0  0  0
 36 38  1  0  0  0
 36 39  1  0  0  0
 46 47  2  0  0  0
 46 53  1  0  0  0
 47 48  1  0  0  0
 47 57  1  0  0  0
 48 49  2  0  0  0
 48 56  1  0  0  0
 49 50  1  0  0  0
 49 52  1  0  0  0
 50 51  1  0  0  0
 52 53  2  0  0  0
 52 55  1  0  0  0
 53 54  1  0  0  0
M  END
> <Tumorigenic>
none

> <Score>
35.96306

> <Active/Decoy>
active

> <InChI>
InChI=1S/C22H30O5/c1-13(2)22(26)10-9-21(4)12-17(24)14(3)11-18(19(21)22)27-20(25)15-5-7-16(23)8-6-15/h5-8,13,17-19,23-24,26H,3,9-12H2,1-2,4H3/t17-,18-,19+,21+,22+/m0/s1

> <Matching Features>
H:14924486185440016873||HBA:14924321692640012300|HBA:14924486112070016868

> <Mol. Index>
896

> <Pharmacophore Match>
Model -1

> <# Confs.>
25

> <Source Database>
Pharm-Screening-input-NANPDB_After_DataWarror.ldb

> <Pharmacophore-Fit Score>
35.96

> <formula>
C22H30O5

> <Mutagenic>
none

> <Reproductive Effective>
none

> <Irritant>
none

$$$$
agathadiol
XX    ILIB03122402113D

 56 57  0  0  1  0              1 V2000
    4.1026    1.3600   -1.6736 O   0  0  0  0  0
    3.4715    1.9046   -0.5214 C   0  0  0  0  0
    3.3243    0.8577    0.5342 C   0  0  0  0  0
    2.1881    0.4107    1.0801 C   0  0  0  0  0
    0.8078    0.9425    0.7706 C   0  0  0  0  0
   -0.1445   -0.1123    0.2293 C   0  0  0  0  0
   -1.5639    0.3513   -0.1123 C   0  0  1  0  0
   -2.5197   -0.7810   -0.6926 C   0  0  1  0  0
   -3.8296   -0.0531   -1.2164 C   0  0  1  0  0
   -4.8144   -0.9048   -2.1003 C   0  0  1  0  0
   -5.8368   -0.0184   -2.7882 C   0  0  0  0  0
   -5.1776    0.9176   -3.6255 O   0  0  0  0  0
   -5.8679    1.4617   -4.0436 H   0  0  0  0  0
   -6.4453    0.5217   -2.0549 H   0  0  0  0  0
   -6.5169   -0.6222   -3.3973 H   0  0  0  0  0
   -4.0023   -1.6174   -3.2125 C   0  0  0  0  0
   -2.7891   -2.3830   -2.7036 C   0  0  0  0  0
   -1.8457   -1.4877   -1.9059 C   0  0  0  0  0
   -1.4284   -0.7326   -2.5851 H   0  0  0  0  0
   -1.0044   -2.1050   -1.5700 H   0  0  0  0  0
   -3.1034   -3.2451   -2.1077 H   0  0  0  0  0
   -2.2439   -2.7939   -3.5616 H   0  0  0  0  0
   -4.6495   -2.3067   -3.7701 H   0  0  0  0  0
   -3.6469   -0.8795   -3.9430 H   0  0  0  0  0
   -5.6405   -1.9379   -1.3075 C   0  0  0  0  0
   -6.3807   -2.4200   -1.9578 H   0  0  0  0  0
   -6.1945   -1.4700   -0.4883 H   0  0  0  0  0
   -5.0414   -2.7460   -0.8929 H   0  0  0  0  0
   -4.5235    0.7346   -0.0817 C   0  0  0  0  0
   -3.5769    1.7468    0.5679 C   0  0  0  0  0
   -2.2905    1.0924    1.0040 C   0  0  0  0  0
   -1.9013    1.1610    2.2871 C   0  0  0  0  0
   -1.0024    0.6797    2.6514 H   0  0  0  0  0
   -2.4914    1.6980    3.0233 H   0  0  0  0  0
   -3.3426    2.5449   -0.1473 H   0  0  0  0  0
   -4.0924    2.2258    1.4083 H   0  0  0  0  0
   -4.9149    0.0542    0.6817 H   0  0  0  0  0
   -5.3831    1.2927   -0.4669 H   0  0  0  0  0
   -3.4509    0.7204   -1.9044 H   0  0  0  0  0
   -2.7732   -1.8326    0.4063 C   0  0  0  0  0
   -1.8314   -2.1995    0.8273 H   0  0  0  0  0
   -3.2816   -2.7230    0.0386 H   0  0  0  0  0
   -3.3647   -1.4406    1.2376 H   0  0  0  0  0
   -1.4218    1.0924   -0.9250 H   0  0  0  0  0
   -0.2050   -0.9588    0.9271 H   0  0  0  0  0
    0.3131   -0.5297   -0.6930 H   0  0  0  0  0
    0.8899    1.7441    0.0447 H   0  0  0  0  0
    0.3838    1.3856    1.6826 H   0  0  0  0  0
    2.2277   -0.6864    2.1278 C   0  0  0  0  0
    1.8259   -0.3230    3.0787 H   0  0  0  0  0
    3.2455   -1.0449    2.3131 H   0  0  0  0  0
    1.6313   -1.5444    1.8023 H   0  0  0  0  0
    4.2633    0.4069    0.8514 H   0  0  0  0  0
    4.0896    2.7285   -0.1515 H   0  0  0  0  0
    2.5069    2.3237   -0.8260 H   0  0  0  0  0
    3.5358    0.6447   -2.0103 H   0  0  0  0  0
  1  2  1  0  0  0
  1 56  1  0  0  0
  2  3  1  0  0  0
  2 54  1  0  0  0
  2 55  1  0  0  0
  3  4  2  0  0  0
  3 53  1  0  0  0
  4  5  1  0  0  0
  4 49  1  0  0  0
  5  6  1  0  0  0
  5 47  1  0  0  0
  5 48  1  0  0  0
  6  7  1  0  0  0
  6 45  1  0  0  0
  6 46  1  0  0  0
  7  8  1  0  0  0
  7 31  1  0  0  0
  7 44  1  0  0  0
  8  9  1  0  0  0
  8 18  1  0  0  0
  8 40  1  0  0  0
  9 10  1  0  0  0
  9 29  1  0  0  0
  9 39  1  0  0  0
 10 11  1  0  0  0
 10 16  1  0  0  0
 10 25  1  0  0  0
 11 12  1  0  0  0
 11 14  1  0  0  0
 11 15  1  0  0  0
 12 13  1  0  0  0
 16 17  1  0  0  0
 16 23  1  0  0  0
 16 24  1  0  0  0
 17 18  1  0  0  0
 17 21  1  0  0  0
 17 22  1  0  0  0
 18 19  1  0  0  0
 18 20  1  0  0  0
 25 26  1  0  0  0
 25 27  1  0  0  0
 25 28  1  0  0  0
 29 30  1  0  0  0
 29 37  1  0  0  0
 29 38  1  0  0  0
 30 31  1  0  0  0
 30 35  1  0  0  0
 30 36  1  0  0  0
 31 32  2  0  0  0
 32 33  1  0  0  0
 32 34  1  0  0  0
 40 41  1  0  0  0
 40 42  1  0  0  0
 40 43  1  0  0  0
 49 50  1  0  0  0
 49 51  1  0  0  0
 49 52  1  0  0  0
M  END
> <Tumorigenic>
none

> <Score>
35.954834

> <Active/Decoy>
active

> <InChI>
InChI=1S/C20H34O2/c1-15(10-13-21)6-8-17-16(2)7-9-18-19(3,14-22)11-5-12-20(17,18)4/h10,17-18,21-22H,2,5-9,11-14H2,1,3-4H3/b15-10+/t17-,18-,19-,20+/m1/s1

> <Matching Features>
H:14924486185440016873||HBA:14924321692640012300|HBA:14924486112070016868

> <Mol. Index>
703

> <Pharmacophore Match>
Model -1

> <# Confs.>
25

> <Source Database>
Pharm-Screening-input-NANPDB_After_DataWarror.ldb

> <Pharmacophore-Fit Score>
35.95

> <formula>
C20H34O2

> <Mutagenic>
none

> <Reproductive Effective>
none

> <Irritant>
none

$$$$
assafoetidnol A
XX    ILIB03122402113D

 59 62  0  0  1  0              1 V2000
   -6.1456    0.9724   -4.0927 O   0  0  0  0  0
   -5.0093    1.4140   -3.9590 C   0  0  0  0  0
   -3.9850    0.6576   -3.4025 O   0  0  0  0  0
   -2.6817    1.1759   -3.2471 C   0  0  0  0  0
   -2.3857    2.4736   -3.6520 C   0  0  0  0  0
   -1.0873    2.9499   -3.4792 C   0  0  0  0  0
   -0.1107    2.1271   -2.9089 C   0  0  0  0  0
   -0.4192    0.8221   -2.5042 C   0  0  0  0  0
   -1.7188    0.3408   -2.6754 C   0  0  0  0  0
   -2.0059   -0.6632   -2.3792 H   0  0  0  0  0
    0.6189    0.1116   -1.9730 O   0  0  0  0  0
    0.2847   -0.8476   -0.9784 C   0  0  0  0  0
    1.4277   -0.9871    0.0107 C   0  0  2  0  0
    1.8586    0.2917    0.8296 C   0  0  1  0  0
    2.6829    1.3011   -0.0712 C   0  0  2  0  0
    3.9050    0.5786   -0.7134 C   0  0  2  0  0
    4.5937    1.4107   -1.6415 O   0  0  0  0  0
    3.9674    1.6612   -2.3414 H   0  0  0  0  0
    3.4989   -0.6856   -1.4836 C   0  0  0  0  0
    2.6416   -1.6124   -0.6725 C   0  0  0  0  0
    2.9536   -2.9096   -0.5275 C   0  0  0  0  0
    2.3404   -3.5742    0.0703 H   0  0  0  0  0
    3.8289   -3.3372   -1.0056 H   0  0  0  0  0
    2.9619   -0.4075   -2.3995 H   0  0  0  0  0
    4.4088   -1.1887   -1.8360 H   0  0  0  0  0
    4.6331    0.3090    0.0577 H   0  0  0  0  0
    2.9663    2.7241    0.5806 C   0  0  0  0  0
    1.6468    3.2799    1.2041 C   0  0  2  0  0
    1.9053    4.4758    1.9400 O   0  0  0  0  0
    1.0520    4.8162    2.2573 H   0  0  0  0  0
    0.9184    2.3014    2.1177 C   0  0  0  0  0
    0.6036    1.0007    1.3919 C   0  0  0  0  0
    0.0617    0.3309    2.0709 H   0  0  0  0  0
   -0.0900    1.2436    0.5791 H   0  0  0  0  0
   -0.0200    2.7567    2.4566 H   0  0  0  0  0
    1.4892    2.1286    3.0360 H   0  0  0  0  0
    0.9647    3.5539    0.3880 H   0  0  0  0  0
    4.1139    2.7253    1.6113 C   0  0  0  0  0
    4.4242    3.7491    1.8536 H   0  0  0  0  0
    5.0044    2.2148    1.2319 H   0  0  0  0  0
    3.8365    2.2685    2.5603 H   0  0  0  0  0
    3.3857    3.7544   -0.5104 C   0  0  0  0  0
    3.3433    4.7819   -0.1295 H   0  0  0  0  0
    4.4153    3.6067   -0.8480 H   0  0  0  0  0
    2.7238    3.7056   -1.3814 H   0  0  0  0  0
    2.0283    1.5556   -0.9143 H   0  0  0  0  0
    2.6853   -0.2433    2.0391 C   0  0  0  0  0
    3.6343   -0.6944    1.7389 H   0  0  0  0  0
    2.1215   -1.0172    2.5759 H   0  0  0  0  0
    2.9084    0.5164    2.7835 H   0  0  0  0  0
    1.0564   -1.7230    0.7402 H   0  0  0  0  0
   -0.6396   -0.5747   -0.4497 H   0  0  0  0  0
    0.0988   -1.8321   -1.4600 H   0  0  0  0  0
    0.8975    2.5147   -2.7821 H   0  0  0  0  0
   -0.8172    3.9589   -3.7838 H   0  0  0  0  0
   -3.4382    3.2832   -4.2420 C   0  0  0  0  0
   -4.6678    2.7837   -4.3871 C   0  0  0  0  0
   -5.4587    3.3791   -4.8287 H   0  0  0  0  0
   -3.2087    4.2917   -4.5612 H   0  0  0  0  0
  1  2  2  0  0  0
  2  3  1  0  0  0
  2 57  1  0  0  0
  3  4  1  0  0  0
  4  5  2  0  0  0
  4  9  1  0  0  0
  5  6  1  0  0  0
  5 56  1  0  0  0
  6  7  2  0  0  0
  6 55  1  0  0  0
  7  8  1  0  0  0
  7 54  1  0  0  0
  8  9  2  0  0  0
  8 11  1  0  0  0
  9 10  1  0  0  0
 11 12  1  0  0  0
 12 13  1  0  0  0
 12 52  1  0  0  0
 12 53  1  0  0  0
 13 14  1  0  0  0
 13 20  1  0  0  0
 13 51  1  0  0  0
 14 15  1  0  0  0
 14 32  1  0  0  0
 14 47  1  0  0  0
 15 16  1  0  0  0
 15 27  1  0  0  0
 15 46  1  0  0  0
 16 17  1  0  0  0
 16 19  1  0  0  0
 16 26  1  0  0  0
 17 18  1  0  0  0
 19 20  1  0  0  0
 19 24  1  0  0  0
 19 25  1  0  0  0
 20 21  2  0  0  0
 21 22  1  0  0  0
 21 23  1  0  0  0
 27 28  1  0  0  0
 27 38  1  0  0  0
 27 42  1  0  0  0
 28 29  1  0  0  0
 28 31  1  0  0  0
 28 37  1  0  0  0
 29 30  1  0  0  0
 31 32  1  0  0  0
 31 35  1  0  0  0
 31 36  1  0  0  0
 32 33  1  0  0  0
 32 34  1  0  0  0
 38 39  1  0  0  0
 38 40  1  0  0  0
 38 41  1  0  0  0
 42 43  1  0  0  0
 42 44  1  0  0  0
 42 45  1  0  0  0
 47 48  1  0  0  0
 47 49  1  0  0  0
 47 50  1  0  0  0
 56 57  2  0  0  0
 56 59  1  0  0  0
 57 58  1  0  0  0
M  END
> <Tumorigenic>
none

> <Score>
35.901546

> <Active/Decoy>
active

> <InChI>
InChI=1S/C24H30O5/c1-14-11-18(25)22-23(2,3)20(26)9-10-24(22,4)17(14)13-28-16-7-5-15-6-8-21(27)29-19(15)12-16/h5-8,12,17-18,20,22,25-26H,1,9-11,13H2,2-4H3/t17-,18+,20+,22+,24-/m0/s1

> <Matching Features>
H:14924486185440016873||HBA:14924321692640012300|HBA:14924486112070016868

> <Mol. Index>
910

> <Pharmacophore Match>
Model -1

> <# Confs.>
25

> <Source Database>
Pharm-Screening-input-NANPDB_After_DataWarror.ldb

> <Pharmacophore-Fit Score>
35.9

> <formula>
C24H30O5

> <Mutagenic>
none

> <Reproductive Effective>
none

> <Irritant>
none

$$$$
4alpha-[(beta-D-glucopyranosyloxy)methyl]-5alpha-(2-hydroxyethyl)-3-methylcyclopent-2-en-1-one
XX    ILIB03122402113D

 47 48  0  0  1  0              1 V2000
    4.1798    1.5004   -2.0145 O   0  0  0  0  0
    3.2281    1.0793   -1.3731 C   0  0  0  0  0
    3.3355    0.6744    0.0307 C   0  0  0  0  0
    2.1189    0.3026    0.4020 C   0  0  0  0  0
    1.8002   -0.2515    1.7618 C   0  0  0  0  0
    1.3176   -1.2299    1.6795 H   0  0  0  0  0
    1.1355    0.4243    2.3077 H   0  0  0  0  0
    2.7064   -0.3794    2.3642 H   0  0  0  0  0
    1.0439    0.4016   -0.6738 C   0  0  1  0  0
   -0.1662    1.2455   -0.2386 C   0  0  0  0  0
   -1.1254    1.3044   -1.2777 O   0  0  0  0  0
   -1.6431    0.0393   -1.6614 C   0  0  1  0  0
   -2.2958   -0.6478   -0.5872 O   0  0  0  0  0
   -3.4314    0.0570   -0.0659 C   0  0  1  0  0
   -4.4856    0.2642   -1.1579 C   0  0  1  0  0
   -5.5396    1.0727   -0.6448 O   0  0  0  0  0
   -6.1846    1.1998   -1.3623 H   0  0  0  0  0
   -3.8840    0.9415   -2.3892 C   0  0  2  0  0
   -4.8474    0.8900   -3.4428 O   0  0  0  0  0
   -4.4383    1.2870   -4.2305 H   0  0  0  0  0
   -2.6191    0.2090   -2.8287 C   0  0  1  0  0
   -2.0010    0.9346   -3.8853 O   0  0  0  0  0
   -1.1905    0.4588   -4.1338 H   0  0  0  0  0
   -2.9012   -0.7741   -3.2232 H   0  0  0  0  0
   -3.6881    2.0034   -2.1973 H   0  0  0  0  0
   -4.9221   -0.7008   -1.4474 H   0  0  0  0  0
   -3.9799   -0.7620    1.0879 C   0  0  0  0  0
   -2.9882   -0.9101    2.0913 O   0  0  0  0  0
   -3.3823   -1.4381    2.8063 H   0  0  0  0  0
   -4.2977   -1.7537    0.7487 H   0  0  0  0  0
   -4.8551   -0.2683    1.5235 H   0  0  0  0  0
   -3.0954    1.0223    0.3351 H   0  0  0  0  0
   -0.8053   -0.5835   -1.9985 H   0  0  0  0  0
    0.1682    2.2562    0.0518 H   0  0  0  0  0
   -0.6481    0.7929    0.6268 H   0  0  0  0  0
    1.8274    0.8884   -1.9074 C   0  0  1  0  0
    1.3443    2.1305   -2.6593 C   0  0  0  0  0
    2.1730    2.5579   -3.8784 C   0  0  0  0  0
    2.1941    1.5144   -4.8391 O   0  0  0  0  0
    2.7273    1.8286   -5.5895 H   0  0  0  0  0
    3.2019    2.8003   -3.5893 H   0  0  0  0  0
    1.7421    3.4541   -4.3371 H   0  0  0  0  0
    1.2823    2.9727   -1.9575 H   0  0  0  0  0
    0.3153    1.9387   -2.9933 H   0  0  0  0  0
    1.8779    0.0558   -2.6225 H   0  0  0  0  0
    0.6813   -0.6215   -0.8676 H   0  0  0  0  0
    4.2440    0.6776    0.6068 H   0  0  0  0  0
  1  2  2  0  0  0
  2  3  1  0  0  0
  2 36  1  0  0  0
  3  4  2  0  0  0
  3 47  1  0  0  0
  4  5  1  0  0  0
  4  9  1  0  0  0
  5  6  1  0  0  0
  5  7  1  0  0  0
  5  8  1  0  0  0
  9 10  1  0  0  0
  9 36  1  0  0  0
  9 46  1  0  0  0
 10 11  1  0  0  0
 10 34  1  0  0  0
 10 35  1  0  0  0
 11 12  1  0  0  0
 12 13  1  0  0  0
 12 21  1  0  0  0
 12 33  1  0  0  0
 13 14  1  0  0  0
 14 15  1  0  0  0
 14 27  1  0  0  0
 14 32  1  0  0  0
 15 16  1  0  0  0
 15 18  1  0  0  0
 15 26  1  0  0  0
 16 17  1  0  0  0
 18 19  1  0  0  0
 18 21  1  0  0  0
 18 25  1  0  0  0
 19 20  1  0  0  0
 21 22  1  0  0  0
 21 24  1  0  0  0
 22 23  1  0  0  0
 27 28  1  0  0  0
 27 30  1  0  0  0
 27 31  1  0  0  0
 28 29  1  0  0  0
 36 37  1  0  0  0
 36 45  1  0  0  0
 37 38  1  0  0  0
 37 43  1  0  0  0
 37 44  1  0  0  0
 38 39  1  0  0  0
 38 41  1  0  0  0
 38 42  1  0  0  0
 39 40  1  0  0  0
M  END
> <Tumorigenic>
none

> <Score>
35.881363

> <Active/Decoy>
active

> <InChI>
InChI=1S/C15H24O8/c1-7-4-10(18)8(2-3-16)9(7)6-22-15-14(21)13(20)12(19)11(5-17)23-15/h4,8-9,11-17,19-21H,2-3,5-6H2,1H3/t8-,9-,11-,12-,13+,14-,15+/m1/s1

> <Matching Features>
H:14924486185440016873||HBA:14924321692640012300|HBA:14924486112070016868

> <Mol. Index>
1327

> <Pharmacophore Match>
Model -1

> <# Confs.>
25

> <Source Database>
Pharm-Screening-input-NANPDB_After_DataWarror.ldb

> <Pharmacophore-Fit Score>
35.88

> <formula>
C15H24O8

> <Mutagenic>
none

> <Reproductive Effective>
none

> <Irritant>
none

$$$$
siphonellinol C
XX    ILIB03122402113D

 87 89  0  0  1  0              1 V2000
   -5.4255    0.8831   -3.6185 O   0  0  0  0  0
   -6.2502    1.7971   -4.3364 C   0  0  0  0  0
   -5.8871    3.2680   -4.0464 C   0  0  2  0  0
   -6.3821    4.1233   -5.0783 O   0  0  0  0  0
   -5.7870    4.0488   -5.8426 H   0  0  0  0  0
   -4.3837    3.5070   -3.8580 C   0  0  0  0  0
   -3.9464    3.2483   -2.4176 C   0  0  0  0  0
   -3.8972    1.7727   -1.9053 C   0  0  1  0  0
   -5.2483    1.0460   -2.2088 C   0  0  2  0  0
   -5.2394   -0.3848   -1.6573 C   0  0  0  0  0
   -4.1192   -1.2207   -2.2797 C   0  0  0  0  0
   -2.7220   -0.5811   -2.1545 C   0  0  2  0  0
   -2.2981   -0.7126   -0.7965 O   0  0  0  0  0
   -2.2867   -1.6574   -0.5698 H   0  0  0  0  0
   -2.7216    0.9285   -2.5811 C   0  0  2  0  0
   -1.3368    1.5717   -2.5006 C   0  0  0  0  0
   -0.7086    1.5520   -1.0932 C   0  0  0  0  0
    0.6538    2.2023   -1.0132 C   0  0  0  0  0
    0.7945    3.5182   -0.7420 C   0  0  0  0  0
    2.1295    4.2260   -0.7439 C   0  0  0  0  0
    3.2545    3.4351   -1.3846 C   0  0  0  0  0
    3.2186    1.9860   -0.9215 C   0  0  2  0  0
    4.3478    1.3184   -1.4829 O   0  0  0  0  0
    5.1462    1.7764   -1.1736 H   0  0  0  0  0
    1.8782    1.2721   -1.3077 C   0  0  1  0  0
    1.7627   -0.0172   -0.4903 C   0  0  0  0  0
    1.7531    0.1980    0.9902 C   0  0  0  0  0
    2.6681   -0.3223    1.8223 C   0  0  0  0  0
    2.7215   -0.1319    3.3091 C   0  0  0  0  0
    1.6475    0.6974    3.7586 O   0  0  0  0  0
    0.8140    0.2128    3.6317 H   0  0  0  0  0
    2.6170   -1.4803    4.0253 C   0  0  0  0  0
    2.6153   -1.3456    5.1115 H   0  0  0  0  0
    1.6768   -1.9867    3.7764 H   0  0  0  0  0
    3.4437   -2.1478    3.7612 H   0  0  0  0  0
    4.0224    0.5722    3.6942 C   0  0  0  0  0
    4.9052   -0.0119    3.4093 H   0  0  0  0  0
    4.0941    1.5566    3.2151 H   0  0  0  0  0
    4.0635    0.7524    4.7742 H   0  0  0  0  0
    3.4547   -0.9442    1.3946 H   0  0  0  0  0
    0.9583    0.8268    1.3827 H   0  0  0  0  0
    0.8365   -0.5373   -0.7660 H   0  0  0  0  0
    2.5860   -0.6890   -0.7671 H   0  0  0  0  0
    1.8712    0.9268   -2.8195 C   0  0  0  0  0
    0.9922    0.3350   -3.0965 H   0  0  0  0  0
    1.8600    1.8304   -3.4383 H   0  0  0  0  0
    2.7467    0.3387   -3.1145 H   0  0  0  0  0
    3.3423    1.9618    0.1695 H   0  0  0  0  0
    3.1873    3.4892   -2.4785 H   0  0  0  0  0
    4.2182    3.8924   -1.1321 H   0  0  0  0  0
    2.0473    5.1870   -1.2663 H   0  0  0  0  0
    2.3920    4.4518    0.2973 H   0  0  0  0  0
   -0.3464    4.4535   -0.4207 C   0  0  0  0  0
   -0.1233    5.0013    0.5012 H   0  0  0  0  0
   -0.4827    5.1805   -1.2278 H   0  0  0  0  0
   -1.3018    3.9515   -0.2587 H   0  0  0  0  0
   -1.3817    2.0858   -0.4024 H   0  0  0  0  0
   -0.6710    0.5182   -0.7481 H   0  0  0  0  0
   -1.4094    2.6195   -2.8413 H   0  0  0  0  0
   -0.6632    1.0652   -3.1946 H   0  0  0  0  0
   -2.9482    0.9311   -3.6570 H   0  0  0  0  0
   -1.7376   -1.4062   -3.0005 C   0  0  0  0  0
   -1.9281   -1.2870   -4.0715 H   0  0  0  0  0
   -0.6984   -1.1353   -2.7906 H   0  0  0  0  0
   -1.8172   -2.4727   -2.7580 H   0  0  0  0  0
   -4.1280   -2.2063   -1.7968 H   0  0  0  0  0
   -4.3509   -1.3923   -3.3389 H   0  0  0  0  0
   -5.1633   -0.3926   -0.5659 H   0  0  0  0  0
   -6.1979   -0.8636   -1.9017 H   0  0  0  0  0
   -6.0900    1.5872   -1.7632 H   0  0  0  0  0
   -3.7340    1.9154   -0.3667 C   0  0  0  0  0
   -2.8824    2.5505   -0.1073 H   0  0  0  0  0
   -4.6215    2.3916    0.0694 H   0  0  0  0  0
   -3.6095    0.9677    0.1567 H   0  0  0  0  0
   -4.6261    3.8201   -1.7686 H   0  0  0  0  0
   -2.9743    3.7285   -2.2639 H   0  0  0  0  0
   -4.1665    4.5588   -4.0873 H   0  0  0  0  0
   -3.7869    2.9259   -4.5679 H   0  0  0  0  0
   -6.4041    3.5928   -3.1354 H   0  0  0  0  0
   -7.7299    1.5270   -4.0171 C   0  0  0  0  0
   -8.3937    2.1264   -4.6473 H   0  0  0  0  0
   -7.9647    1.7528   -2.9714 H   0  0  0  0  0
   -7.9713    0.4683   -4.1635 H   0  0  0  0  0
   -6.0246    1.4302   -5.8163 C   0  0  0  0  0
   -6.6717    1.9990   -6.4904 H   0  0  0  0  0
   -6.2181    0.3638   -5.9842 H   0  0  0  0  0
   -4.9823    1.5989   -6.1090 H   0  0  0  0  0
  1  2  1  0  0  0
  1  9  1  0  0  0
  2  3  1  0  0  0
  2 80  1  0  0  0
  2 84  1  0  0  0
  3  4  1  0  0  0
  3  6  1  0  0  0
  3 79  1  0  0  0
  4  5  1  0  0  0
  6  7  1  0  0  0
  6 77  1  0  0  0
  6 78  1  0  0  0
  7  8  1  0  0  0
  7 75  1  0  0  0
  7 76  1  0  0  0
  8  9  1  0  0  0
  8 15  1  0  0  0
  8 71  1  0  0  0
  9 10  1  0  0  0
  9 70  1  0  0  0
 10 11  1  0  0  0
 10 68  1  0  0  0
 10 69  1  0  0  0
 11 12  1  0  0  0
 11 66  1  0  0  0
 11 67  1  0  0  0
 12 13  1  0  0  0
 12 15  1  0  0  0
 12 62  1  0  0  0
 13 14  1  0  0  0
 15 16  1  0  0  0
 15 61  1  0  0  0
 16 17  1  0  0  0
 16 59  1  0  0  0
 16 60  1  0  0  0
 17 18  1  0  0  0
 17 57  1  0  0  0
 17 58  1  0  0  0
 18 19  2  0  0  0
 18 25  1  0  0  0
 19 20  1  0  0  0
 19 53  1  0  0  0
 20 21  1  0  0  0
 20 51  1  0  0  0
 20 52  1  0  0  0
 21 22  1  0  0  0
 21 49  1  0  0  0
 21 50  1  0  0  0
 22 23  1  0  0  0
 22 25  1  0  0  0
 22 48  1  0  0  0
 23 24  1  0  0  0
 25 26  1  0  0  0
 25 44  1  0  0  0
 26 27  1  0  0  0
 26 42  1  0  0  0
 26 43  1  0  0  0
 27 28  2  0  0  0
 27 41  1  0  0  0
 28 29  1  0  0  0
 28 40  1  0  0  0
 29 30  1  0  0  0
 29 32  1  0  0  0
 29 36  1  0  0  0
 30 31  1  0  0  0
 32 33  1  0  0  0
 32 34  1  0  0  0
 32 35  1  0  0  0
 36 37  1  0  0  0
 36 38  1  0  0  0
 36 39  1  0  0  0
 44 45  1  0  0  0
 44 46  1  0  0  0
 44 47  1  0  0  0
 53 54  1  0  0  0
 53 55  1  0  0  0
 53 56  1  0  0  0
 62 63  1  0  0  0
 62 64  1  0  0  0
 62 65  1  0  0  0
 71 72  1  0  0  0
 71 73  1  0  0  0
 71 74  1  0  0  0
 80 81  1  0  0  0
 80 82  1  0  0  0
 80 83  1  0  0  0
 84 85  1  0  0  0
 84 86  1  0  0  0
 84 87  1  0  0  0
M  END
> <Tumorigenic>
none

> <Score>
35.87836

> <Active/Decoy>
active

> <InChI>
InChI=1S/C30H52O5/c1-20-10-13-24(32)28(6,17-9-16-26(2,3)33)21(20)11-12-22-29(7)18-14-23(31)27(4,5)35-25(29)15-19-30(22,8)34/h9,16,22-25,31-34H,10-15,17-19H2,1-8H3/b16-9+/t22-,23-,24+,25+,28+,29-,30+/m1/s1

> <Matching Features>
H:14924486185440016873||HBA:14924321692640012300|HBA:14924486112070016868

> <Mol. Index>
165

> <Pharmacophore Match>
Model -1

> <# Confs.>
25

> <Source Database>
Pharm-Screening-input-NANPDB_After_DataWarror.ldb

> <Pharmacophore-Fit Score>
35.88

> <formula>
C30H52O5

> <Mutagenic>
none

> <Reproductive Effective>
none

> <Irritant>
none

$$$$
epieuphoscopin F
XX    ILIB03122402113D

 73 74  0  0  1  0              1 V2000
    1.7864    0.4060   -3.3306 O   0  0  0  0  0
    1.2042    1.3058   -2.7171 C   0  0  0  0  0
    1.2544    1.3769   -1.1769 C   0  0  1  0  0
    2.1412    2.4490   -0.8242 O   0  0  0  0  0
    3.4169    2.3432   -1.2584 C   0  0  0  0  0
    3.8842    1.4258   -1.9186 O   0  0  0  0  0
    4.1969    3.5436   -0.8160 C   0  0  0  0  0
    3.8051    4.4386   -1.3057 H   0  0  0  0  0
    5.2470    3.4194   -1.0992 H   0  0  0  0  0
    4.1445    3.6426    0.2713 H   0  0  0  0  0
   -0.1136    1.4369   -0.4401 C   0  0  2  0  0
    0.3157    1.0787    0.9898 C   0  0  1  0  0
   -0.7877    0.7146    1.8460 O   0  0  0  0  0
   -1.3679    1.7107    2.5376 C   0  0  0  0  0
   -1.0402    2.8907    2.5003 O   0  0  0  0  0
   -2.5187    1.1996    3.3658 C   0  0  0  0  0
   -3.1633    2.3287    4.1428 C   0  0  0  0  0
   -4.0109    1.9572    4.7264 H   0  0  0  0  0
   -3.5272    3.1106    3.4680 H   0  0  0  0  0
   -2.4480    2.7905    4.8314 H   0  0  0  0  0
   -2.1690    0.4090    4.0383 H   0  0  0  0  0
   -3.2425    0.7359    2.6868 H   0  0  0  0  0
    1.2605   -0.1233    0.8010 C   0  0  1  0  0
    1.9200    0.1079   -0.5723 C   0  0  0  0  0
    3.0065    0.2270   -0.4862 H   0  0  0  0  0
    1.7408   -0.7814   -1.1879 H   0  0  0  0  0
    2.2719   -0.2554    1.9318 C   0  0  0  0  0
    1.7645   -0.4087    2.8898 H   0  0  0  0  0
    2.8944    0.6412    2.0181 H   0  0  0  0  0
    2.9332   -1.1098    1.7590 H   0  0  0  0  0
    0.6825   -1.0568    0.7710 H   0  0  0  0  0
    0.8674    1.9046    1.4515 H   0  0  0  0  0
   -1.1502    0.4802   -0.9908 C   0  0  0  0  0
   -2.4817    0.6665   -1.1119 C   0  0  0  0  0
   -3.3794   -0.4266   -1.6870 C   0  0  2  0  0
   -3.0193   -1.6804   -1.0902 O   0  0  0  0  0
   -3.6686   -2.0154    0.0459 C   0  0  0  0  0
   -4.5297   -1.3558    0.6111 O   0  0  0  0  0
   -3.1836   -3.3493    0.5252 C   0  0  0  0  0
   -3.4590   -4.1233   -0.1968 H   0  0  0  0  0
   -3.6502   -3.5833    1.4853 H   0  0  0  0  0
   -2.1005   -3.3232    0.6695 H   0  0  0  0  0
   -3.2457   -0.5535   -3.2127 C   0  0  0  0  0
   -3.8662    0.6221   -3.9603 C   0  0  0  0  0
   -3.0181    1.3489   -5.0255 C   0  0  0  0  0
   -1.8893    2.0125   -4.2607 C   0  0  0  0  0
   -0.5778    1.7431   -4.3519 C   0  0  0  0  0
    0.4596    2.4101   -3.4820 C   0  0  2  0  0
    1.4496    3.1978   -4.3324 C   0  0  0  0  0
    1.9398    2.5661   -5.0820 H   0  0  0  0  0
    2.2389    3.6323   -3.7098 H   0  0  0  0  0
    0.9438    4.0140   -4.8576 H   0  0  0  0  0
   -0.0197    3.0812   -2.7723 H   0  0  0  0  0
   -0.2259    0.9989   -5.0610 H   0  0  0  0  0
   -2.1977    2.7684   -3.5392 H   0  0  0  0  0
   -2.5976    0.3468   -6.1123 C   0  0  0  0  0
   -3.4774   -0.1215   -6.5710 H   0  0  0  0  0
   -2.0293    0.8401   -6.9094 H   0  0  0  0  0
   -1.9783   -0.4669   -5.7211 H   0  0  0  0  0
   -3.8522    2.4543   -5.6979 C   0  0  0  0  0
   -4.2288    3.1819   -4.9688 H   0  0  0  0  0
   -3.2617    3.0037   -6.4400 H   0  0  0  0  0
   -4.7262    2.0337   -6.2112 H   0  0  0  0  0
   -5.0236    0.9692   -3.7087 O   0  0  0  0  0
   -3.7511   -1.4588   -3.5704 H   0  0  0  0  0
   -2.1948   -0.6831   -3.4873 H   0  0  0  0  0
   -4.4215   -0.2052   -1.4189 H   0  0  0  0  0
   -3.2135    1.9086   -0.6794 C   0  0  0  0  0
   -3.9470    1.6585    0.0938 H   0  0  0  0  0
   -2.5648    2.6824   -0.2666 H   0  0  0  0  0
   -3.7470    2.3522   -1.5257 H   0  0  0  0  0
   -0.7533   -0.4777   -1.3227 H   0  0  0  0  0
   -0.5112    2.4616   -0.4386 H   0  0  0  0  0
  1  2  2  0  0  0
  2  3  1  0  0  0
  2 48  1  0  0  0
  3  4  1  0  0  0
  3 11  1  0  0  0
  3 24  1  0  0  0
  4  5  1  0  0  0
  5  6  2  0  0  0
  5  7  1  0  0  0
  7  8  1  0  0  0
  7  9  1  0  0  0
  7 10  1  0  0  0
 11 12  1  0  0  0
 11 33  1  0  0  0
 11 73  1  0  0  0
 12 13  1  0  0  0
 12 23  1  0  0  0
 12 32  1  0  0  0
 13 14  1  0  0  0
 14 15  2  0  0  0
 14 16  1  0  0  0
 16 17  1  0  0  0
 16 21  1  0  0  0
 16 22  1  0  0  0
 17 18  1  0  0  0
 17 19  1  0  0  0
 17 20  1  0  0  0
 23 24  1  0  0  0
 23 27  1  0  0  0
 23 31  1  0  0  0
 24 25  1  0  0  0
 24 26  1  0  0  0
 27 28  1  0  0  0
 27 29  1  0  0  0
 27 30  1  0  0  0
 33 34  2  0  0  0
 33 72  1  0  0  0
 34 35  1  0  0  0
 34 68  1  0  0  0
 35 36  1  0  0  0
 35 43  1  0  0  0
 35 67  1  0  0  0
 36 37  1  0  0  0
 37 38  2  0  0  0
 37 39  1  0  0  0
 39 40  1  0  0  0
 39 41  1  0  0  0
 39 42  1  0  0  0
 43 44  1  0  0  0
 43 65  1  0  0  0
 43 66  1  0  0  0
 44 45  1  0  0  0
 44 64  2  0  0  0
 45 46  1  0  0  0
 45 56  1  0  0  0
 45 60  1  0  0  0
 46 47  2  0  0  0
 46 55  1  0  0  0
 47 48  1  0  0  0
 47 54  1  0  0  0
 48 49  1  0  0  0
 48 53  1  0  0  0
 49 50  1  0  0  0
 49 51  1  0  0  0
 49 52  1  0  0  0
 56 57  1  0  0  0
 56 58  1  0  0  0
 56 59  1  0  0  0
 60 61  1  0  0  0
 60 62  1  0  0  0
 60 63  1  0  0  0
 68 69  1  0  0  0
 68 70  1  0  0  0
 68 71  1  0  0  0
M  END
> <Tumorigenic>
none

> <Score>
35.873318

> <Active/Decoy>
active

> <InChI>
InChI=1S/C27H38O8/c1-9-23(31)34-24-17(4)14-27(35-19(6)29)20(24)12-16(3)21(33-18(5)28)13-22(30)26(7,8)11-10-15(2)25(27)32/h10-12,15,17,20-21,24H,9,13-14H2,1-8H3/b11-10+,16-12+/t15-,17+,20-,21+,24-,27?/m0/s1

> <Matching Features>
H:14924486185440016873||HBA:14924321692640012300|HBA:14924486112070016868

> <Mol. Index>
498

> <Pharmacophore Match>
Model -1

> <# Confs.>
25

> <Source Database>
Pharm-Screening-input-NANPDB_After_DataWarror.ldb

> <Pharmacophore-Fit Score>
35.87

> <formula>
C27H38O8

> <Mutagenic>
none

> <Reproductive Effective>
none

> <Irritant>
none

$$$$
4beta-hydroxy-6alpha(p-hydroxybenzoyloxy)-10alpha-angeloxydauc-7-ene
XX    ILIB03122402113D

 57 59  0  0  1  0              1 V2000
    0.7009   -0.6830   -3.4937 O   0  0  0  0  0
   -0.0591   -0.1337   -2.7213 C   0  0  0  0  0
    0.2025    0.2495   -1.4555 O   0  0  0  0  0
    1.5199   -0.0114   -0.9587 C   0  0  2  0  0
    1.4030   -0.9326    0.2679 C   0  0  1  0  0
    0.8635   -2.3634   -0.0633 C   0  0  2  0  0
    1.5793   -2.8701   -1.1975 O   0  0  0  0  0
    1.3744   -3.8164   -1.2878 H   0  0  0  0  0
   -0.6436   -2.4667   -0.3635 C   0  0  0  0  0
   -1.1091   -3.9023   -0.6252 C   0  0  0  0  0
   -0.9489   -4.5428    0.2498 H   0  0  0  0  0
   -2.1787   -3.9205   -0.8589 H   0  0  0  0  0
   -0.5803   -4.3426   -1.4759 H   0  0  0  0  0
   -1.4738   -1.8527    0.7664 C   0  0  0  0  0
   -1.1731   -0.8165    0.9513 H   0  0  0  0  0
   -1.3636   -2.4124    1.7010 H   0  0  0  0  0
   -2.5370   -1.8495    0.5049 H   0  0  0  0  0
   -0.8451   -1.8830   -1.2720 H   0  0  0  0  0
    1.2817   -3.1637    1.1737 C   0  0  0  0  0
    2.7058   -2.6935    1.4163 C   0  0  0  0  0
    2.7066   -1.1633    1.1256 C   0  0  1  0  0
    4.0565   -0.8030    0.5431 C   0  0  0  0  0
    4.4438    0.2398   -0.2036 C   0  0  0  0  0
    3.6617    1.4074   -0.7366 C   0  0  1  0  0
    3.9626    1.5195   -2.1372 O   0  0  0  0  0
    3.7140    0.6874   -2.5736 H   0  0  0  0  0
    2.1343    1.3551   -0.5944 C   0  0  0  0  0
    1.7046    2.1279   -1.2476 H   0  0  0  0  0
    1.8223    1.6368    0.4181 H   0  0  0  0  0
    4.1842    2.6976   -0.0925 C   0  0  0  0  0
    4.0133    2.7082    0.9901 H   0  0  0  0  0
    5.2584    2.8259   -0.2722 H   0  0  0  0  0
    3.6954    3.5766   -0.5280 H   0  0  0  0  0
    5.5044    0.2636   -0.4570 H   0  0  0  0  0
    4.8671   -1.4767    0.8271 H   0  0  0  0  0
    2.5811   -0.4259    2.4791 C   0  0  0  0  0
    2.5324    0.6596    2.3468 H   0  0  0  0  0
    1.6782   -0.7343    3.0180 H   0  0  0  0  0
    3.4367   -0.6376    3.1308 H   0  0  0  0  0
    3.3743   -3.2327    0.7294 H   0  0  0  0  0
    3.0347   -2.9381    2.4323 H   0  0  0  0  0
    0.6553   -2.9283    2.0411 H   0  0  0  0  0
    1.2639   -4.2452    1.0113 H   0  0  0  0  0
    0.6597   -0.4697    0.9330 H   0  0  0  0  0
    2.1007   -0.4941   -1.7536 H   0  0  0  0  0
   -1.4696    0.1767   -3.0574 C   0  0  0  0  0
   -2.1444   -0.6190   -3.9850 C   0  0  0  0  0
   -3.4691   -0.3378   -4.3216 C   0  0  0  0  0
   -4.1128    0.7479   -3.7320 C   0  0  0  0  0
   -5.4103    1.0456   -4.0376 O   0  0  0  0  0
   -5.7357    0.3906   -4.6770 H   0  0  0  0  0
   -3.4482    1.5574   -2.8158 C   0  0  0  0  0
   -2.1213    1.2780   -2.4791 C   0  0  0  0  0
   -1.6262    1.9257   -1.7619 H   0  0  0  0  0
   -3.9522    2.4042   -2.3590 H   0  0  0  0  0
   -3.9863   -0.9685   -5.0389 H   0  0  0  0  0
   -1.6595   -1.4716   -4.4532 H   0  0  0  0  0
  1  2  2  0  0  0
  2  3  1  0  0  0
  2 46  1  0  0  0
  3  4  1  0  0  0
  4  5  1  0  0  0
  4 27  1  0  0  0
  4 45  1  0  0  0
  5  6  1  0  0  0
  5 21  1  0  0  0
  5 44  1  0  0  0
  6  7  1  0  0  0
  6  9  1  0  0  0
  6 19  1  0  0  0
  7  8  1  0  0  0
  9 10  1  0  0  0
  9 14  1  0  0  0
  9 18  1  0  0  0
 10 11  1  0  0  0
 10 12  1  0  0  0
 10 13  1  0  0  0
 14 15  1  0  0  0
 14 16  1  0  0  0
 14 17  1  0  0  0
 19 20  1  0  0  0
 19 42  1  0  0  0
 19 43  1  0  0  0
 20 21  1  0  0  0
 20 40  1  0  0  0
 20 41  1  0  0  0
 21 22  1  0  0  0
 21 36  1  0  0  0
 22 23  2  0  0  0
 22 35  1  0  0  0
 23 24  1  0  0  0
 23 34  1  0  0  0
 24 25  1  0  0  0
 24 27  1  0  0  0
 24 30  1  0  0  0
 25 26  1  0  0  0
 27 28  1  0  0  0
 27 29  1  0  0  0
 30 31  1  0  0  0
 30 32  1  0  0  0
 30 33  1  0  0  0
 36 37  1  0  0  0
 36 38  1  0  0  0
 36 39  1  0  0  0
 46 47  2  0  0  0
 46 53  1  0  0  0
 47 48  1  0  0  0
 47 57  1  0  0  0
 48 49  2  0  0  0
 48 56  1  0  0  0
 49 50  1  0  0  0
 49 52  1  0  0  0
 50 51  1  0  0  0
 52 53  2  0  0  0
 52 55  1  0  0  0
 53 54  1  0  0  0
M  END
> <Tumorigenic>
none

> <Score>
35.827785

> <Active/Decoy>
active

> <InChI>
InChI=1S/C22H30O5/c1-14(2)22(26)12-10-20(3)9-11-21(4,25)13-17(18(20)22)27-19(24)15-5-7-16(23)8-6-15/h5-9,11,14,17-18,23,25-26H,10,12-13H2,1-4H3/t17-,18+,20+,21+,22+/m0/s1

> <Matching Features>
H:14924486185440016873||HBA:14924321692640012300|HBA:14924486112070016868

> <Mol. Index>
888

> <Pharmacophore Match>
Model -1

> <# Confs.>
25

> <Source Database>
Pharm-Screening-input-NANPDB_After_DataWarror.ldb

> <Pharmacophore-Fit Score>
35.83

> <formula>
C22H30O5

> <Mutagenic>
none

> <Reproductive Effective>
none

> <Irritant>
none

$$$$
lancerotriol 9-acetate-6-p-hydroxybenzoate
XX    ILIB03122402113D

 62 64  0  0  1  0              1 V2000
   -2.7781    0.9986    1.8322 O   0  0  0  0  0
   -2.5078    1.5215    0.7628 C   0  0  0  0  0
   -1.4249    2.2989    0.4832 O   0  0  0  0  0
   -0.5238    2.5588    1.5625 C   0  0  2  0  0
    0.1866    3.9421    1.4250 C   0  0  2  0  0
   -0.7922    5.1674    1.5306 C   0  0  2  0  0
   -0.0360    6.3238    1.9302 O   0  0  0  0  0
    0.3536    6.1431    2.8011 H   0  0  0  0  0
   -1.9981    5.0446    2.4810 C   0  0  0  0  0
   -1.5485    4.8809    3.9365 C   0  0  0  0  0
   -2.4130    4.8203    4.6059 H   0  0  0  0  0
   -0.9658    3.9638    4.0728 H   0  0  0  0  0
   -0.9312    5.7272    4.2581 H   0  0  0  0  0
   -2.9237    6.2606    2.3695 C   0  0  0  0  0
   -3.7665    6.1711    3.0623 H   0  0  0  0  0
   -2.3901    7.1874    2.6058 H   0  0  0  0  0
   -3.3386    6.3545    1.3616 H   0  0  0  0  0
   -2.5786    4.1538    2.2067 H   0  0  0  0  0
   -1.2133    5.4025    0.0819 C   0  0  0  0  0
    0.0637    5.1917   -0.7232 C   0  0  0  0  0
    0.9519    4.1980    0.0827 C   0  0  2  0  0
    1.2164    2.9563   -0.7961 C   0  0  0  0  0
    2.0866    1.8445   -0.1959 C   0  0  2  0  0
    2.2545    0.8655   -1.2343 O   0  0  0  0  0
    3.5106    0.6990   -1.7345 C   0  0  0  0  0
    4.5162    1.3030   -1.3863 O   0  0  0  0  0
    3.4988   -0.3742   -2.7798 C   0  0  0  0  0
    4.4192   -0.3158   -3.3705 H   0  0  0  0  0
    3.4407   -1.3540   -2.3016 H   0  0  0  0  0
    2.6548   -0.2274   -3.4592 H   0  0  0  0  0
    1.5567    1.1139    1.0173 C   0  0  0  0  0
    0.4448    1.4102    1.7126 C   0  0  0  0  0
    0.1906    0.7560    2.5471 H   0  0  0  0  0
    2.4017   -0.0590    1.4622 C   0  0  0  0  0
    3.4385    0.2583    1.6134 H   0  0  0  0  0
    2.3857   -0.8543    0.7111 H   0  0  0  0  0
    2.0551   -0.4915    2.4059 H   0  0  0  0  0
    3.0718    2.2514    0.0647 H   0  0  0  0  0
    1.7075    3.2961   -1.7205 H   0  0  0  0  0
    0.2774    2.5243   -1.1638 H   0  0  0  0  0
    2.3087    4.8831    0.3796 C   0  0  0  0  0
    2.8728    5.0548   -0.5444 H   0  0  0  0  0
    2.9289    4.2739    1.0442 H   0  0  0  0  0
    2.1823    5.8557    0.8648 H   0  0  0  0  0
    0.5707    6.1538   -0.8594 H   0  0  0  0  0
   -0.1841    4.8286   -1.7269 H   0  0  0  0  0
   -1.9803    4.6892   -0.2373 H   0  0  0  0  0
   -1.6002    6.4131   -0.0903 H   0  0  0  0  0
    0.8965    4.0144    2.2609 H   0  0  0  0  0
   -1.0774    2.5795    2.5014 H   0  0  0  0  0
   -3.3427    1.3723   -0.4438 C   0  0  0  0  0
   -4.5021    0.5903   -0.3511 C   0  0  0  0  0
   -5.3293    0.4234   -1.4634 C   0  0  0  0  0
   -4.9942    1.0379   -2.6669 C   0  0  0  0  0
   -5.7854    0.8955   -3.7714 O   0  0  0  0  0
   -6.5397    0.3293   -3.5373 H   0  0  0  0  0
   -3.8440    1.8150   -2.7728 C   0  0  0  0  0
   -3.0166    1.9842   -1.6612 C   0  0  0  0  0
   -2.1275    2.5970   -1.7723 H   0  0  0  0  0
   -3.5845    2.2916   -3.7142 H   0  0  0  0  0
   -6.2261   -0.1826   -1.3774 H   0  0  0  0  0
   -4.7794    0.1039    0.5804 H   0  0  0  0  0
  1  2  2  0  0  0
  2  3  1  0  0  0
  2 51  1  0  0  0
  3  4  1  0  0  0
  4  5  1  0  0  0
  4 32  1  0  0  0
  4 50  1  0  0  0
  5  6  1  0  0  0
  5 21  1  0  0  0
  5 49  1  0  0  0
  6  7  1  0  0  0
  6  9  1  0  0  0
  6 19  1  0  0  0
  7  8  1  0  0  0
  9 10  1  0  0  0
  9 14  1  0  0  0
  9 18  1  0  0  0
 10 11  1  0  0  0
 10 12  1  0  0  0
 10 13  1  0  0  0
 14 15  1  0  0  0
 14 16  1  0  0  0
 14 17  1  0  0  0
 19 20  1  0  0  0
 19 47  1  0  0  0
 19 48  1  0  0  0
 20 21  1  0  0  0
 20 45  1  0  0  0
 20 46  1  0  0  0
 21 22  1  0  0  0
 21 41  1  0  0  0
 22 23  1  0  0  0
 22 39  1  0  0  0
 22 40  1  0  0  0
 23 24  1  0  0  0
 23 31  1  0  0  0
 23 38  1  0  0  0
 24 25  1  0  0  0
 25 26  2  0  0  0
 25 27  1  0  0  0
 27 28  1  0  0  0
 27 29  1  0  0  0
 27 30  1  0  0  0
 31 32  2  0  0  0
 31 34  1  0  0  0
 32 33  1  0  0  0
 34 35  1  0  0  0
 34 36  1  0  0  0
 34 37  1  0  0  0
 41 42  1  0  0  0
 41 43  1  0  0  0
 41 44  1  0  0  0
 51 52  2  0  0  0
 51 58  1  0  0  0
 52 53  1  0  0  0
 52 62  1  0  0  0
 53 54  2  0  0  0
 53 61  1  0  0  0
 54 55  1  0  0  0
 54 57  1  0  0  0
 55 56  1  0  0  0
 57 58  2  0  0  0
 57 60  1  0  0  0
 58 59  1  0  0  0
M  END
> <Tumorigenic>
none

> <Score>
35.824863

> <Active/Decoy>
active

> <InChI>
InChI=1S/C24H32O6/c1-14(2)24(28)11-10-23(5)13-20(29-16(4)25)15(3)12-19(21(23)24)30-22(27)17-6-8-18(26)9-7-17/h6-9,12,14,19-21,26,28H,10-11,13H2,1-5H3/t19-,20-,21-,23+,24+/m0/s1

> <Matching Features>
H:14924486185440016873||HBA:14924321692640012300|HBA:14924486112070016868

> <Mol. Index>
948

> <Pharmacophore Match>
Model -1

> <# Confs.>
25

> <Source Database>
Pharm-Screening-input-NANPDB_After_DataWarror.ldb

> <Pharmacophore-Fit Score>
35.82

> <formula>
C24H32O6

> <Mutagenic>
none

> <Reproductive Effective>
none

> <Irritant>
none

$$$$
wortmin
XX    ILIB03122402113D

 60 62  0  0  1  0              1 V2000
   -3.9186   -0.5286    0.4904 O   0  0  0  0  0
   -3.4084   -1.0947   -0.4882 C   0  0  0  0  0
   -3.8687   -0.7628   -1.8602 C   0  0  0  0  0
   -3.4689   -1.5222   -2.8952 C   0  0  0  0  0
   -3.8962   -1.1694   -4.2999 C   0  0  0  0  0
   -5.0883   -0.1964   -4.2991 C   0  0  1  0  0
   -4.7971    0.8814   -3.4037 O   0  0  0  0  0
   -4.7474    0.4437   -2.0406 C   0  0  0  0  0
   -5.7665    0.2316   -1.6978 H   0  0  0  0  0
   -4.3629    1.2851   -1.4567 H   0  0  0  0  0
   -5.3054    0.3830   -5.6646 C   0  0  0  0  0
   -6.4239    0.2896   -6.4002 C   0  0  0  0  0
   -6.5783    0.9011   -7.7544 C   0  0  0  0  0
   -5.6794    1.4368   -8.0743 H   0  0  0  0  0
   -7.4147    1.6063   -7.7533 H   0  0  0  0  0
   -6.7880    0.1189   -8.4916 H   0  0  0  0  0
   -7.2845   -0.2540   -6.0211 H   0  0  0  0  0
   -4.4643    0.9410   -6.0722 H   0  0  0  0  0
   -6.0011   -0.7039   -3.9570 H   0  0  0  0  0
   -4.1882   -2.0797   -4.8460 H   0  0  0  0  0
   -3.0390   -0.7344   -4.8119 H   0  0  0  0  0
   -2.5939   -2.7375   -2.7569 C   0  0  0  0  0
   -2.5076   -3.2509   -1.3145 C   0  0  1  0  0
   -1.4299   -4.1988   -1.2250 O   0  0  0  0  0
   -1.7234   -5.5010   -1.4947 C   0  0  0  0  0
   -2.8184   -5.9486   -1.8073 O   0  0  0  0  0
   -0.4812   -6.3318   -1.3794 C   0  0  0  0  0
   -0.7576   -7.3873   -1.3155 H   0  0  0  0  0
    0.1479   -6.1760   -2.2582 H   0  0  0  0  0
    0.0618   -6.0711   -0.4668 H   0  0  0  0  0
   -2.2539   -2.0884   -0.3341 C   0  0  1  0  0
   -1.0096   -1.4703   -0.6728 O   0  0  0  0  0
   -0.6454   -0.3661    0.0281 C   0  0  0  0  0
   -1.2519    0.1433    0.9571 O   0  0  0  0  0
    0.6401    0.1503   -0.4777 C   0  0  0  0  0
    0.7437    0.5684   -1.8087 C   0  0  0  0  0
   -0.3489    0.5018   -2.6302 O   0  0  0  0  0
   -0.0934    0.8067   -3.5170 H   0  0  0  0  0
    1.9599    1.0323   -2.3101 C   0  0  0  0  0
    3.0884    1.0719   -1.4872 C   0  0  0  0  0
    4.2245    1.5338   -2.0866 O   0  0  0  0  0
    5.3780    1.5758   -1.2517 C   0  0  0  0  0
    5.2286    2.2574   -0.4068 H   0  0  0  0  0
    6.2097    1.9627   -1.8515 H   0  0  0  0  0
    5.6532    0.5749   -0.9044 H   0  0  0  0  0
    2.9864    0.6436   -0.1570 C   0  0  0  0  0
    1.7644    0.1851    0.3647 C   0  0  0  0  0
    1.7059   -0.2752    1.7945 C   0  0  0  0  0
    0.8508    0.1707    2.3115 H   0  0  0  0  0
    1.6319   -1.3658    1.8374 H   0  0  0  0  0
    2.6033    0.0245    2.3479 H   0  0  0  0  0
    3.8557    0.6580    0.4975 H   0  0  0  0  0
    2.0348    1.3560   -3.3455 H   0  0  0  0  0
   -2.1662   -2.6401    1.1091 C   0  0  0  0  0
   -1.2943   -3.2916    1.2330 H   0  0  0  0  0
   -2.0546   -1.8327    1.8412 H   0  0  0  0  0
   -3.0671   -3.2026    1.3779 H   0  0  0  0  0
   -3.4552   -3.7452   -1.0517 H   0  0  0  0  0
   -2.9827   -3.5486   -3.3864 H   0  0  0  0  0
   -1.5938   -2.5119   -3.1472 H   0  0  0  0  0
  1  2  2  0  0  0
  2  3  1  0  0  0
  2 31  1  0  0  0
  3  4  2  0  0  0
  3  8  1  0  0  0
  4  5  1  0  0  0
  4 22  1  0  0  0
  5  6  1  0  0  0
  5 20  1  0  0  0
  5 21  1  0  0  0
  6  7  1  0  0  0
  6 11  1  0  0  0
  6 19  1  0  0  0
  7  8  1  0  0  0
  8  9  1  0  0  0
  8 10  1  0  0  0
 11 12  2  0  0  0
 11 18  1  0  0  0
 12 13  1  0  0  0
 12 17  1  0  0  0
 13 14  1  0  0  0
 13 15  1  0  0  0
 13 16  1  0  0  0
 22 23  1  0  0  0
 22 59  1  0  0  0
 22 60  1  0  0  0
 23 24  1  0  0  0
 23 31  1  0  0  0
 23 58  1  0  0  0
 24 25  1  0  0  0
 25 26  2  0  0  0
 25 27  1  0  0  0
 27 28  1  0  0  0
 27 29  1  0  0  0
 27 30  1  0  0  0
 31 32  1  0  0  0
 31 54  1  0  0  0
 32 33  1  0  0  0
 33 34  2  0  0  0
 33 35  1  0  0  0
 35 36  2  0  0  0
 35 47  1  0  0  0
 36 37  1  0  0  0
 36 39  1  0  0  0
 37 38  1  0  0  0
 39 40  2  0  0  0
 39 53  1  0  0  0
 40 41  1  0  0  0
 40 46  1  0  0  0
 41 42  1  0  0  0
 42 43  1  0  0  0
 42 44  1  0  0  0
 42 45  1  0  0  0
 46 47  2  0  0  0
 46 52  1  0  0  0
 47 48  1  0  0  0
 48 49  1  0  0  0
 48 50  1  0  0  0
 48 51  1  0  0  0
 54 55  1  0  0  0
 54 56  1  0  0  0
 54 57  1  0  0  0
M  END
> <Tumorigenic>
none

> <Score>
35.805958

> <Active/Decoy>
active

> <InChI>
InChI=1S/C24H28O8/c1-6-7-16-9-15-10-20(31-14(3)25)24(4,22(27)18(15)12-30-16)32-23(28)21-13(2)8-17(29-5)11-19(21)26/h6-8,11,16,20,26H,9-10,12H2,1-5H3/b7-6+/t16-,20+,24+/m0/s1

> <Matching Features>
H:14924486185440016873||HBA:14924321692640012300|HBA:14924486112070016868

> <Mol. Index>
824

> <Pharmacophore Match>
Model -1

> <# Confs.>
25

> <Source Database>
Pharm-Screening-input-NANPDB_After_DataWarror.ldb

> <Pharmacophore-Fit Score>
35.81

> <formula>
C24H28O8

> <Mutagenic>
none

> <Reproductive Effective>
none

> <Irritant>
none

$$$$
Tribulus saponin aglycone 7
XX    ILIB03122402113D

 79 82  0  0  1  0              1 V2000
   -6.1415    0.8155   -3.6817 O   0  0  0  0  0
   -4.8660    0.5061   -3.1259 C   0  0  2  0  0
   -4.7551    1.1225   -1.7311 C   0  0  0  0  0
   -3.3481    0.9943   -1.1209 C   0  0  2  0  0
   -2.2484    1.5716   -2.0668 C   0  0  1  0  0
   -0.8106    1.2862   -1.4782 C   0  0  2  0  0
   -0.6033   -0.2008   -1.1218 C   0  0  1  0  0
    0.8379   -0.4954   -0.6384 C   0  0  2  0  0
    1.4755    0.5578    0.3283 C   0  0  1  0  0
    2.6488    1.1778   -0.5098 C   0  0  2  0  0
    3.1037    0.0299   -1.4274 C   0  0  1  0  0
    3.8911   -0.9511   -0.7752 O   0  0  0  0  0
    4.8027   -0.6174   -0.7342 H   0  0  0  0  0
    1.7929   -0.6019   -1.8550 C   0  0  0  0  0
    1.9144   -1.6495   -2.1542 H   0  0  0  0  0
    1.3977   -0.0577   -2.7197 H   0  0  0  0  0
    3.6623    0.3948   -2.2956 H   0  0  0  0  0
    3.8156    1.9118    0.1868 C   0  0  1  0  0
    4.8030    2.5371   -0.7998 C   0  0  2  0  0
    5.3232    1.4953   -1.6183 O   0  0  0  0  0
    5.7949    1.8959   -2.3586 H   0  0  0  0  0
    5.9464    3.2718   -0.1226 C   0  0  0  0  0
    6.9198    3.8992   -1.1198 C   0  0  0  0  0
    8.0692    4.6377   -0.4391 C   0  0  1  0  0
    9.0410    5.2518   -1.4322 C   0  0  0  0  0
    9.6211    4.2558   -2.2595 O   0  0  0  0  0
   10.1533    3.6726   -1.6934 H   0  0  0  0  0
    8.5213    5.9695   -2.0756 H   0  0  0  0  0
    9.8395    5.8061   -0.9248 H   0  0  0  0  0
    7.5343    5.7521    0.4725 C   0  0  0  0  0
    8.3587    6.2935    0.9501 H   0  0  0  0  0
    6.9383    6.4752   -0.0939 H   0  0  0  0  0
    6.9090    5.3482    1.2745 H   0  0  0  0  0
    8.6207    3.9301    0.1945 H   0  0  0  0  0
    7.3210    3.1164   -1.7755 H   0  0  0  0  0
    6.3696    4.5984   -1.7616 H   0  0  0  0  0
    5.5388    4.0627    0.5310 H   0  0  0  0  0
    6.4778    2.5733    0.5187 H   0  0  0  0  0
    4.2460    3.2385   -1.4560 H   0  0  0  0  0
    3.2860    3.0129    1.1170 C   0  0  0  0  0
    4.1127    3.5455    1.6002 H   0  0  0  0  0
    2.6896    3.7465    0.5632 H   0  0  0  0  0
    2.6619    2.5988    1.9149 H   0  0  0  0  0
    4.3679    1.1937    0.8085 H   0  0  0  0  0
    2.1954    1.9250   -1.1790 H   0  0  0  0  0
    0.4519    1.6118    0.7884 C   0  0  0  0  0
   -0.4358    2.2137   -0.2970 C   0  0  0  0  0
    0.0592    3.1007   -0.7002 H   0  0  0  0  0
   -1.3316    2.5853    0.2124 H   0  0  0  0  0
    0.9443    2.4270    1.3280 H   0  0  0  0  0
   -0.2069    1.1659    1.5437 H   0  0  0  0  0
    1.9507   -0.1719    1.6052 C   0  0  0  0  0
    2.3511    0.5294    2.3438 H   0  0  0  0  0
    1.1132   -0.6912    2.0871 H   0  0  0  0  0
    2.7103   -0.9295    1.3986 H   0  0  0  0  0
    0.8337   -1.4843   -0.1585 H   0  0  0  0  0
   -1.6818   -0.6927   -0.1465 C   0  0  0  0  0
   -3.0811   -0.4716   -0.7172 C   0  0  0  0  0
   -3.2121   -1.1416   -1.5734 H   0  0  0  0  0
   -3.8198   -0.7827    0.0312 H   0  0  0  0  0
   -1.6144   -0.2003    0.8257 H   0  0  0  0  0
   -1.5462   -1.7645    0.0426 H   0  0  0  0  0
   -0.7375   -0.8004   -2.0315 H   0  0  0  0  0
   -0.0993    1.5310   -2.2792 H   0  0  0  0  0
   -2.3871    0.9161   -3.4774 C   0  0  0  0  0
   -3.7899    1.0215   -4.0742 C   0  0  0  0  0
   -3.8321    0.4496   -5.0118 H   0  0  0  0  0
   -4.0122    2.0530   -4.3713 H   0  0  0  0  0
   -2.1304   -0.1468   -3.4411 H   0  0  0  0  0
   -1.6712    1.3741   -4.1715 H   0  0  0  0  0
   -2.4337    3.1039   -2.2469 C   0  0  0  0  0
   -3.3560    3.3626   -2.7702 H   0  0  0  0  0
   -1.6061    3.5267   -2.8285 H   0  0  0  0  0
   -2.4739    3.6318   -1.2891 H   0  0  0  0  0
   -3.3511    1.5802   -0.1924 H   0  0  0  0  0
   -5.0499    2.1786   -1.7746 H   0  0  0  0  0
   -5.4966    0.6569   -1.0688 H   0  0  0  0  0
   -4.8020   -0.5861   -3.0653 H   0  0  0  0  0
   -6.8192    0.4707   -3.0743 H   0  0  0  0  0
  1  2  1  0  0  0
  1 79  1  0  0  0
  2  3  1  0  0  0
  2 66  1  0  0  0
  2 78  1  0  0  0
  3  4  1  0  0  0
  3 76  1  0  0  0
  3 77  1  0  0  0
  4  5  1  0  0  0
  4 58  1  0  0  0
  4 75  1  0  0  0
  5  6  1  0  0  0
  5 65  1  0  0  0
  5 71  1  0  0  0
  6  7  1  0  0  0
  6 47  1  0  0  0
  6 64  1  0  0  0
  7  8  1  0  0  0
  7 57  1  0  0  0
  7 63  1  0  0  0
  8  9  1  0  0  0
  8 14  1  0  0  0
  8 56  1  0  0  0
  9 10  1  0  0  0
  9 46  1  0  0  0
  9 52  1  0  0  0
 10 11  1  0  0  0
 10 18  1  0  0  0
 10 45  1  0  0  0
 11 12  1  0  0  0
 11 14  1  0  0  0
 11 17  1  0  0  0
 12 13  1  0  0  0
 14 15  1  0  0  0
 14 16  1  0  0  0
 18 19  1  0  0  0
 18 40  1  0  0  0
 18 44  1  0  0  0
 19 20  1  0  0  0
 19 22  1  0  0  0
 19 39  1  0  0  0
 20 21  1  0  0  0
 22 23  1  0  0  0
 22 37  1  0  0  0
 22 38  1  0  0  0
 23 24  1  0  0  0
 23 35  1  0  0  0
 23 36  1  0  0  0
 24 25  1  0  0  0
 24 30  1  0  0  0
 24 34  1  0  0  0
 25 26  1  0  0  0
 25 28  1  0  0  0
 25 29  1  0  0  0
 26 27  1  0  0  0
 30 31  1  0  0  0
 30 32  1  0  0  0
 30 33  1  0  0  0
 40 41  1  0  0  0
 40 42  1  0  0  0
 40 43  1  0  0  0
 46 47  1  0  0  0
 46 50  1  0  0  0
 46 51  1  0  0  0
 47 48  1  0  0  0
 47 49  1  0  0  0
 52 53  1  0  0  0
 52 54  1  0  0  0
 52 55  1  0  0  0
 57 58  1  0  0  0
 57 61  1  0  0  0
 57 62  1  0  0  0
 58 59  1  0  0  0
 58 60  1  0  0  0
 65 66  1  0  0  0
 65 69  1  0  0  0
 65 70  1  0  0  0
 66 67  1  0  0  0
 66 68  1  0  0  0
 71 72  1  0  0  0
 71 73  1  0  0  0
 71 74  1  0  0  0
M  END
> <Tumorigenic>
none

> <Score>
35.800716

> <Active/Decoy>
active

> <InChI>
InChI=1S/C27H48O4/c1-16(15-28)5-8-23(30)17(2)25-24(31)14-22-20-7-6-18-13-19(29)9-11-26(18,3)21(20)10-12-27(22,25)4/h16-25,28-31H,5-15H2,1-4H3/t16-,17+,18+,19-,20-,21-,22+,23+,24-,25-,26-,27-/m0/s1

> <Matching Features>
H:14924486185440016873||HBA:14924321692640012300|HBA:14924486112070016868

> <Mol. Index>
822

> <Pharmacophore Match>
Model -1

> <# Confs.>
15

> <Source Database>
Pharm-Screening-input-NANPDB_After_DataWarror.ldb

> <Pharmacophore-Fit Score>
35.8

> <formula>
C27H48O4

> <Mutagenic>
none

> <Reproductive Effective>
none

> <Irritant>
none

$$$$
10-hydroxylancerodiol-6-anisate
XX    ILIB03122402113D

 59 61  0  0  1  0              1 V2000
    4.4738    1.7312   -2.5188 O   0  0  0  0  0
    3.3639    1.2473   -2.2872 C   0  0  0  0  0
    3.1474   -0.2153   -2.4841 C   0  0  0  0  0
    2.1697   -0.8992   -1.8704 C   0  0  0  0  0
    1.1856   -0.4867   -0.8201 C   0  0  2  0  0
   -0.0335   -0.1570   -1.4948 O   0  0  0  0  0
   -1.1798   -0.5798   -0.9250 C   0  0  0  0  0
   -1.2981   -1.2006    0.1126 O   0  0  0  0  0
   -2.3371   -0.1372   -1.7394 C   0  0  0  0  0
   -2.1882    0.5914   -2.9231 C   0  0  0  0  0
   -3.3147    0.9636   -3.6608 C   0  0  0  0  0
   -4.5968    0.5991   -3.2398 C   0  0  0  0  0
   -5.6170    1.0219   -4.0451 O   0  0  0  0  0
   -6.9263    0.6643   -3.6103 C   0  0  0  0  0
   -7.0477   -0.4247   -3.5766 H   0  0  0  0  0
   -7.1559    1.1148   -2.6383 H   0  0  0  0  0
   -7.6393    1.0595   -4.3399 H   0  0  0  0  0
   -4.7455   -0.1326   -2.0582 C   0  0  0  0  0
   -3.6191   -0.5099   -1.3199 C   0  0  0  0  0
   -3.7682   -1.0713   -0.4005 H   0  0  0  0  0
   -5.7205   -0.4223   -1.6814 H   0  0  0  0  0
   -3.1810    1.5299   -4.5791 H   0  0  0  0  0
   -1.2101    0.8832   -3.2956 H   0  0  0  0  0
    1.5440    0.6391    0.1868 C   0  0  1  0  0
    2.6955    0.3437    1.1940 C   0  0  2  0  0
    3.8689   -0.1156    0.5197 O   0  0  0  0  0
    3.7394   -1.0514    0.2903 H   0  0  0  0  0
    2.3410   -0.6791    2.2887 C   0  0  0  0  0
    3.4527   -0.8601    3.3257 C   0  0  0  0  0
    3.6605    0.0698    3.8646 H   0  0  0  0  0
    3.1657   -1.6143    4.0664 H   0  0  0  0  0
    4.3828   -1.1990    2.8588 H   0  0  0  0  0
    1.0350   -0.3024    2.9930 C   0  0  0  0  0
    0.2207   -0.1939    2.2696 H   0  0  0  0  0
    1.1285    0.6373    3.5457 H   0  0  0  0  0
    0.7438   -1.0802    3.7062 H   0  0  0  0  0
    2.1824   -1.6506    1.8022 H   0  0  0  0  0
    3.0071    1.7422    1.7390 C   0  0  0  0  0
    2.9858    2.6225    0.4931 C   0  0  0  0  0
    1.8358    2.0660   -0.3906 C   0  0  1  0  0
    2.1824    2.1168   -1.8910 C   0  0  1  0  0
    2.5249    3.4569   -2.2477 O   0  0  0  0  0
    2.6104    3.4887   -3.2164 H   0  0  0  0  0
    1.3208    1.8454   -2.5108 H   0  0  0  0  0
    0.5865    2.9582   -0.1642 C   0  0  0  0  0
    0.3050    2.9928    0.8943 H   0  0  0  0  0
   -0.2739    2.5788   -0.7260 H   0  0  0  0  0
    0.7633    3.9903   -0.4826 H   0  0  0  0  0
    3.9558    2.5425   -0.0110 H   0  0  0  0  0
    2.8538    3.6776    0.7562 H   0  0  0  0  0
    2.2425    2.0850    2.4451 H   0  0  0  0  0
    3.9854    1.8001    2.2286 H   0  0  0  0  0
    0.6384    0.7544    0.8007 H   0  0  0  0  0
    0.9999   -1.3840   -0.2173 H   0  0  0  0  0
    2.0776   -1.9547   -2.1309 H   0  0  0  0  0
    4.0958   -0.8849   -3.4366 C   0  0  0  0  0
    3.8395   -1.9353   -3.6087 H   0  0  0  0  0
    4.0812   -0.3796   -4.4080 H   0  0  0  0  0
    5.1168   -0.8549   -3.0425 H   0  0  0  0  0
  1  2  2  0  0  0
  2  3  1  0  0  0
  2 41  1  0  0  0
  3  4  2  0  0  0
  3 56  1  0  0  0
  4  5  1  0  0  0
  4 55  1  0  0  0
  5  6  1  0  0  0
  5 24  1  0  0  0
  5 54  1  0  0  0
  6  7  1  0  0  0
  7  8  2  0  0  0
  7  9  1  0  0  0
  9 10  2  0  0  0
  9 19  1  0  0  0
 10 11  1  0  0  0
 10 23  1  0  0  0
 11 12  2  0  0  0
 11 22  1  0  0  0
 12 13  1  0  0  0
 12 18  1  0  0  0
 13 14  1  0  0  0
 14 15  1  0  0  0
 14 16  1  0  0  0
 14 17  1  0  0  0
 18 19  2  0  0  0
 18 21  1  0  0  0
 19 20  1  0  0  0
 24 25  1  0  0  0
 24 40  1  0  0  0
 24 53  1  0  0  0
 25 26  1  0  0  0
 25 28  1  0  0  0
 25 38  1  0  0  0
 26 27  1  0  0  0
 28 29  1  0  0  0
 28 33  1  0  0  0
 28 37  1  0  0  0
 29 30  1  0  0  0
 29 31  1  0  0  0
 29 32  1  0  0  0
 33 34  1  0  0  0
 33 35  1  0  0  0
 33 36  1  0  0  0
 38 39  1  0  0  0
 38 51  1  0  0  0
 38 52  1  0  0  0
 39 40  1  0  0  0
 39 49  1  0  0  0
 39 50  1  0  0  0
 40 41  1  0  0  0
 40 45  1  0  0  0
 41 42  1  0  0  0
 41 44  1  0  0  0
 42 43  1  0  0  0
 45 46  1  0  0  0
 45 47  1  0  0  0
 45 48  1  0  0  0
 56 57  1  0  0  0
 56 58  1  0  0  0
 56 59  1  0  0  0
M  END
> <Tumorigenic>
none

> <Score>
35.789913

> <Active/Decoy>
active

> <InChI>
InChI=1S/C23H30O6/c1-13(2)23(27)11-10-22(4)19(23)17(12-14(3)18(24)20(22)25)29-21(26)15-6-8-16(28-5)9-7-15/h6-9,12-13,17,19-20,25,27H,10-11H2,1-5H3/t17-,19+,20-,22+,23+/m0/s1

> <Matching Features>
H:14924486185440016873||HBA:14924321692640012300|HBA:14924486112070016868

> <Mol. Index>
961

> <Pharmacophore Match>
Model -1

> <# Confs.>
25

> <Source Database>
Pharm-Screening-input-NANPDB_After_DataWarror.ldb

> <Pharmacophore-Fit Score>
35.79

> <formula>
C23H30O6

> <Mutagenic>
none

> <Reproductive Effective>
none

> <Irritant>
none

$$$$
2,10-diacetyl-8-hydroxyferutriol-6-anisate
XX    ILIB03122402113D

 72 74  0  0  1  0              1 V2000
    0.4226    1.0490   -4.1265 O   0  0  0  0  0
   -0.3508    0.8234   -3.2093 C   0  0  0  0  0
   -0.0162    0.5330   -1.9249 O   0  0  0  0  0
    1.2110   -0.1985   -1.7041 C   0  0  2  0  0
    0.9999   -1.0556   -0.4440 C   0  0  1  0  0
    0.5289   -2.5154   -0.7831 C   0  0  2  0  0
    1.3459   -3.0310   -1.8457 O   0  0  0  0  0
    1.1375   -3.9740   -1.9633 H   0  0  0  0  0
   -0.9404   -2.5974   -1.2359 C   0  0  0  0  0
   -1.3527   -4.0429   -1.5377 C   0  0  0  0  0
   -2.4061   -4.0919   -1.8323 H   0  0  0  0  0
   -0.7632   -4.4607   -2.3588 H   0  0  0  0  0
   -1.2178   -4.6841   -0.6596 H   0  0  0  0  0
   -1.8836   -2.0105   -0.1810 C   0  0  0  0  0
   -2.9270   -2.0916   -0.5051 H   0  0  0  0  0
   -1.7851   -2.5362    0.7736 H   0  0  0  0  0
   -1.6778   -0.9497   -0.0078 H   0  0  0  0  0
   -1.0635   -2.0145   -2.1585 H   0  0  0  0  0
    0.8511   -3.3508    0.4721 C   0  0  0  0  0
    1.4850   -2.3693    1.4557 C   0  0  1  0  0
    2.3718   -3.0045    2.3919 O   0  0  0  0  0
    1.8261   -3.4610    3.5536 C   0  0  0  0  0
    0.6500   -3.3844    3.8824 O   0  0  0  0  0
    2.8860   -4.1130    4.3868 C   0  0  0  0  0
    2.5244   -4.2228    5.4129 H   0  0  0  0  0
    3.1201   -5.0989    3.9790 H   0  0  0  0  0
    3.7826   -3.4857    4.4117 H   0  0  0  0  0
    2.1757   -1.2678    0.5765 C   0  0  1  0  0
    3.4903   -1.6584   -0.0991 C   0  0  0  0  0
    4.0577   -2.8548    0.3548 O   0  0  0  0  0
    5.3083   -2.6888    0.8865 C   0  0  0  0  0
    5.9213   -1.6341    0.9848 O   0  0  0  0  0
    5.8294   -4.0072    1.3719 C   0  0  0  0  0
    6.9105   -3.9342    1.5312 H   0  0  0  0  0
    5.3446   -4.2720    2.3135 H   0  0  0  0  0
    5.6538   -4.7805    0.6188 H   0  0  0  0  0
    4.1079   -0.9841   -1.0889 C   0  0  0  0  0
    3.7387    0.2913   -1.8096 C   0  0  2  0  0
    4.6467    1.3163   -1.3774 O   0  0  0  0  0
    5.5562    1.0064   -1.5318 H   0  0  0  0  0
    2.3216    0.8543   -1.6030 C   0  0  0  0  0
    2.1539    1.6410   -2.3536 H   0  0  0  0  0
    2.2312    1.4199   -0.6705 H   0  0  0  0  0
    3.9918    0.0882   -3.3161 C   0  0  0  0  0
    3.8145    1.0172   -3.8713 H   0  0  0  0  0
    3.3577   -0.6960   -3.7412 H   0  0  0  0  0
    5.0373   -0.1784   -3.5105 H   0  0  0  0  0
    5.0462   -1.4185   -1.4418 H   0  0  0  0  0
    2.4487   -0.0740    1.5169 C   0  0  0  0  0
    2.9787   -0.4025    2.4198 H   0  0  0  0  0
    1.5157    0.4000    1.8419 H   0  0  0  0  0
    3.0760    0.7005    1.0710 H   0  0  0  0  0
    0.6755   -1.8920    2.0316 H   0  0  0  0  0
   -0.0408   -3.7932    0.9302 H   0  0  0  0  0
    1.5339   -4.1812    0.2565 H   0  0  0  0  0
    0.1957   -0.5732    0.1384 H   0  0  0  0  0
    1.3903   -0.8142   -2.5850 H   0  0  0  0  0
   -1.8180    0.8479   -3.3643 C   0  0  0  0  0
   -2.6759    1.1969   -2.3174 C   0  0  0  0  0
   -4.0583    1.2003   -2.5193 C   0  0  0  0  0
   -4.5999    0.8564   -3.7619 C   0  0  0  0  0
   -5.9634    0.8968   -3.8343 O   0  0  0  0  0
   -6.5177    0.5474   -5.1000 C   0  0  0  0  0
   -6.1913    1.2434   -5.8796 H   0  0  0  0  0
   -7.6035    0.6201   -5.0186 H   0  0  0  0  0
   -6.2709   -0.4851   -5.3674 H   0  0  0  0  0
   -3.7409    0.5079   -4.8069 C   0  0  0  0  0
   -2.3571    0.5038   -4.6089 C   0  0  0  0  0
   -1.7156    0.2293   -5.4424 H   0  0  0  0  0
   -4.1151    0.2345   -5.7897 H   0  0  0  0  0
   -4.7123    1.4740   -1.6947 H   0  0  0  0  0
   -2.3006    1.4697   -1.3356 H   0  0  0  0  0
  1  2  2  0  0  0
  2  3  1  0  0  0
  2 58  1  0  0  0
  3  4  1  0  0  0
  4  5  1  0  0  0
  4 41  1  0  0  0
  4 57  1  0  0  0
  5  6  1  0  0  0
  5 28  1  0  0  0
  5 56  1  0  0  0
  6  7  1  0  0  0
  6  9  1  0  0  0
  6 19  1  0  0  0
  7  8  1  0  0  0
  9 10  1  0  0  0
  9 14  1  0  0  0
  9 18  1  0  0  0
 10 11  1  0  0  0
 10 12  1  0  0  0
 10 13  1  0  0  0
 14 15  1  0  0  0
 14 16  1  0  0  0
 14 17  1  0  0  0
 19 20  1  0  0  0
 19 54  1  0  0  0
 19 55  1  0  0  0
 20 21  1  0  0  0
 20 28  1  0  0  0
 20 53  1  0  0  0
 21 22  1  0  0  0
 22 23  2  0  0  0
 22 24  1  0  0  0
 24 25  1  0  0  0
 24 26  1  0  0  0
 24 27  1  0  0  0
 28 29  1  0  0  0
 28 49  1  0  0  0
 29 30  1  0  0  0
 29 37  2  0  0  0
 30 31  1  0  0  0
 31 32  2  0  0  0
 31 33  1  0  0  0
 33 34  1  0  0  0
 33 35  1  0  0  0
 33 36  1  0  0  0
 37 38  1  0  0  0
 37 48  1  0  0  0
 38 39  1  0  0  0
 38 41  1  0  0  0
 38 44  1  0  0  0
 39 40  1  0  0  0
 41 42  1  0  0  0
 41 43  1  0  0  0
 44 45  1  0  0  0
 44 46  1  0  0  0
 44 47  1  0  0  0
 49 50  1  0  0  0
 49 51  1  0  0  0
 49 52  1  0  0  0
 58 59  2  0  0  0
 58 68  1  0  0  0
 59 60  1  0  0  0
 59 72  1  0  0  0
 60 61  2  0  0  0
 60 71  1  0  0  0
 61 62  1  0  0  0
 61 67  1  0  0  0
 62 63  1  0  0  0
 63 64  1  0  0  0
 63 65  1  0  0  0
 63 66  1  0  0  0
 67 68  2  0  0  0
 67 70  1  0  0  0
 68 69  1  0  0  0
M  END
> <Tumorigenic>
none

> <Score>
35.782516

> <Active/Decoy>
active

> <InChI>
InChI=1S/C27H36O9/c1-15(2)27(32)14-22(35-17(4)29)26(6)21(34-16(3)28)13-25(5,31)12-20(23(26)27)36-24(30)18-8-10-19(33-7)11-9-18/h8-11,13,15,20,22-23,31-32H,12,14H2,1-7H3/t20-,22+,23+,25+,26+,27+/m0/s1

> <Matching Features>
H:14924486185440016873||HBA:14924321692640012300|HBA:14924486112070016868

> <Mol. Index>
964

> <Pharmacophore Match>
Model -1

> <# Confs.>
25

> <Source Database>
Pharm-Screening-input-NANPDB_After_DataWarror.ldb

> <Pharmacophore-Fit Score>
35.78

> <formula>
C27H36O9

> <Mutagenic>
none

> <Reproductive Effective>
none

> <Irritant>
none

$$$$
euphornin E
XX    ILIB03122402113D

 83 85  0  0  1  0              1 V2000
   -2.0646   -2.1806    1.3579 O   0  0  0  0  0
   -0.9291   -2.5067    1.6642 C   0  0  0  0  0
    0.1840   -1.7643    1.5349 O   0  0  0  0  0
    0.0192   -0.4522    0.9963 C   0  0  2  0  0
    0.1618   -0.5095   -0.5566 C   0  0  2  0  0
    0.9206    0.7674   -0.9102 C   0  0  0  0  0
    1.4925    1.1173   -2.0838 C   0  0  0  0  0
    2.1471    2.3527   -2.1720 O   0  0  0  0  0
    3.4759    2.2928   -1.8471 C   0  0  0  0  0
    4.0945    1.2940   -1.5040 O   0  0  0  0  0
    4.0876    3.6538   -1.9840 C   0  0  0  0  0
    4.0662    3.9635   -3.0315 H   0  0  0  0  0
    5.1281    3.6207   -1.6471 H   0  0  0  0  0
    3.5474    4.3699   -1.3588 H   0  0  0  0  0
    1.4883    0.3533   -3.4061 C   0  0  2  0  0
    0.1724    0.4939   -4.1392 C   0  0  0  0  0
   -0.6079   -0.4966   -4.6031 C   0  0  0  0  0
   -1.8688   -0.3456   -5.4438 C   0  0  0  0  0
   -1.8251    0.9394   -6.3144 C   0  0  0  0  0
   -2.6849    0.9774   -6.9956 H   0  0  0  0  0
   -1.8503    1.8572   -5.7172 H   0  0  0  0  0
   -0.9195    0.9717   -6.9332 H   0  0  0  0  0
   -1.9134   -1.5303   -6.4392 C   0  0  0  0  0
   -2.8358   -1.5148   -7.0315 H   0  0  0  0  0
   -1.0715   -1.4890   -7.1415 H   0  0  0  0  0
   -1.8586   -2.5024   -5.9378 H   0  0  0  0  0
   -3.1695   -0.3145   -4.5742 C   0  0  2  0  0
   -3.1697    0.8724   -3.7672 O   0  0  0  0  0
   -4.3776    1.3902   -3.4570 C   0  0  0  0  0
   -5.4662    0.9458   -3.7958 O   0  0  0  0  0
   -4.1973    2.6105   -2.6065 C   0  0  0  0  0
   -3.7548    2.3286   -1.6476 H   0  0  0  0  0
   -5.1701    3.0734   -2.4220 H   0  0  0  0  0
   -3.5657    3.3363   -3.1254 H   0  0  0  0  0
   -3.5028   -1.5649   -3.7145 C   0  0  0  0  0
   -3.2720   -1.4818   -2.1890 C   0  0  1  0  0
   -4.0913   -2.4654   -1.3937 C   0  0  0  0  0
   -4.3015   -3.6160   -1.7610 O   0  0  0  0  0
   -4.5790   -1.8910   -0.2594 O   0  0  0  0  0
   -5.4035   -2.7379    0.5482 C   0  0  0  0  0
   -6.2993   -3.0318   -0.0062 H   0  0  0  0  0
   -5.7073   -2.1741    1.4337 H   0  0  0  0  0
   -4.8406   -3.6195    0.8693 H   0  0  0  0  0
   -1.8274   -1.6285   -1.7318 C   0  0  0  0  0
   -1.2104   -0.5729   -1.1620 C   0  0  0  0  0
   -1.7818    0.3519   -1.0730 H   0  0  0  0  0
   -1.2003   -2.9899   -1.9003 C   0  0  0  0  0
   -1.1999   -3.2883   -2.9528 H   0  0  0  0  0
   -1.7527   -3.7440   -1.3319 H   0  0  0  0  0
   -0.1676   -3.0415   -1.5533 H   0  0  0  0  0
   -3.6771   -0.5168   -1.8577 H   0  0  0  0  0
   -4.5837   -1.7199   -3.8533 H   0  0  0  0  0
   -3.0497   -2.4681   -4.1318 H   0  0  0  0  0
   -3.9945   -0.2298   -5.2989 H   0  0  0  0  0
   -0.3107   -1.5217   -4.3989 H   0  0  0  0  0
   -0.1195    1.5229   -4.3357 H   0  0  0  0  0
    2.0768   -1.0584   -3.3025 C   0  0  0  0  0
    3.0055   -1.0548   -2.7213 H   0  0  0  0  0
    2.3164   -1.4446   -4.2994 H   0  0  0  0  0
    1.3940   -1.7721   -2.8404 H   0  0  0  0  0
    2.1992    0.8787   -4.0633 H   0  0  0  0  0
    1.0791    1.5904    0.3521 C   0  0  0  0  0
    1.1165    0.5304    1.4511 C   0  0  2  0  0
    2.5042   -0.1002    1.6042 C   0  0  0  0  0
    2.5158   -0.8176    2.4310 H   0  0  0  0  0
    3.2508    0.6692    1.8265 H   0  0  0  0  0
    2.8244   -0.6262    0.6993 H   0  0  0  0  0
    0.8432    0.9732    2.4162 H   0  0  0  0  0
    1.9741    2.2183    0.3707 H   0  0  0  0  0
    0.2006    2.2344    0.4739 H   0  0  0  0  0
    0.7850   -1.3706   -0.8153 H   0  0  0  0  0
   -0.9590   -0.0469    1.2700 H   0  0  0  0  0
   -0.5942   -3.8216    2.2443 C   0  0  0  0  0
    0.4899   -3.9229    3.1235 C   0  0  0  0  0
    0.7939   -5.1649    3.6807 C   0  0  0  0  0
    0.0165   -6.2817    3.3690 C   0  0  0  0  0
   -1.0695   -6.1617    2.4993 C   0  0  0  0  0
   -1.3831   -4.9247    1.9381 C   0  0  0  0  0
   -2.2297   -4.8371    1.2645 H   0  0  0  0  0
   -1.6711   -7.0336    2.2607 H   0  0  0  0  0
    0.2568   -7.2478    3.8050 H   0  0  0  0  0
    1.6356   -5.2639    4.3592 H   0  0  0  0  0
    1.0976   -3.0576    3.3702 H   0  0  0  0  0
  1  2  2  0  0  0
  2  3  1  0  0  0
  2 73  1  0  0  0
  3  4  1  0  0  0
  4  5  1  0  0  0
  4 63  1  0  0  0
  4 72  1  0  0  0
  5  6  1  0  0  0
  5 45  1  0  0  0
  5 71  1  0  0  0
  6  7  2  0  0  0
  6 62  1  0  0  0
  7  8  1  0  0  0
  7 15  1  0  0  0
  8  9  1  0  0  0
  9 10  2  0  0  0
  9 11  1  0  0  0
 11 12  1  0  0  0
 11 13  1  0  0  0
 11 14  1  0  0  0
 15 16  1  0  0  0
 15 57  1  0  0  0
 15 61  1  0  0  0
 16 17  2  0  0  0
 16 56  1  0  0  0
 17 18  1  0  0  0
 17 55  1  0  0  0
 18 19  1  0  0  0
 18 23  1  0  0  0
 18 27  1  0  0  0
 19 20  1  0  0  0
 19 21  1  0  0  0
 19 22  1  0  0  0
 23 24  1  0  0  0
 23 25  1  0  0  0
 23 26  1  0  0  0
 27 28  1  0  0  0
 27 35  1  0  0  0
 27 54  1  0  0  0
 28 29  1  0  0  0
 29 30  2  0  0  0
 29 31  1  0  0  0
 31 32  1  0  0  0
 31 33  1  0  0  0
 31 34  1  0  0  0
 35 36  1  0  0  0
 35 52  1  0  0  0
 35 53  1  0  0  0
 36 37  1  0  0  0
 36 44  1  0  0  0
 36 51  1  0  0  0
 37 38  2  0  0  0
 37 39  1  0  0  0
 39 40  1  0  0  0
 40 41  1  0  0  0
 40 42  1  0  0  0
 40 43  1  0  0  0
 44 45  2  0  0  0
 44 47  1  0  0  0
 45 46  1  0  0  0
 47 48  1  0  0  0
 47 49  1  0  0  0
 47 50  1  0  0  0
 57 58  1  0  0  0
 57 59  1  0  0  0
 57 60  1  0  0  0
 62 63  1  0  0  0
 62 69  1  0  0  0
 62 70  1  0  0  0
 63 64  1  0  0  0
 63 68  1  0  0  0
 64 65  1  0  0  0
 64 66  1  0  0  0
 64 67  1  0  0  0
 73 74  2  0  0  0
 73 78  1  0  0  0
 74 75  1  0  0  0
 74 83  1  0  0  0
 75 76  2  0  0  0
 75 82  1  0  0  0
 76 77  1  0  0  0
 76 81  1  0  0  0
 77 78  2  0  0  0
 77 80  1  0  0  0
 78 79  1  0  0  0
M  END
> <Tumorigenic>
none

> <Score>
35.765892

> <Active/Decoy>
active

> <InChI>
InChI=1S/C33H42O8/c1-19-14-15-33(6,7)28(39-22(4)34)18-25(32(37)38-8)20(2)16-26-27(29(19)40-23(5)35)17-21(3)30(26)41-31(36)24-12-10-9-11-13-24/h9-16,19,21,25-26,28,30H,17-18H2,1-8H3/b15-14+,20-16+,29-27+/t19-,21-,25+,26-,28+,30-/m0/s1

> <Matching Features>
H:14924486185440016873||HBA:14924321692640012300|HBA:14924486112070016868

> <Mol. Index>
485

> <Pharmacophore Match>
Model -1

> <# Confs.>
25

> <Source Database>
Pharm-Screening-input-NANPDB_After_DataWarror.ldb

> <Pharmacophore-Fit Score>
35.77

> <formula>
C33H42O8

> <Mutagenic>
none

> <Reproductive Effective>
none

> <Irritant>
none

$$$$
naamidine G
XX    ILIB03122402113D

 58 61  0  0  1  0              1 V2000
   -5.3722    1.0422   -4.0161 O   0  0  0  0  0
   -5.2391    0.9637   -2.8001 C   0  0  0  0  0
   -4.1907    0.3186   -2.1651 N   0  0  0  0  0
   -4.3668    0.4329   -0.8835 C   0  0  0  0  0
   -3.6121   -0.0183    0.1683 N   0  0  0  0  0
   -2.4632   -0.7367    0.1489 C   0  0  0  0  0
   -1.7692   -1.1476   -0.8934 N   0  0  0  0  0
   -0.6782   -1.8188   -0.4012 C   0  0  0  0  0
    0.3091   -2.4276   -1.3111 C   0  0  0  0  0
    1.3246   -1.3529   -1.6057 C   0  0  0  0  0
    2.6965   -1.6693   -1.5713 C   0  0  0  0  0
    3.6630   -0.6936   -1.8399 C   0  0  0  0  0
    3.2801    0.6112   -2.1336 C   0  0  0  0  0
    4.1217    1.6484   -2.4205 O   0  0  0  0  0
    5.5094    1.3259   -2.3933 C   0  0  0  0  0
    5.8206    0.9980   -1.3963 H   0  0  0  0  0
    5.7547    0.5719   -3.1502 H   0  0  0  0  0
    6.0685    2.2355   -2.6357 H   0  0  0  0  0
    1.9157    0.9321   -2.1694 C   0  0  0  0  0
    0.9520   -0.0430   -1.9021 C   0  0  0  0  0
   -0.0989    0.2323   -1.9387 H   0  0  0  0  0
    1.5935    1.9443   -2.4025 H   0  0  0  0  0
    4.7071   -0.9898   -1.8074 H   0  0  0  0  0
    3.0239   -2.6812   -1.3422 H   0  0  0  0  0
   -0.1808   -2.7417   -2.2437 H   0  0  0  0  0
    0.7821   -3.3037   -0.8784 H   0  0  0  0  0
   -0.6939   -1.8063    0.9961 C   0  0  0  0  0
   -1.8342   -1.1036    1.3234 N   0  0  0  0  0
   -2.3109   -0.7957    2.6541 C   0  0  0  0  0
   -3.2822   -1.2664    2.7932 H   0  0  0  0  0
   -1.6138   -1.1581    3.4104 H   0  0  0  0  0
   -2.3914    0.2951    2.7446 H   0  0  0  0  0
    0.2568   -2.3974    1.9762 C   0  0  0  0  0
    1.3594   -1.4544    2.3699 C   0  0  0  0  0
    1.4142   -0.1659    1.8226 C   0  0  0  0  0
    2.4267    0.7286    2.1864 C   0  0  0  0  0
    3.4026    0.3450    3.1092 C   0  0  0  0  0
    4.4354    1.1267    3.5423 O   0  0  0  0  0
    4.4872    2.4368    2.9832 C   0  0  0  0  0
    4.6276    2.3970    1.8981 H   0  0  0  0  0
    3.5930    3.0127    3.2440 H   0  0  0  0  0
    5.3517    2.9493    3.4136 H   0  0  0  0  0
    3.3530   -0.9370    3.6606 C   0  0  0  0  0
    2.3405   -1.8281    3.2969 C   0  0  0  0  0
    2.3240   -2.8173    3.7487 H   0  0  0  0  0
    4.1034   -1.2543    4.3821 H   0  0  0  0  0
    2.4219    1.7150    1.7320 H   0  0  0  0  0
    0.6642    0.1569    1.1037 H   0  0  0  0  0
   -0.2852   -2.7244    2.8741 H   0  0  0  0  0
    0.6999   -3.3101    1.5557 H   0  0  0  0  0
   -3.9814    0.1903    1.0943 H   0  0  0  0  0
   -5.6305    1.2106   -0.6230 C   0  0  0  0  0
   -6.0914    1.4934   -1.8646 N   0  0  0  0  0
   -7.2922    2.2443   -2.1657 C   0  0  0  0  0
   -7.8751    2.4170   -1.2586 H   0  0  0  0  0
   -6.9979    3.2020   -2.6049 H   0  0  0  0  0
   -7.8835    1.6935   -2.9036 H   0  0  0  0  0
   -6.0376    1.4623    0.4875 O   0  0  0  0  0
  1  2  2  0  0  0
  2  3  1  0  0  0
  2 53  1  0  0  0
  3  4  2  0  0  0
  4  5  1  0  0  0
  4 52  1  0  0  0
  5  6  1  0  0  0
  5 51  1  0  0  0
  6  7  2  0  0  0
  6 28  1  0  0  0
  7  8  1  0  0  0
  8  9  1  0  0  0
  8 27  2  0  0  0
  9 10  1  0  0  0
  9 25  1  0  0  0
  9 26  1  0  0  0
 10 11  2  0  0  0
 10 20  1  0  0  0
 11 12  1  0  0  0
 11 24  1  0  0  0
 12 13  2  0  0  0
 12 23  1  0  0  0
 13 14  1  0  0  0
 13 19  1  0  0  0
 14 15  1  0  0  0
 15 16  1  0  0  0
 15 17  1  0  0  0
 15 18  1  0  0  0
 19 20  2  0  0  0
 19 22  1  0  0  0
 20 21  1  0  0  0
 27 28  1  0  0  0
 27 33  1  0  0  0
 28 29  1  0  0  0
 29 30  1  0  0  0
 29 31  1  0  0  0
 29 32  1  0  0  0
 33 34  1  0  0  0
 33 49  1  0  0  0
 33 50  1  0  0  0
 34 35  2  0  0  0
 34 44  1  0  0  0
 35 36  1  0  0  0
 35 48  1  0  0  0
 36 37  2  0  0  0
 36 47  1  0  0  0
 37 38  1  0  0  0
 37 43  1  0  0  0
 38 39  1  0  0  0
 39 40  1  0  0  0
 39 41  1  0  0  0
 39 42  1  0  0  0
 43 44  2  0  0  0
 43 46  1  0  0  0
 44 45  1  0  0  0
 52 53  1  0  0  0
 52 58  2  0  0  0
 53 54  1  0  0  0
 54 55  1  0  0  0
 54 56  1  0  0  0
 54 57  1  0  0  0
M  END
> <Tumorigenic>
none

> <Score>
35.756042

> <Active/Decoy>
active

> <InChI>
InChI=1S/C24H25N5O4/c1-28-20(14-16-7-11-18(33-4)12-8-16)19(13-15-5-9-17(32-3)10-6-15)25-23(28)26-21-22(30)29(2)24(31)27-21/h5-12H,13-14H2,1-4H3,(H,25,26,27,31)

> <Matching Features>
H:14924486185440016873||HBA:14924321692640012300|HBA:14924486112070016868

> <Mol. Index>
608

> <Pharmacophore Match>
Model -1

> <# Confs.>
25

> <Source Database>
Pharm-Screening-input-NANPDB_After_DataWarror.ldb

> <Pharmacophore-Fit Score>
35.76

> <formula>
C24H25N5O4

> <Mutagenic>
none

> <Reproductive Effective>
none

> <Irritant>
none

$$$$
teuhircoside
XX    ILIB03122402113D

 44 46  0  0  1  0              1 V2000
    4.3612    1.5020   -1.9580 O   0  0  0  0  0
    3.3434    1.2825   -1.3189 C   0  0  0  0  0
    3.3574    0.6752    0.0186 C   0  0  0  0  0
    2.0785    0.4452    0.3341 C   0  0  0  0  0
    1.6322   -0.2089    1.5972 C   0  0  0  0  0
    2.4822   -0.5421    2.2020 H   0  0  0  0  0
    1.0464    0.4861    2.2061 H   0  0  0  0  0
    1.0168   -1.0859    1.3753 H   0  0  0  0  0
    1.0858    0.8210   -0.7450 C   0  0  1  0  0
   -0.1288    1.6281   -0.2830 C   0  0  2  0  0
   -1.1047    1.5873   -1.3111 O   0  0  0  0  0
   -1.5364    0.2696   -1.6702 C   0  0  1  0  0
   -2.0888   -0.4386   -0.5453 O   0  0  0  0  0
   -3.2551    0.1871    0.0082 C   0  0  1  0  0
   -4.3681    0.2804   -1.0412 C   0  0  1  0  0
   -5.4621    1.0177   -0.5022 O   0  0  0  0  0
   -6.1400    1.0811   -1.1958 H   0  0  0  0  0
   -3.8716    0.9741   -2.3118 C   0  0  2  0  0
   -4.8607    0.8468   -3.3347 O   0  0  0  0  0
   -4.9986   -0.1008   -3.5032 H   0  0  0  0  0
   -2.5707    0.3426   -2.7824 C   0  0  1  0  0
   -2.0365    1.0762   -3.8870 O   0  0  0  0  0
   -1.8114    1.9664   -3.5683 H   0  0  0  0  0
   -2.7729   -0.6717   -3.1509 H   0  0  0  0  0
   -3.7502    2.0501   -2.1434 H   0  0  0  0  0
   -4.7362   -0.7229   -1.2893 H   0  0  0  0  0
   -3.6892   -0.6400    1.2069 C   0  0  0  0  0
   -2.6631   -0.6940    2.1851 O   0  0  0  0  0
   -1.9075   -1.1665    1.7974 H   0  0  0  0  0
   -4.5780   -0.1981    1.6683 H   0  0  0  0  0
   -3.9611   -1.6604    0.9150 H   0  0  0  0  0
   -2.9826    1.1869    0.3710 H   0  0  0  0  0
   -0.6628   -0.2851   -2.0185 H   0  0  0  0  0
    0.1728    2.9765    0.1168 O   0  0  0  0  0
    0.9759    3.6509   -0.7606 C   0  0  0  0  0
    1.7721    3.0902   -1.6751 C   0  0  0  0  0
    1.9339    1.6049   -1.7651 C   0  0  1  0  0
    1.7127    1.1398   -3.0769 O   0  0  0  0  0
    2.2471    1.6740   -3.6873 H   0  0  0  0  0
    2.3686    3.7264   -2.3238 H   0  0  0  0  0
    0.9115    4.7167   -0.6026 H   0  0  0  0  0
   -0.5851    1.1361    0.5983 H   0  0  0  0  0
    0.7248   -0.1115   -1.2025 H   0  0  0  0  0
    4.2404    0.4569    0.5925 H   0  0  0  0  0
  1  2  2  0  0  0
  2  3  1  0  0  0
  2 37  1  0  0  0
  3  4  2  0  0  0
  3 44  1  0  0  0
  4  5  1  0  0  0
  4  9  1  0  0  0
  5  6  1  0  0  0
  5  7  1  0  0  0
  5  8  1  0  0  0
  9 10  1  0  0  0
  9 37  1  0  0  0
  9 43  1  0  0  0
 10 11  1  0  0  0
 10 34  1  0  0  0
 10 42  1  0  0  0
 11 12  1  0  0  0
 12 13  1  0  0  0
 12 21  1  0  0  0
 12 33  1  0  0  0
 13 14  1  0  0  0
 14 15  1  0  0  0
 14 27  1  0  0  0
 14 32  1  0  0  0
 15 16  1  0  0  0
 15 18  1  0  0  0
 15 26  1  0  0  0
 16 17  1  0  0  0
 18 19  1  0  0  0
 18 21  1  0  0  0
 18 25  1  0  0  0
 19 20  1  0  0  0
 21 22  1  0  0  0
 21 24  1  0  0  0
 22 23  1  0  0  0
 27 28  1  0  0  0
 27 30  1  0  0  0
 27 31  1  0  0  0
 28 29  1  0  0  0
 34 35  1  0  0  0
 35 36  2  0  0  0
 35 41  1  0  0  0
 36 37  1  0  0  0
 36 40  1  0  0  0
 37 38  1  0  0  0
 38 39  1  0  0  0
M  END
> <Tumorigenic>
none

> <Score>
35.747368

> <Active/Decoy>
active

> <InChI>
InChI=1S/C15H20O9/c1-6-4-8(17)15(21)2-3-22-13(9(6)15)24-14-12(20)11(19)10(18)7(5-16)23-14/h2-4,7,9-14,16,18-21H,5H2,1H3/t7-,9+,10-,11+,12-,13+,14-,15-/m1/s1

> <Matching Features>
H:14924486185440016873||HBA:14924321692640012300|HBA:14924486112070016868

> <Mol. Index>
1333

> <Pharmacophore Match>
Model -1

> <# Confs.>
13

> <Source Database>
Pharm-Screening-input-NANPDB_After_DataWarror.ldb

> <Pharmacophore-Fit Score>
35.75

> <formula>
C15H20O9

> <Mutagenic>
none

> <Reproductive Effective>
none

> <Irritant>
none

$$$$
12beta-acetoxy-Delta-1,2-dehydrocabralea-lactone
XX    ILIB03122402113D

 76 80  0  0  1  0              1 V2000
    5.1278    1.4351   -1.5267 O   0  0  0  0  0
    4.0975    0.8135   -1.2632 C   0  0  0  0  0
    2.8067    1.5387   -1.3293 C   0  0  0  0  0
    1.6850    1.0158   -0.8243 C   0  0  0  0  0
    1.5849   -0.3507   -0.1525 C   0  0  2  0  0
    2.6672   -1.2527   -0.8426 C   0  0  1  0  0
    4.1191   -0.6701   -0.8652 C   0  0  0  0  0
    4.9466   -1.3952   -1.9568 C   0  0  0  0  0
    4.4572   -1.3280   -2.9352 H   0  0  0  0  0
    5.9433   -0.9499   -2.0703 H   0  0  0  0  0
    5.0991   -2.4527   -1.7234 H   0  0  0  0  0
    4.8874   -0.8051    0.4579 C   0  0  0  0  0
    5.9283   -0.4779    0.3390 H   0  0  0  0  0
    4.4738   -0.1824    1.2520 H   0  0  0  0  0
    4.9177   -1.8410    0.8090 H   0  0  0  0  0
    2.5685   -2.7094   -0.3633 C   0  0  0  0  0
    1.2071   -3.3059   -0.7253 C   0  0  0  0  0
   -0.0015   -2.5387   -0.1239 C   0  0  2  0  0
   -1.3843   -3.0873   -0.7318 C   0  0  1  0  0
   -2.6075   -2.1572   -0.4146 C   0  0  1  0  0
   -2.3299   -0.6439   -0.5751 C   0  0  2  0  0
   -2.2271   -0.2657   -1.9480 O   0  0  0  0  0
   -2.6128    1.0029   -2.2540 C   0  0  0  0  0
   -3.0336    1.8462   -1.4739 O   0  0  0  0  0
   -2.4282    1.2382   -3.7221 C   0  0  0  0  0
   -2.8591    2.2067   -3.9913 H   0  0  0  0  0
   -2.9462    0.4635   -4.2932 H   0  0  0  0  0
   -1.3628    1.2453   -3.9643 H   0  0  0  0  0
   -1.0422   -0.2291    0.1471 C   0  0  0  0  0
    0.1624   -1.0006   -0.4410 C   0  0  1  0  0
    0.0774   -0.9142   -1.5330 H   0  0  0  0  0
   -0.9059    0.8490    0.0301 H   0  0  0  0  0
   -1.1469   -0.3979    1.2230 H   0  0  0  0  0
   -3.1755   -0.0875   -0.1183 H   0  0  0  0  0
   -3.7078   -2.7209   -1.3618 C   0  0  1  0  0
   -5.0420   -1.9709   -1.5467 C   0  0  1  0  0
   -4.7854   -0.6510   -2.0685 O   0  0  0  0  0
   -5.7522   -0.2986   -2.9706 C   0  0  0  0  0
   -5.8273    0.7922   -3.5156 O   0  0  0  0  0
   -6.7173   -1.4295   -3.1569 C   0  0  0  0  0
   -5.9463   -2.6064   -2.6022 C   0  0  0  0  0
   -5.3614   -3.0477   -3.4173 H   0  0  0  0  0
   -6.5958   -3.3934   -2.2088 H   0  0  0  0  0
   -7.6265   -1.2282   -2.5830 H   0  0  0  0  0
   -6.9568   -1.5718   -4.2128 H   0  0  0  0  0
   -5.7971   -1.8168   -0.2139 C   0  0  0  0  0
   -6.0355   -2.7884    0.2292 H   0  0  0  0  0
   -6.7341   -1.2629   -0.3435 H   0  0  0  0  0
   -5.2112   -1.2374    0.5085 H   0  0  0  0  0
   -2.9473   -3.0676   -2.6570 C   0  0  0  0  0
   -1.4546   -3.1613   -2.2800 C   0  0  0  0  0
   -1.0169   -4.0867   -2.6712 H   0  0  0  0  0
   -0.9158   -2.3398   -2.7603 H   0  0  0  0  0
   -3.3032   -4.0211   -3.0631 H   0  0  0  0  0
   -3.0830   -2.3170   -3.4414 H   0  0  0  0  0
   -4.0130   -3.6864   -0.9317 H   0  0  0  0  0
   -2.9239   -2.3210    0.6256 H   0  0  0  0  0
   -1.6628   -4.5364   -0.2096 C   0  0  0  0  0
   -2.4383   -5.0562   -0.7810 H   0  0  0  0  0
   -0.7773   -5.1730   -0.2892 H   0  0  0  0  0
   -1.9905   -4.5315    0.8351 H   0  0  0  0  0
   -0.0106   -2.8096    1.4100 C   0  0  0  0  0
    0.0614   -3.8806    1.6271 H   0  0  0  0  0
   -0.9220   -2.4467    1.8926 H   0  0  0  0  0
    0.8305   -2.3621    1.9314 H   0  0  0  0  0
    1.1329   -3.3249   -1.8187 H   0  0  0  0  0
    1.2043   -4.3532   -0.4046 H   0  0  0  0  0
    3.3327   -3.3273   -0.8475 H   0  0  0  0  0
    2.7508   -2.7931    0.7119 H   0  0  0  0  0
    2.3740   -1.2868   -1.9064 H   0  0  0  0  0
    1.8340   -0.0881    1.3468 C   0  0  0  0  0
    2.2758   -0.9445    1.8584 H   0  0  0  0  0
    2.5230    0.7486    1.5126 H   0  0  0  0  0
    0.9178    0.1838    1.8786 H   0  0  0  0  0
    0.7998    1.6428   -0.8685 H   0  0  0  0  0
    2.8127    2.5337   -1.7600 H   0  0  0  0  0
  1  2  2  0  0  0
  2  3  1  0  0  0
  2  7  1  0  0  0
  3  4  2  0  0  0
  3 76  1  0  0  0
  4  5  1  0  0  0
  4 75  1  0  0  0
  5  6  1  0  0  0
  5 30  1  0  0  0
  5 71  1  0  0  0
  6  7  1  0  0  0
  6 16  1  0  0  0
  6 70  1  0  0  0
  7  8  1  0  0  0
  7 12  1  0  0  0
  8  9  1  0  0  0
  8 10  1  0  0  0
  8 11  1  0  0  0
 12 13  1  0  0  0
 12 14  1  0  0  0
 12 15  1  0  0  0
 16 17  1  0  0  0
 16 68  1  0  0  0
 16 69  1  0  0  0
 17 18  1  0  0  0
 17 66  1  0  0  0
 17 67  1  0  0  0
 18 19  1  0  0  0
 18 30  1  0  0  0
 18 62  1  0  0  0
 19 20  1  0  0  0
 19 51  1  0  0  0
 19 58  1  0  0  0
 20 21  1  0  0  0
 20 35  1  0  0  0
 20 57  1  0  0  0
 21 22  1  0  0  0
 21 29  1  0  0  0
 21 34  1  0  0  0
 22 23  1  0  0  0
 23 24  2  0  0  0
 23 25  1  0  0  0
 25 26  1  0  0  0
 25 27  1  0  0  0
 25 28  1  0  0  0
 29 30  1  0  0  0
 29 32  1  0  0  0
 29 33  1  0  0  0
 30 31  1  0  0  0
 35 36  1  0  0  0
 35 50  1  0  0  0
 35 56  1  0  0  0
 36 37  1  0  0  0
 36 41  1  0  0  0
 36 46  1  0  0  0
 37 38  1  0  0  0
 38 39  2  0  0  0
 38 40  1  0  0  0
 40 41  1  0  0  0
 40 44  1  0  0  0
 40 45  1  0  0  0
 41 42  1  0  0  0
 41 43  1  0  0  0
 46 47  1  0  0  0
 46 48  1  0  0  0
 46 49  1  0  0  0
 50 51  1  0  0  0
 50 54  1  0  0  0
 50 55  1  0  0  0
 51 52  1  0  0  0
 51 53  1  0  0  0
 58 59  1  0  0  0
 58 60  1  0  0  0
 58 61  1  0  0  0
 62 63  1  0  0  0
 62 64  1  0  0  0
 62 65  1  0  0  0
 71 72  1  0  0  0
 71 73  1  0  0  0
 71 74  1  0  0  0
M  END
> <Tumorigenic>
none

> <Score>
35.74698

> <Active/Decoy>
active

> <InChI>
InChI=1S/C29H42O5/c1-17(30)33-19-16-21-26(4)12-10-22(31)25(2,3)20(26)9-14-27(21,5)28(6)13-8-18(24(19)28)29(7)15-11-23(32)34-29/h10,12,18-21,24H,8-9,11,13-16H2,1-7H3/t18-,19+,20+,21-,24+,26+,27-,28+,29-/m0/s1

> <Matching Features>
H:14924486185440016873||HBA:14924321692640012300|HBA:14924486112070016868

> <Mol. Index>
179

> <Pharmacophore Match>
Model -1

> <Source Database>
Pharm-Screening-input-NANPDB_After_DataWarror.ldb

> <Pharmacophore-Fit Score>
35.75

> <formula>
C29H42O5

> <Mutagenic>
none

> <Reproductive Effective>
none

> <Irritant>
none

$$$$
hyrtioerectine B
XX    ILIB03122402113D

 32 34  0  0  1  0              1 V2000
    3.0400    1.9579   -3.7538 O   0  0  0  0  0
    3.1716    1.7823   -2.5369 C   0  0  0  0  0
    4.3424    1.4960   -1.9486 O   0  0  0  0  0
    5.0796    1.4565   -2.5940 H   0  0  0  0  0
    2.0341    1.8218   -1.5660 C   0  0  2  0  0
    2.3600    0.9182   -0.4483 N   0  0  0  0  0
    1.3438    0.9395    0.6301 C   0  0  1  0  0
   -0.0280    0.8438    0.0450 C   0  0  0  0  0
   -1.1842    0.5832    0.7233 N   0  0  0  0  0
   -2.2508    0.6016   -0.1507 C   0  0  0  0  0
   -1.7474    0.9038   -1.4215 C   0  0  0  0  0
   -0.3436    1.0658   -1.2784 C   0  0  0  0  0
    0.7103    1.3966   -2.2764 C   0  0  0  0  0
    0.3654    2.2057   -2.9311 H   0  0  0  0  0
    0.8855    0.5197   -2.9124 H   0  0  0  0  0
   -2.6439    0.9863   -2.5046 C   0  0  0  0  0
   -4.0041    0.7630   -2.2706 C   0  0  0  0  0
   -4.8565    0.8489   -3.3386 O   0  0  0  0  0
   -5.7604    0.6759   -3.0265 H   0  0  0  0  0
   -4.4855    0.4637   -1.0000 C   0  0  0  0  0
   -3.6118    0.3778    0.0869 C   0  0  0  0  0
   -3.9805    0.1457    1.0815 H   0  0  0  0  0
   -5.5468    0.2936   -0.8382 H   0  0  0  0  0
   -2.2848    1.2200   -3.5030 H   0  0  0  0  0
   -1.2536    0.3991    1.7140 H   0  0  0  0  0
    1.6471   -0.2060    1.5922 C   0  0  0  0  0
    2.6674   -0.1313    1.9831 H   0  0  0  0  0
    1.5399   -1.1824    1.1059 H   0  0  0  0  0
    0.9668   -0.1892    2.4517 H   0  0  0  0  0
    1.4295    1.8915    1.1688 H   0  0  0  0  0
    3.2628    1.1692   -0.0602 H   0  0  0  0  0
    1.9452    2.8440   -1.1775 H   0  0  0  0  0
  1  2  2  0  0  0
  2  3  1  0  0  0
  2  5  1  0  0  0
  3  4  1  0  0  0
  5  6  1  0  0  0
  5 13  1  0  0  0
  5 32  1  0  0  0
  6  7  1  0  0  0
  6 31  1  0  0  0
  7  8  1  0  0  0
  7 26  1  0  0  0
  7 30  1  0  0  0
  8  9  1  0  0  0
  8 12  2  0  0  0
  9 10  1  0  0  0
  9 25  1  0  0  0
 10 11  2  0  0  0
 10 21  1  0  0  0
 11 12  1  0  0  0
 11 16  1  0  0  0
 12 13  1  0  0  0
 13 14  1  0  0  0
 13 15  1  0  0  0
 16 17  2  0  0  0
 16 24  1  0  0  0
 17 18  1  0  0  0
 17 20  1  0  0  0
 18 19  1  0  0  0
 20 21  2  0  0  0
 20 23  1  0  0  0
 21 22  1  0  0  0
 26 27  1  0  0  0
 26 28  1  0  0  0
 26 29  1  0  0  0
M  END
> <Tumorigenic>
none

> <Score>
35.738213

> <Active/Decoy>
active

> <InChI>
InChI=1S/C13H14N2O3/c1-6-12-9(5-11(14-6)13(17)18)8-4-7(16)2-3-10(8)15-12/h2-4,6,11,14-16H,5H2,1H3,(H,17,18)/t6-,11-/m1/s1

> <Matching Features>
H:14924486185440016873||HBA:14924321692640012300|HBA:14924486112070016868

> <Mol. Index>
813

> <Pharmacophore Match>
Model -1

> <# Confs.>
6

> <Source Database>
Pharm-Screening-input-NANPDB_After_DataWarror.ldb

> <Pharmacophore-Fit Score>
35.74

> <formula>
C13H14N2O3

> <Mutagenic>
none

> <Reproductive Effective>
none

> <Irritant>
none

$$$$
naamidine A
XX    ILIB03122402113D

 55 58  0  0  1  0              1 V2000
   -5.3779    1.0444   -4.0239 O   0  0  0  0  0
   -5.2446    0.9696   -2.8077 C   0  0  0  0  0
   -4.1975    0.3268   -2.1711 N   0  0  0  0  0
   -4.3733    0.4449   -0.8898 C   0  0  0  0  0
   -3.6143   -0.0059    0.1680 N   0  0  0  0  0
   -2.4656   -0.7247    0.1505 C   0  0  0  0  0
   -1.7821   -1.1557   -0.8903 N   0  0  0  0  0
   -0.6730   -1.7957   -0.3968 C   0  0  0  0  0
    0.3060   -2.4208   -1.3048 C   0  0  0  0  0
    1.3217   -1.3473   -1.6028 C   0  0  0  0  0
    2.6935   -1.6640   -1.5676 C   0  0  0  0  0
    3.6603   -0.6895   -1.8393 C   0  0  0  0  0
    3.2778    0.6146   -2.1369 C   0  0  0  0  0
    4.1196    1.6507   -2.4270 O   0  0  0  0  0
    5.5071    1.3278   -2.3992 C   0  0  0  0  0
    5.8185    1.0028   -1.4013 H   0  0  0  0  0
    5.7521    0.5715   -3.1539 H   0  0  0  0  0
    6.0665    2.2365   -2.6443 H   0  0  0  0  0
    1.9134    0.9358   -2.1734 C   0  0  0  0  0
    0.9495   -0.0382   -1.9031 C   0  0  0  0  0
   -0.1014    0.2373   -1.9403 H   0  0  0  0  0
    1.5914    1.9474   -2.4095 H   0  0  0  0  0
    4.7042   -0.9859   -1.8061 H   0  0  0  0  0
    3.0207   -2.6754   -1.3356 H   0  0  0  0  0
   -0.1842   -2.7376   -2.2364 H   0  0  0  0  0
    0.7788   -3.2958   -0.8695 H   0  0  0  0  0
   -0.6965   -1.7923    1.0007 C   0  0  0  0  0
   -1.8366   -1.0882    1.3260 N   0  0  0  0  0
   -2.3130   -0.7762    2.6559 C   0  0  0  0  0
   -3.2843   -1.2462    2.7966 H   0  0  0  0  0
   -1.6158   -1.1366    3.4132 H   0  0  0  0  0
   -2.3931    0.3149    2.7431 H   0  0  0  0  0
    0.2548   -2.3812    1.9830 C   0  0  0  0  0
    1.3578   -1.4373    2.3737 C   0  0  0  0  0
    2.3364   -1.8414    3.2914 C   0  0  0  0  0
    3.3600   -0.9716    3.6710 C   0  0  0  0  0
    3.4069    0.3107    3.1336 C   0  0  0  0  0
    4.4180    1.1426    3.5266 O   0  0  0  0  0
    4.3088    1.9957    3.0722 H   0  0  0  0  0
    2.4467    0.7339    2.2196 C   0  0  0  0  0
    1.4251   -0.1393    1.8423 C   0  0  0  0  0
    0.6776    0.2031    1.1308 H   0  0  0  0  0
    2.4803    1.7340    1.7982 H   0  0  0  0  0
    4.1114   -1.3015    4.3842 H   0  0  0  0  0
    2.3101   -2.8406    3.7207 H   0  0  0  0  0
   -0.2869   -2.7054    2.8818 H   0  0  0  0  0
    0.6975   -3.2954    1.5652 H   0  0  0  0  0
   -3.9834    0.2056    1.0934 H   0  0  0  0  0
   -5.6361    1.2234   -0.6320 C   0  0  0  0  0
   -6.0966    1.5024   -1.8736 N   0  0  0  0  0
   -7.2983    2.2533   -2.1783 C   0  0  0  0  0
   -7.8799    2.4283   -1.2701 H   0  0  0  0  0
   -7.0027    3.2089   -2.6189 H   0  0  0  0  0
   -7.8887    1.7000   -2.9130 H   0  0  0  0  0
   -6.0443    1.4794    0.4790 O   0  0  0  0  0
  1  2  2  0  0  0
  2  3  1  0  0  0
  2 50  1  0  0  0
  3  4  2  0  0  0
  4  5  1  0  0  0
  4 49  1  0  0  0
  5  6  1  0  0  0
  5 48  1  0  0  0
  6  7  2  0  0  0
  6 28  1  0  0  0
  7  8  1  0  0  0
  8  9  1  0  0  0
  8 27  2  0  0  0
  9 10  1  0  0  0
  9 25  1  0  0  0
  9 26  1  0  0  0
 10 11  2  0  0  0
 10 20  1  0  0  0
 11 12  1  0  0  0
 11 24  1  0  0  0
 12 13  2  0  0  0
 12 23  1  0  0  0
 13 14  1  0  0  0
 13 19  1  0  0  0
 14 15  1  0  0  0
 15 16  1  0  0  0
 15 17  1  0  0  0
 15 18  1  0  0  0
 19 20  2  0  0  0
 19 22  1  0  0  0
 20 21  1  0  0  0
 27 28  1  0  0  0
 27 33  1  0  0  0
 28 29  1  0  0  0
 29 30  1  0  0  0
 29 31  1  0  0  0
 29 32  1  0  0  0
 33 34  1  0  0  0
 33 46  1  0  0  0
 33 47  1  0  0  0
 34 35  2  0  0  0
 34 41  1  0  0  0
 35 36  1  0  0  0
 35 45  1  0  0  0
 36 37  2  0  0  0
 36 44  1  0  0  0
 37 38  1  0  0  0
 37 40  1  0  0  0
 38 39  1  0  0  0
 40 41  2  0  0  0
 40 43  1  0  0  0
 41 42  1  0  0  0
 49 50  1  0  0  0
 49 55  2  0  0  0
 50 51  1  0  0  0
 51 52  1  0  0  0
 51 53  1  0  0  0
 51 54  1  0  0  0
M  END
> <Tumorigenic>
none

> <Score>
35.727154

> <Active/Decoy>
active

> <InChI>
InChI=1S/C23H23N5O4/c1-27-19(13-15-4-8-16(29)9-5-15)18(12-14-6-10-17(32-3)11-7-14)24-22(27)25-20-21(30)28(2)23(31)26-20/h4-11,29H,12-13H2,1-3H3,(H,24,25,26,31)

> <Matching Features>
H:14924486185440016873||HBA:14924321692640012300|HBA:14924486112070016868

> <Mol. Index>
606

> <Pharmacophore Match>
Model -1

> <# Confs.>
25

> <Source Database>
Pharm-Screening-input-NANPDB_After_DataWarror.ldb

> <Pharmacophore-Fit Score>
35.73

> <formula>
C23H23N5O4

> <Mutagenic>
none

> <Reproductive Effective>
none

> <Irritant>
none

$$$$
assafoetidnol B
XX    ILIB03122402113D

 65 68  0  0  1  0              1 V2000
   -5.8602    1.0229   -4.1289 O   0  0  0  0  0
   -5.1779    0.4928   -3.2560 C   0  0  0  0  0
   -4.4334    1.2450   -2.3497 O   0  0  0  0  0
   -3.6408    0.6311   -1.3570 C   0  0  0  0  0
   -3.5785   -0.7556   -1.2628 C   0  0  0  0  0
   -2.7809   -1.3240   -0.2688 C   0  0  0  0  0
   -2.0661   -0.5033    0.6080 C   0  0  0  0  0
   -2.1365    0.8922    0.5032 C   0  0  0  0  0
   -2.9334    1.4656   -0.4900 C   0  0  0  0  0
   -3.0214    2.5406   -0.6097 H   0  0  0  0  0
   -1.3910    1.5799    1.4179 O   0  0  0  0  0
   -1.4319    3.0052    1.3248 C   0  0  0  0  0
   -0.5635    3.5844    2.4225 C   0  0  1  0  0
   -1.0577    3.1352    3.7847 C   0  0  0  0  0
   -1.6984    3.9965    4.6039 C   0  0  0  0  0
   -2.0648    3.6990    5.5793 H   0  0  0  0  0
   -1.8744    5.0264    4.3125 H   0  0  0  0  0
   -0.7744    1.6987    4.1216 C   0  0  2  0  0
   -1.1449    1.4012    5.4702 O   0  0  0  0  0
   -0.9367    0.4646    5.6296 H   0  0  0  0  0
    0.7092    1.3270    3.9331 C   0  0  1  0  0
    0.7876   -0.0907    4.0892 O   0  0  0  0  0
    0.2639   -0.4993    3.3792 H   0  0  0  0  0
    1.2776    1.7716    2.5511 C   0  0  2  0  0
    2.7564    1.2901    2.2161 C   0  0  0  0  0
    3.1906    1.8335    0.8156 C   0  0  1  0  0
    2.4312    1.1624   -0.2009 O   0  0  0  0  0
    3.0353    1.0050   -1.3995 C   0  0  0  0  0
    4.1619    1.3779   -1.7006 O   0  0  0  0  0
    2.1164    0.2786   -2.3337 C   0  0  0  0  0
    2.5516    0.2702   -3.3373 H   0  0  0  0  0
    1.1518    0.7890   -2.3831 H   0  0  0  0  0
    1.9878   -0.7533   -1.9958 H   0  0  0  0  0
    2.9677    3.3370    0.6480 C   0  0  0  0  0
    1.5094    3.7188    0.8995 C   0  0  0  0  0
    0.9949    3.3099    2.3014 C   0  0  1  0  0
    1.6847    4.2377    3.3459 C   0  0  0  0  0
    1.3059    5.2635    3.2571 H   0  0  0  0  0
    2.7618    4.3207    3.2119 H   0  0  0  0  0
    1.5100    3.9224    4.3779 H   0  0  0  0  0
    1.3924    4.8001    0.7557 H   0  0  0  0  0
    0.9087    3.2390    0.1198 H   0  0  0  0  0
    3.6417    3.9010    1.2987 H   0  0  0  0  0
    3.2191    3.6319   -0.3783 H   0  0  0  0  0
    4.2565    1.6177    0.6613 H   0  0  0  0  0
    3.7981    1.6994    3.2774 C   0  0  0  0  0
    3.4931    1.3975    4.2837 H   0  0  0  0  0
    4.0077    2.7665    3.2929 H   0  0  0  0  0
    4.7602    1.2107    3.0779 H   0  0  0  0  0
    2.8307   -0.2612    2.1340 C   0  0  0  0  0
    1.9896   -0.6819    1.5734 H   0  0  0  0  0
    2.8509   -0.7273    3.1234 H   0  0  0  0  0
    3.7522   -0.5817    1.6319 H   0  0  0  0  0
    0.6699    1.2307    1.8116 H   0  0  0  0  0
    1.2993    1.7503    4.7511 H   0  0  0  0  0
   -1.4026    1.0611    3.4874 H   0  0  0  0  0
   -0.6821    4.6886    2.3492 H   0  0  0  0  0
   -1.1046    3.3498    0.3474 H   0  0  0  0  0
   -2.4749    3.3586    1.4743 H   0  0  0  0  0
   -1.4506   -0.9632    1.3767 H   0  0  0  0  0
   -2.7061   -2.4039   -0.1631 H   0  0  0  0  0
   -4.3459   -1.5593   -2.1990 C   0  0  0  0  0
   -5.0943   -0.9697   -3.1324 C   0  0  0  0  0
   -5.6715   -1.5629   -3.8323 H   0  0  0  0  0
   -4.3008   -2.6401   -2.1232 H   0  0  0  0  0
  1  2  2  0  0  0
  2  3  1  0  0  0
  2 63  1  0  0  0
  3  4  1  0  0  0
  4  5  2  0  0  0
  4  9  1  0  0  0
  5  6  1  0  0  0
  5 62  1  0  0  0
  6  7  2  0  0  0
  6 61  1  0  0  0
  7  8  1  0  0  0
  7 60  1  0  0  0
  8  9  2  0  0  0
  8 11  1  0  0  0
  9 10  1  0  0  0
 11 12  1  0  0  0
 12 13  1  0  0  0
 12 58  1  0  0  0
 12 59  1  0  0  0
 13 14  1  0  0  0
 13 36  1  0  0  0
 13 57  1  0  0  0
 14 15  2  0  0  0
 14 18  1  0  0  0
 15 16  1  0  0  0
 15 17  1  0  0  0
 18 19  1  0  0  0
 18 21  1  0  0  0
 18 56  1  0  0  0
 19 20  1  0  0  0
 21 22  1  0  0  0
 21 24  1  0  0  0
 21 55  1  0  0  0
 22 23  1  0  0  0
 24 25  1  0  0  0
 24 36  1  0  0  0
 24 54  1  0  0  0
 25 26  1  0  0  0
 25 46  1  0  0  0
 25 50  1  0  0  0
 26 27  1  0  0  0
 26 34  1  0  0  0
 26 45  1  0  0  0
 27 28  1  0  0  0
 28 29  2  0  0  0
 28 30  1  0  0  0
 30 31  1  0  0  0
 30 32  1  0  0  0
 30 33  1  0  0  0
 34 35  1  0  0  0
 34 43  1  0  0  0
 34 44  1  0  0  0
 35 36  1  0  0  0
 35 41  1  0  0  0
 35 42  1  0  0  0
 36 37  1  0  0  0
 37 38  1  0  0  0
 37 39  1  0  0  0
 37 40  1  0  0  0
 46 47  1  0  0  0
 46 48  1  0  0  0
 46 49  1  0  0  0
 50 51  1  0  0  0
 50 52  1  0  0  0
 50 53  1  0  0  0
 62 63  2  0  0  0
 62 65  1  0  0  0
 63 64  1  0  0  0
M  END
> <Tumorigenic>
none

> <Score>
35.709

> <Active/Decoy>
active

> <InChI>
InChI=1S/C26H32O7/c1-14-18(13-31-17-8-6-16-7-9-21(28)33-19(16)12-17)26(5)11-10-20(32-15(2)27)25(3,4)24(26)23(30)22(14)29/h6-9,12,18,20,22-24,29-30H,1,10-11,13H2,2-5H3/t18-,20-,22-,23+,24+,26-/m0/s1

> <Matching Features>
H:14924486185440016873||HBA:14924321692640012300|HBA:14924486112070016868

> <Mol. Index>
909

> <Pharmacophore Match>
Model -1

> <# Confs.>
25

> <Source Database>
Pharm-Screening-input-NANPDB_After_DataWarror.ldb

> <Pharmacophore-Fit Score>
35.71

> <formula>
C26H32O7

> <Mutagenic>
none

> <Reproductive Effective>
none

> <Irritant>
none

$$$$
corchoionoside C
XX    ILIB03122402113D

 57 58  0  0  1  0              1 V2000
    4.3770    1.3398   -1.5291 O   0  0  0  0  0
    3.4791    0.5266   -1.3188 C   0  0  0  0  0
    2.1741    0.6841   -2.0007 C   0  0  0  0  0
    1.1699   -0.1872   -1.8043 C   0  0  0  0  0
    1.2772   -1.3689   -0.8319 C   0  0  1  0  0
    1.6903   -2.4985   -1.6265 O   0  0  0  0  0
    1.0632   -2.6095   -2.3609 H   0  0  0  0  0
    2.3909   -1.1268    0.2618 C   0  0  0  0  0
    3.6931   -0.6795   -0.4373 C   0  0  0  0  0
    4.4543   -0.4216    0.3091 H   0  0  0  0  0
    4.1059   -1.4783   -1.0648 H   0  0  0  0  0
    2.7097   -2.4226    1.0440 C   0  0  0  0  0
    3.0522   -3.2248    0.3831 H   0  0  0  0  0
    1.8371   -2.7883    1.5945 H   0  0  0  0  0
    3.5061   -2.2486    1.7797 H   0  0  0  0  0
    1.9869   -0.0495    1.3005 C   0  0  0  0  0
    1.6715    0.8868    0.8315 H   0  0  0  0  0
    2.8262    0.1847    1.9654 H   0  0  0  0  0
    1.1664   -0.3925    1.9401 H   0  0  0  0  0
   -0.0431   -1.6848   -0.1865 C   0  0  0  0  0
   -0.7385   -2.8192   -0.3187 C   0  0  0  0  0
   -2.0517   -3.0756    0.3408 C   0  0  1  0  0
   -3.0934   -3.3302   -0.5848 O   0  0  0  0  0
   -3.3229   -2.2592   -1.4788 C   0  0  2  0  0
   -3.6818   -1.0723   -0.7699 O   0  0  0  0  0
   -3.8941    0.0468   -1.6368 C   0  0  1  0  0
   -5.0873   -0.2328   -2.5545 C   0  0  1  0  0
   -5.2310    0.8503   -3.4678 O   0  0  0  0  0
   -6.0506    0.7060   -3.9703 H   0  0  0  0  0
   -4.8771   -1.5312   -3.3337 C   0  0  2  0  0
   -6.0983   -1.9030   -3.9764 O   0  0  0  0  0
   -6.3069   -1.2163   -4.6330 H   0  0  0  0  0
   -4.4644   -2.6738   -2.4094 C   0  0  1  0  0
   -4.0416   -3.7726   -3.2166 O   0  0  0  0  0
   -3.7585   -4.4832   -2.6165 H   0  0  0  0  0
   -5.3294   -3.0176   -1.8286 H   0  0  0  0  0
   -4.1356   -1.3945   -4.1310 H   0  0  0  0  0
   -6.0113   -0.3009   -1.9667 H   0  0  0  0  0
   -4.1330    1.2637   -0.7596 C   0  0  0  0  0
   -3.0143    1.5096    0.0783 O   0  0  0  0  0
   -2.8797    0.7173    0.6252 H   0  0  0  0  0
   -5.0203    1.1228   -0.1326 H   0  0  0  0  0
   -4.3151    2.1566   -1.3680 H   0  0  0  0  0
   -2.9812    0.2186   -2.2226 H   0  0  0  0  0
   -2.4013   -2.0932   -2.0542 H   0  0  0  0  0
   -1.9392   -4.3098    1.2525 C   0  0  0  0  0
   -1.6984   -5.2076    0.6720 H   0  0  0  0  0
   -1.1736   -4.1769    2.0234 H   0  0  0  0  0
   -2.8973   -4.5049    1.7466 H   0  0  0  0  0
   -2.3155   -2.2188    0.9742 H   0  0  0  0  0
   -0.3426   -3.6353   -0.9270 H   0  0  0  0  0
   -0.4667   -0.8941    0.4306 H   0  0  0  0  0
   -0.0939   -0.0375   -2.6149 C   0  0  0  0  0
   -0.0069    0.7496   -3.3708 H   0  0  0  0  0
   -0.9405    0.2235   -1.9724 H   0  0  0  0  0
   -0.3254   -0.9667   -3.1446 H   0  0  0  0  0
    2.0863    1.5131   -2.6955 H   0  0  0  0  0
  1  2  2  0  0  0
  2  3  1  0  0  0
  2  9  1  0  0  0
  3  4  2  0  0  0
  3 57  1  0  0  0
  4  5  1  0  0  0
  4 53  1  0  0  0
  5  6  1  0  0  0
  5  8  1  0  0  0
  5 20  1  0  0  0
  6  7  1  0  0  0
  8  9  1  0  0  0
  8 12  1  0  0  0
  8 16  1  0  0  0
  9 10  1  0  0  0
  9 11  1  0  0  0
 12 13  1  0  0  0
 12 14  1  0  0  0
 12 15  1  0  0  0
 16 17  1  0  0  0
 16 18  1  0  0  0
 16 19  1  0  0  0
 20 21  2  0  0  0
 20 52  1  0  0  0
 21 22  1  0  0  0
 21 51  1  0  0  0
 22 23  1  0  0  0
 22 46  1  0  0  0
 22 50  1  0  0  0
 23 24  1  0  0  0
 24 25  1  0  0  0
 24 33  1  0  0  0
 24 45  1  0  0  0
 25 26  1  0  0  0
 26 27  1  0  0  0
 26 39  1  0  0  0
 26 44  1  0  0  0
 27 28  1  0  0  0
 27 30  1  0  0  0
 27 38  1  0  0  0
 28 29  1  0  0  0
 30 31  1  0  0  0
 30 33  1  0  0  0
 30 37  1  0  0  0
 31 32  1  0  0  0
 33 34  1  0  0  0
 33 36  1  0  0  0
 34 35  1  0  0  0
 39 40  1  0  0  0
 39 42  1  0  0  0
 39 43  1  0  0  0
 40 41  1  0  0  0
 46 47  1  0  0  0
 46 48  1  0  0  0
 46 49  1  0  0  0
 53 54  1  0  0  0
 53 55  1  0  0  0
 53 56  1  0  0  0
M  END
> <Tumorigenic>
none

> <Score>
35.702312

> <Active/Decoy>
active

> <InChI>
InChI=1S/C19H30O8/c1-10-7-12(21)8-18(3,4)19(10,25)6-5-11(2)26-17-16(24)15(23)14(22)13(9-20)27-17/h5-7,11,13-17,20,22-25H,8-9H2,1-4H3/b6-5+/t11-,13+,14+,15-,16+,17+,19+/m0/s1

> <Matching Features>
H:14924486185440016873||HBA:14924321692640012300|HBA:14924486112070016868

> <Mol. Index>
726

> <Pharmacophore Match>
Model -1

> <# Confs.>
25

> <Source Database>
Pharm-Screening-input-NANPDB_After_DataWarror.ldb

> <Pharmacophore-Fit Score>
35.7

> <formula>
C19H30O8

> <Mutagenic>
none

> <Reproductive Effective>
none

> <Irritant>
none

$$$$
lancerodiol p-hydroxybenzoate
XX    ILIB03122402113D

 55 57  0  0  1  0              1 V2000
    4.3950    1.7182   -2.5113 O   0  0  0  0  0
    3.3018    1.1980   -2.2840 C   0  0  0  0  0
    3.1205   -0.2696   -2.4768 C   0  0  0  0  0
    2.1601   -0.9708   -1.8566 C   0  0  0  0  0
    1.1502   -0.5659   -0.8156 C   0  0  2  0  0
   -0.0507   -0.2191   -1.5097 O   0  0  0  0  0
   -1.2238   -0.6150   -0.9592 C   0  0  0  0  0
   -1.3681   -1.2595    0.0676 O   0  0  0  0  0
   -2.3514   -0.1716   -1.8002 C   0  0  0  0  0
   -3.6495   -0.5069   -1.3935 C   0  0  0  0  0
   -4.7505   -0.1121   -2.1557 C   0  0  0  0  0
   -4.5510    0.6252   -3.3194 C   0  0  0  0  0
   -5.6090    1.0361   -4.0796 O   0  0  0  0  0
   -6.4278    0.7228   -3.6604 H   0  0  0  0  0
   -3.2663    0.9635   -3.7355 C   0  0  0  0  0
   -2.1640    0.5625   -2.9785 C   0  0  0  0  0
   -1.1742    0.8424   -3.3261 H   0  0  0  0  0
   -3.1141    1.5375   -4.6454 H   0  0  0  0  0
   -5.7513   -0.3774   -1.8281 H   0  0  0  0  0
   -3.8234   -1.0990   -0.4974 H   0  0  0  0  0
    1.5185    0.5463    0.2101 C   0  0  1  0  0
    2.7071    0.2835    1.1836 C   0  0  2  0  0
    3.8615   -0.1653    0.4768 O   0  0  0  0  0
    4.6119   -0.1805    1.0941 H   0  0  0  0  0
    2.3817   -0.7107    2.3139 C   0  0  0  0  0
    3.5448   -0.8310    3.3050 C   0  0  0  0  0
    3.2920   -1.5200    4.1182 H   0  0  0  0  0
    4.4450   -1.2179    2.8176 H   0  0  0  0  0
    3.7877    0.1407    3.7485 H   0  0  0  0  0
    1.1126   -0.3029    3.0678 C   0  0  0  0  0
    0.9013   -1.0057    3.8808 H   0  0  0  0  0
    1.2148    0.6962    3.5048 H   0  0  0  0  0
    0.2399   -0.2972    2.4075 H   0  0  0  0  0
    2.2088   -1.7034    1.8776 H   0  0  0  0  0
    2.9844    1.6944    1.7244 C   0  0  0  0  0
    2.9109    2.5763    0.4849 C   0  0  0  0  0
    1.7701    1.9839   -0.3787 C   0  0  1  0  0
    2.1163    2.0409   -1.8727 C   0  0  0  0  0
    1.2624    1.7623   -2.5019 H   0  0  0  0  0
    2.3478    3.0761   -2.1598 H   0  0  0  0  0
    0.5017    2.8452   -0.1731 C   0  0  0  0  0
   -0.3536    2.4302   -0.7172 H   0  0  0  0  0
    0.6579    3.8695   -0.5310 H   0  0  0  0  0
    0.2262    2.9078    0.8859 H   0  0  0  0  0
    2.7435    3.6248    0.7561 H   0  0  0  0  0
    3.8747    2.5376   -0.0343 H   0  0  0  0  0
    2.2178    1.9991    2.4466 H   0  0  0  0  0
    3.9673    1.7877    2.1967 H   0  0  0  0  0
    0.6334    0.6407    0.8487 H   0  0  0  0  0
    0.9508   -1.4662   -0.2353 H   0  0  0  0  0
    2.0925   -2.0310   -2.1051 H   0  0  0  0  0
    4.0874   -0.9231   -3.4224 C   0  0  0  0  0
    5.1095   -0.8468   -3.0385 H   0  0  0  0  0
    4.0460   -0.4401   -4.4039 H   0  0  0  0  0
    3.8679   -1.9860   -3.5686 H   0  0  0  0  0
  1  2  2  0  0  0
  2  3  1  0  0  0
  2 38  1  0  0  0
  3  4  2  0  0  0
  3 52  1  0  0  0
  4  5  1  0  0  0
  4 51  1  0  0  0
  5  6  1  0  0  0
  5 21  1  0  0  0
  5 50  1  0  0  0
  6  7  1  0  0  0
  7  8  2  0  0  0
  7  9  1  0  0  0
  9 10  2  0  0  0
  9 16  1  0  0  0
 10 11  1  0  0  0
 10 20  1  0  0  0
 11 12  2  0  0  0
 11 19  1  0  0  0
 12 13  1  0  0  0
 12 15  1  0  0  0
 13 14  1  0  0  0
 15 16  2  0  0  0
 15 18  1  0  0  0
 16 17  1  0  0  0
 21 22  1  0  0  0
 21 37  1  0  0  0
 21 49  1  0  0  0
 22 23  1  0  0  0
 22 25  1  0  0  0
 22 35  1  0  0  0
 23 24  1  0  0  0
 25 26  1  0  0  0
 25 30  1  0  0  0
 25 34  1  0  0  0
 26 27  1  0  0  0
 26 28  1  0  0  0
 26 29  1  0  0  0
 30 31  1  0  0  0
 30 32  1  0  0  0
 30 33  1  0  0  0
 35 36  1  0  0  0
 35 47  1  0  0  0
 35 48  1  0  0  0
 36 37  1  0  0  0
 36 45  1  0  0  0
 36 46  1  0  0  0
 37 38  1  0  0  0
 37 41  1  0  0  0
 38 39  1  0  0  0
 38 40  1  0  0  0
 41 42  1  0  0  0
 41 43  1  0  0  0
 41 44  1  0  0  0
 52 53  1  0  0  0
 52 54  1  0  0  0
 52 55  1  0  0  0
M  END
> <Tumorigenic>
none

> <Score>
35.685215

> <Active/Decoy>
active

> <InChI>
InChI=1S/C22H28O5/c1-13(2)22(26)10-9-21(4)12-17(24)14(3)11-18(19(21)22)27-20(25)15-5-7-16(23)8-6-15/h5-8,11,13,18-19,23,26H,9-10,12H2,1-4H3/t18-,19+,21-,22+/m0/s1

> <Matching Features>
H:14924486185440016873||HBA:14924321692640012300|HBA:14924486112070016868

> <Mol. Index>
902

> <Pharmacophore Match>
Model -1

> <# Confs.>
25

> <Source Database>
Pharm-Screening-input-NANPDB_After_DataWarror.ldb

> <Pharmacophore-Fit Score>
35.69

> <formula>
C22H28O5

> <Mutagenic>
none

> <Reproductive Effective>
none

> <Irritant>
none

$$$$
lancerodiol-p-methoxybenzoate
XX    ILIB03122402113D

 58 60  0  0  1  0              1 V2000
    4.3959    1.7204   -2.5167 O   0  0  0  0  0
    3.3030    1.1996   -2.2906 C   0  0  0  0  0
    3.1199   -0.2661   -2.4910 C   0  0  0  0  0
    2.1604   -0.9699   -1.8698 C   0  0  0  0  0
    1.1650   -0.5672   -0.8246 C   0  0  2  0  0
   -0.0464   -0.2234   -1.5060 O   0  0  0  0  0
   -1.1999   -0.6457   -0.9504 C   0  0  0  0  0
   -1.3305   -1.2768    0.0794 O   0  0  0  0  0
   -2.3478   -0.1877   -1.7698 C   0  0  0  0  0
   -2.1847    0.5526   -2.9442 C   0  0  0  0  0
   -3.3035    0.9430   -3.6847 C   0  0  0  0  0
   -4.5924    0.5952   -3.2696 C   0  0  0  0  0
   -5.6037    1.0358   -4.0767 O   0  0  0  0  0
   -6.9173    0.6883   -3.6510 C   0  0  0  0  0
   -7.1530    1.1415   -2.6822 H   0  0  0  0  0
   -7.0491   -0.3990   -3.6185 H   0  0  0  0  0
   -7.6229    1.0875   -4.3860 H   0  0  0  0  0
   -4.7546   -0.1472   -2.0971 C   0  0  0  0  0
   -3.6365   -0.5376   -1.3522 C   0  0  0  0  0
   -3.7960   -1.1125   -0.4429 H   0  0  0  0  0
   -5.7354   -0.4374   -1.7308 H   0  0  0  0  0
   -3.1587    1.5139   -4.5983 H   0  0  0  0  0
   -1.2026    0.8419   -3.3066 H   0  0  0  0  0
    1.5286    0.5435    0.2015 C   0  0  1  0  0
    2.7112    0.2691    1.1821 C   0  0  2  0  0
    3.8583   -0.1955    0.4746 O   0  0  0  0  0
    4.6072   -0.2229    1.0916 H   0  0  0  0  0
    2.3751   -0.7150    2.3174 C   0  0  0  0  0
    3.5367   -0.8446    3.3075 C   0  0  0  0  0
    4.4404   -1.2220    2.8188 H   0  0  0  0  0
    3.7764    0.1207    3.7663 H   0  0  0  0  0
    3.2852   -1.5457    4.1109 H   0  0  0  0  0
    1.1120   -0.2919    3.0736 C   0  0  0  0  0
    0.2375   -0.2823    2.4163 H   0  0  0  0  0
    0.8970   -0.9879    3.8914 H   0  0  0  0  0
    1.2247    0.7091    3.5042 H   0  0  0  0  0
    2.1906   -1.7076    1.8862 H   0  0  0  0  0
    3.0056    1.6769    1.7188 C   0  0  0  0  0
    2.9322    2.5617    0.4820 C   0  0  0  0  0
    1.7822    1.9787   -0.3771 C   0  0  1  0  0
    2.1191    2.0405   -1.8723 C   0  0  0  0  0
    1.2619    1.7634   -2.4976 H   0  0  0  0  0
    2.3487    3.0763   -2.1580 H   0  0  0  0  0
    0.5207    2.8479   -0.1606 C   0  0  0  0  0
    0.6847    3.8740   -0.5089 H   0  0  0  0  0
    0.2470    2.9030    0.8989 H   0  0  0  0  0
   -0.3382    2.4448   -0.7077 H   0  0  0  0  0
    2.7730    3.6090    0.7556 H   0  0  0  0  0
    3.8926    2.5169   -0.0416 H   0  0  0  0  0
    3.9932    1.7603    2.1844 H   0  0  0  0  0
    2.2476    1.9897    2.4479 H   0  0  0  0  0
    0.6385    0.6357    0.8443 H   0  0  0  0  0
    0.9589   -1.4724   -0.2453 H   0  0  0  0  0
    2.0902   -2.0281   -2.1243 H   0  0  0  0  0
    4.0817   -0.9122   -3.4450 C   0  0  0  0  0
    4.0296   -0.4260   -4.4251 H   0  0  0  0  0
    5.1082   -0.8282   -3.0698 H   0  0  0  0  0
    3.8702   -1.9750   -3.5924 H   0  0  0  0  0
  1  2  2  0  0  0
  2  3  1  0  0  0
  2 41  1  0  0  0
  3  4  2  0  0  0
  3 55  1  0  0  0
  4  5  1  0  0  0
  4 54  1  0  0  0
  5  6  1  0  0  0
  5 24  1  0  0  0
  5 53  1  0  0  0
  6  7  1  0  0  0
  7  8  2  0  0  0
  7  9  1  0  0  0
  9 10  2  0  0  0
  9 19  1  0  0  0
 10 11  1  0  0  0
 10 23  1  0  0  0
 11 12  2  0  0  0
 11 22  1  0  0  0
 12 13  1  0  0  0
 12 18  1  0  0  0
 13 14  1  0  0  0
 14 15  1  0  0  0
 14 16  1  0  0  0
 14 17  1  0  0  0
 18 19  2  0  0  0
 18 21  1  0  0  0
 19 20  1  0  0  0
 24 25  1  0  0  0
 24 40  1  0  0  0
 24 52  1  0  0  0
 25 26  1  0  0  0
 25 28  1  0  0  0
 25 38  1  0  0  0
 26 27  1  0  0  0
 28 29  1  0  0  0
 28 33  1  0  0  0
 28 37  1  0  0  0
 29 30  1  0  0  0
 29 31  1  0  0  0
 29 32  1  0  0  0
 33 34  1  0  0  0
 33 35  1  0  0  0
 33 36  1  0  0  0
 38 39  1  0  0  0
 38 50  1  0  0  0
 38 51  1  0  0  0
 39 40  1  0  0  0
 39 48  1  0  0  0
 39 49  1  0  0  0
 40 41  1  0  0  0
 40 44  1  0  0  0
 41 42  1  0  0  0
 41 43  1  0  0  0
 44 45  1  0  0  0
 44 46  1  0  0  0
 44 47  1  0  0  0
 55 56  1  0  0  0
 55 57  1  0  0  0
 55 58  1  0  0  0
M  END
> <Tumorigenic>
none

> <Score>
35.681618

> <Active/Decoy>
active

> <InChI>
InChI=1S/C23H30O5/c1-14(2)23(26)11-10-22(4)13-18(24)15(3)12-19(20(22)23)28-21(25)16-6-8-17(27-5)9-7-16/h6-9,12,14,19-20,26H,10-11,13H2,1-5H3/t19-,20+,22-,23+/m0/s1

> <Matching Features>
H:14924486185440016873||HBA:14924321692640012300|HBA:14924486112070016868

> <Mol. Index>
947

> <Pharmacophore Match>
Model -1

> <# Confs.>
25

> <Source Database>
Pharm-Screening-input-NANPDB_After_DataWarror.ldb

> <Pharmacophore-Fit Score>
35.68

> <formula>
C23H30O5

> <Mutagenic>
none

> <Reproductive Effective>
none

> <Irritant>
none

$$$$
usneoidone E
XX    ILIB03122402113D

 71 72  0  0  1  0              1 V2000
    5.8093   -1.1851   -1.2500 O   0  0  0  0  0
    5.2732   -0.4188   -2.0482 C   0  0  0  0  0
    4.8195   -0.9368   -3.3509 C   0  0  0  0  0
    4.1626   -0.1154   -4.1718 C   0  0  0  0  0
    3.7903    1.3067   -3.8483 C   0  0  0  0  0
    4.5062    2.2894   -4.7805 C   0  0  0  0  0
    4.3186    3.3252   -4.4731 H   0  0  0  0  0
    4.1782    2.1712   -5.8190 H   0  0  0  0  0
    5.5911    2.1524   -4.7711 H   0  0  0  0  0
    2.2745    1.4711   -4.0431 C   0  0  0  0  0
    1.9621    1.2388   -5.0673 H   0  0  0  0  0
    1.9612    2.4966   -3.8124 H   0  0  0  0  0
    1.7185    0.8195   -3.3573 H   0  0  0  0  0
    4.0211    1.6583   -2.4799 O   0  0  0  0  0
    5.1164    1.0807   -1.7821 C   0  0  1  0  0
    4.8349    1.3149   -0.2964 C   0  0  0  0  0
    3.5442    0.7039    0.2574 C   0  0  0  0  0
    3.2617    0.9390    1.7474 C   0  0  0  0  0
    1.9846    0.3188    2.2369 C   0  0  0  0  0
    0.7656    0.9135    2.2424 C   0  0  0  0  0
    0.4801    2.2641    1.7097 C   0  0  0  0  0
    1.3085    3.1539    1.7120 O   0  0  0  0  0
   -0.9239    2.4363    1.1259 C   0  0  0  0  0
   -0.8441    2.8329   -0.3126 C   0  0  0  0  0
   -0.8160    1.9699   -1.3464 C   0  0  0  0  0
   -0.8056    0.4771   -1.2893 C   0  0  0  0  0
   -1.9869   -0.1393   -1.9840 C   0  0  0  0  0
   -2.1763   -1.5325   -2.0510 C   0  0  0  0  0
   -1.2416   -2.3631   -1.5026 O   0  0  0  0  0
   -0.5384   -1.8312   -0.3816 C   0  0  0  0  0
    0.0324   -0.9395   -0.6616 H   0  0  0  0  0
    0.1721   -2.5908   -0.0438 H   0  0  0  0  0
   -1.2198   -1.6172    0.4487 H   0  0  0  0  0
   -3.2734   -2.0909   -2.7354 C   0  0  0  0  0
   -4.2194   -1.2318   -3.3070 C   0  0  0  0  0
   -4.0527    0.1487   -3.2184 C   0  0  0  0  0
   -2.9506    0.6962   -2.5675 C   0  0  0  0  0
   -2.8391    1.7762   -2.5150 H   0  0  0  0  0
   -4.9636    1.0026   -3.7759 O   0  0  0  0  0
   -5.6595    0.4747   -4.2068 H   0  0  0  0  0
   -5.0847   -1.6413   -3.8248 H   0  0  0  0  0
   -3.4588   -3.5782   -2.8424 C   0  0  0  0  0
   -2.5348   -4.0561   -3.1851 H   0  0  0  0  0
   -4.2411   -3.8316   -3.5626 H   0  0  0  0  0
   -3.7443   -3.9938   -1.8715 H   0  0  0  0  0
    0.1187    0.0747   -1.7242 H   0  0  0  0  0
   -0.7980    0.1635   -0.2373 H   0  0  0  0  0
   -0.7705    2.3789   -2.3553 H   0  0  0  0  0
   -0.8161    4.3184   -0.5643 C   0  0  0  0  0
   -1.7294    4.7848   -0.1791 H   0  0  0  0  0
   -0.7453    4.5587   -1.6301 H   0  0  0  0  0
    0.0451    4.7749   -0.0666 H   0  0  0  0  0
   -1.4481    3.2010    1.7275 H   0  0  0  0  0
   -1.4644    1.4874    1.2043 H   0  0  0  0  0
   -0.0781    0.3810    2.6653 H   0  0  0  0  0
    2.1357   -1.0814    2.7756 C   0  0  0  0  0
    2.5094   -1.7550    1.9980 H   0  0  0  0  0
    1.1891   -1.4927    3.1420 H   0  0  0  0  0
    2.8430   -1.0880    3.6116 H   0  0  0  0  0
    4.1056    0.5331    2.3202 H   0  0  0  0  0
    3.2436    2.0146    1.9614 H   0  0  0  0  0
    3.5471   -0.3765    0.0603 H   0  0  0  0  0
    2.7062    1.1153   -0.3213 H   0  0  0  0  0
    4.8303    2.3948   -0.0984 H   0  0  0  0  0
    5.6810    0.9056    0.2717 H   0  0  0  0  0
    6.4331    1.7779   -2.1391 C   0  0  0  0  0
    6.7995    1.4775   -3.1256 H   0  0  0  0  0
    6.3131    2.8671   -2.1509 H   0  0  0  0  0
    7.2265    1.5225   -1.4273 H   0  0  0  0  0
    3.8623   -0.5004   -5.1445 H   0  0  0  0  0
    5.0449   -1.9613   -3.6193 H   0  0  0  0  0
  1  2  2  0  0  0
  2  3  1  0  0  0
  2 15  1  0  0  0
  3  4  2  0  0  0
  3 71  1  0  0  0
  4  5  1  0  0  0
  4 70  1  0  0  0
  5  6  1  0  0  0
  5 10  1  0  0  0
  5 14  1  0  0  0
  6  7  1  0  0  0
  6  8  1  0  0  0
  6  9  1  0  0  0
 10 11  1  0  0  0
 10 12  1  0  0  0
 10 13  1  0  0  0
 14 15  1  0  0  0
 15 16  1  0  0  0
 15 66  1  0  0  0
 16 17  1  0  0  0
 16 64  1  0  0  0
 16 65  1  0  0  0
 17 18  1  0  0  0
 17 62  1  0  0  0
 17 63  1  0  0  0
 18 19  1  0  0  0
 18 60  1  0  0  0
 18 61  1  0  0  0
 19 20  2  0  0  0
 19 56  1  0  0  0
 20 21  1  0  0  0
 20 55  1  0  0  0
 21 22  2  0  0  0
 21 23  1  0  0  0
 23 24  1  0  0  0
 23 53  1  0  0  0
 23 54  1  0  0  0
 24 25  2  0  0  0
 24 49  1  0  0  0
 25 26  1  0  0  0
 25 48  1  0  0  0
 26 27  1  0  0  0
 26 46  1  0  0  0
 26 47  1  0  0  0
 27 28  2  0  0  0
 27 37  1  0  0  0
 28 29  1  0  0  0
 28 34  1  0  0  0
 29 30  1  0  0  0
 30 31  1  0  0  0
 30 32  1  0  0  0
 30 33  1  0  0  0
 34 35  2  0  0  0
 34 42  1  0  0  0
 35 36  1  0  0  0
 35 41  1  0  0  0
 36 37  2  0  0  0
 36 39  1  0  0  0
 37 38  1  0  0  0
 39 40  1  0  0  0
 42 43  1  0  0  0
 42 44  1  0  0  0
 42 45  1  0  0  0
 49 50  1  0  0  0
 49 51  1  0  0  0
 49 52  1  0  0  0
 56 57  1  0  0  0
 56 58  1  0  0  0
 56 59  1  0  0  0
 66 67  1  0  0  0
 66 68  1  0  0  0
 66 69  1  0  0  0
M  END
> <Tumorigenic>
none

> <Score>
35.67709

> <Active/Decoy>
active

> <InChI>
InChI=1S/C28H38O5/c1-19(9-8-13-28(6)25(31)12-14-27(4,5)33-28)15-23(29)16-20(2)10-11-22-18-24(30)17-21(3)26(22)32-7/h10,12,14-15,17-18,30H,8-9,11,13,16H2,1-7H3/b19-15+,20-10+/t28-/m0/s1

> <Matching Features>
H:14924486185440016873||HBA:14924321692640012300|HBA:14924486112070016868

> <Mol. Index>
744

> <Pharmacophore Match>
Model -1

> <# Confs.>
25

> <Source Database>
Pharm-Screening-input-NANPDB_After_DataWarror.ldb

> <Pharmacophore-Fit Score>
35.68

> <formula>
C28H38O5

> <Mutagenic>
none

> <Reproductive Effective>
none

> <Irritant>
none

$$$$
1-O-ethyl-6-(p-hydroxybenzoyl)-beta-D-glucopyranoside
XX    ILIB03122402113D

 43 44  0  0  1  0              1 V2000
    0.8483    1.2055   -3.4316 O   0  0  0  0  0
    0.0298    1.9455   -2.8913 C   0  0  0  0  0
   -1.4163    1.6737   -3.0764 C   0  0  0  0  0
   -1.8411    0.3531   -3.2714 C   0  0  0  0  0
   -3.1967    0.0692   -3.4400 C   0  0  0  0  0
   -4.1249    1.1072   -3.4137 C   0  0  0  0  0
   -5.4598    0.8606   -3.5712 O   0  0  0  0  0
   -5.5867   -0.0955   -3.6831 H   0  0  0  0  0
   -3.7143    2.4239   -3.2250 C   0  0  0  0  0
   -2.3573    2.7094   -3.0565 C   0  0  0  0  0
   -2.0644    3.7450   -2.9117 H   0  0  0  0  0
   -4.4411    3.2314   -3.2062 H   0  0  0  0  0
   -3.5143   -0.9589   -3.5902 H   0  0  0  0  0
   -1.1312   -0.4701   -3.2918 H   0  0  0  0  0
    0.4481    3.1312   -2.0206 C   0  0  1  0  0
   -0.5632    3.3155   -1.0454 O   0  0  0  0  0
   -0.3296    4.1107   -0.5366 H   0  0  0  0  0
    1.7743    2.8463   -1.3419 C   0  0  1  0  0
    1.6299    1.6744   -0.5414 O   0  0  0  0  0
    2.7814    1.3953    0.2625 C   0  0  1  0  0
    2.5833    0.2224    1.0548 O   0  0  0  0  0
    1.4862    0.3151    1.9570 C   0  0  0  0  0
    1.3881   -0.9854    2.7302 C   0  0  0  0  0
    1.2425   -1.8297    2.0491 H   0  0  0  0  0
    2.3148   -1.1780    3.2825 H   0  0  0  0  0
    0.5566   -0.9555    3.4382 H   0  0  0  0  0
    1.6408    1.1498    2.6505 H   0  0  0  0  0
    0.5633    0.4813    1.3907 H   0  0  0  0  0
    3.9854    1.1205   -0.6452 C   0  0  2  0  0
    5.1609    0.9905    0.1537 O   0  0  0  0  0
    4.9865    0.3003    0.8165 H   0  0  0  0  0
    4.2061    2.2575   -1.6404 C   0  0  1  0  0
    5.1735    1.8565   -2.6116 O   0  0  0  0  0
    4.8197    1.0852   -3.0866 H   0  0  0  0  0
    2.9072    2.6404   -2.3503 C   0  0  2  0  0
    3.1150    3.8406   -3.0892 O   0  0  0  0  0
    3.8481    3.6777   -3.7071 H   0  0  0  0  0
    2.6295    1.8547   -3.0634 H   0  0  0  0  0
    4.6345    3.1306   -1.1345 H   0  0  0  0  0
    3.8569    0.1713   -1.1801 H   0  0  0  0  0
    3.0020    2.2459    0.9250 H   0  0  0  0  0
    2.0040    3.7053   -0.6760 H   0  0  0  0  0
    0.4792    4.0180   -2.6516 H   0  0  0  0  0
  1  2  2  0  0  0
  2  3  1  0  0  0
  2 15  1  0  0  0
  3  4  2  0  0  0
  3 10  1  0  0  0
  4  5  1  0  0  0
  4 14  1  0  0  0
  5  6  2  0  0  0
  5 13  1  0  0  0
  6  7  1  0  0  0
  6  9  1  0  0  0
  7  8  1  0  0  0
  9 10  2  0  0  0
  9 12  1  0  0  0
 10 11  1  0  0  0
 15 16  1  0  0  0
 15 18  1  0  0  0
 15 43  1  0  0  0
 16 17  1  0  0  0
 18 19  1  0  0  0
 18 35  1  0  0  0
 18 42  1  0  0  0
 19 20  1  0  0  0
 20 21  1  0  0  0
 20 29  1  0  0  0
 20 41  1  0  0  0
 21 22  1  0  0  0
 22 23  1  0  0  0
 22 27  1  0  0  0
 22 28  1  0  0  0
 23 24  1  0  0  0
 23 25  1  0  0  0
 23 26  1  0  0  0
 29 30  1  0  0  0
 29 32  1  0  0  0
 29 40  1  0  0  0
 30 31  1  0  0  0
 32 33  1  0  0  0
 32 35  1  0  0  0
 32 39  1  0  0  0
 33 34  1  0  0  0
 35 36  1  0  0  0
 35 38  1  0  0  0
 36 37  1  0  0  0
M  END
> <Tumorigenic>
none

> <Score>
35.667786

> <Active/Decoy>
active

> <InChI>
InChI=1S/C15H20O8/c1-2-22-15-13(21)10(18)12(20)14(23-15)11(19)9(17)7-3-5-8(16)6-4-7/h3-6,10-16,18-21H,2H2,1H3/t10-,11+,12-,13+,14+,15+/m0/s1

> <Matching Features>
H:14924486185440016873||HBA:14924321692640012300|HBA:14924486112070016868

> <Mol. Index>
108

> <Pharmacophore Match>
Model -1

> <# Confs.>
25

> <Source Database>
Pharm-Screening-input-NANPDB_After_DataWarror.ldb

> <Pharmacophore-Fit Score>
35.67

> <formula>
C15H20O8

> <Mutagenic>
none

> <Reproductive Effective>
none

> <Irritant>
none

$$$$
14-hydroxyvaginatin
XX    ILIB03122402113D

 60 62  0  0  1  0              1 V2000
   -0.8789   -1.6954   -1.9551 O   0  0  0  0  0
   -1.2834   -0.5513   -1.9081 C   0  0  0  0  0
   -0.6486    0.5151   -1.3814 O   0  0  0  0  0
    0.6483    0.2993   -0.8078 C   0  0  2  0  0
    0.8379    1.3190    0.3314 C   0  0  1  0  0
   -0.2463    1.3553    1.4570 C   0  0  2  0  0
   -0.5828    0.0060    1.8019 O   0  0  0  0  0
   -1.1448    0.0235    2.5957 H   0  0  0  0  0
   -1.5543    2.0808    1.0897 C   0  0  0  0  0
   -2.5406    2.0836    2.2616 C   0  0  0  0  0
   -3.4561    2.6244    1.9988 H   0  0  0  0  0
   -2.8319    1.0658    2.5401 H   0  0  0  0  0
   -2.1058    2.5661    3.1441 H   0  0  0  0  0
   -1.2871    3.5231    0.6470 C   0  0  0  0  0
   -2.2250    4.0350    0.4060 H   0  0  0  0  0
   -0.7852    4.0927    1.4361 H   0  0  0  0  0
   -0.6588    3.5556   -0.2485 H   0  0  0  0  0
   -2.0304    1.5546    0.2516 H   0  0  0  0  0
    0.4798    2.0121    2.6593 C   0  0  0  0  0
    1.9304    2.2307    2.2207 C   0  0  0  0  0
    2.1831    1.2033    1.0966 C   0  0  2  0  0
    3.3586    1.6659    0.2205 C   0  0  0  0  0
    3.9894    0.6586   -0.7525 C   0  0  2  0  0
    4.9821    1.3987   -1.4803 O   0  0  0  0  0
    5.6193    1.7522   -0.8367 H   0  0  0  0  0
    3.0695   -0.1031   -1.7500 C   0  0  1  0  0
    2.8995   -1.4485   -1.2764 O   0  0  0  0  0
    3.7767   -1.8640   -1.2225 H   0  0  0  0  0
    1.6595    0.4837   -1.9517 C   0  0  0  0  0
    1.2187   -0.0087   -2.8309 H   0  0  0  0  0
    1.7239    1.5421   -2.2358 H   0  0  0  0  0
    3.7323   -0.2482   -3.1370 C   0  0  0  0  0
    4.7241   -0.7041   -3.0512 H   0  0  0  0  0
    3.1500   -0.9177   -3.7811 H   0  0  0  0  0
    3.8285    0.7157   -3.6465 H   0  0  0  0  0
    4.5490   -0.0777   -0.1637 H   0  0  0  0  0
    3.0796    2.5713   -0.3366 H   0  0  0  0  0
    4.1651    2.0119    0.8853 H   0  0  0  0  0
    2.4790   -0.1603    1.7512 C   0  0  0  0  0
    3.4767   -0.1565    2.2034 H   0  0  0  0  0
    2.4438   -0.9868    1.0423 H   0  0  0  0  0
    1.7796   -0.4065    2.5552 H   0  0  0  0  0
    2.6257    2.1259    3.0597 H   0  0  0  0  0
    2.0366    3.2551    1.8382 H   0  0  0  0  0
    0.4504    1.3645    3.5436 H   0  0  0  0  0
    0.0498    2.9767    2.9495 H   0  0  0  0  0
    0.8173    2.3122   -0.1425 H   0  0  0  0  0
    0.6835   -0.7242   -0.4077 H   0  0  0  0  0
   -2.6077   -0.1378   -2.4314 C   0  0  0  0  0
   -3.4159   -1.1184   -3.0228 C   0  0  0  0  0
   -4.6656   -0.7790   -3.5437 C   0  0  0  0  0
   -5.1056    0.5401   -3.4721 C   0  0  0  0  0
   -6.3278    0.9006   -3.9663 O   0  0  0  0  0
   -6.7552    0.1097   -4.3346 H   0  0  0  0  0
   -4.3101    1.5242   -2.8925 C   0  0  0  0  0
   -3.0602    1.1863   -2.3686 C   0  0  0  0  0
   -2.4607    1.9741   -1.9221 H   0  0  0  0  0
   -4.6542    2.5524   -2.8393 H   0  0  0  0  0
   -5.2839   -1.5486   -3.9949 H   0  0  0  0  0
   -3.0900   -2.1536   -3.0845 H   0  0  0  0  0
  1  2  2  0  0  0
  2  3  1  0  0  0
  2 49  1  0  0  0
  3  4  1  0  0  0
  4  5  1  0  0  0
  4 29  1  0  0  0
  4 48  1  0  0  0
  5  6  1  0  0  0
  5 21  1  0  0  0
  5 47  1  0  0  0
  6  7  1  0  0  0
  6  9  1  0  0  0
  6 19  1  0  0  0
  7  8  1  0  0  0
  9 10  1  0  0  0
  9 14  1  0  0  0
  9 18  1  0  0  0
 10 11  1  0  0  0
 10 12  1  0  0  0
 10 13  1  0  0  0
 14 15  1  0  0  0
 14 16  1  0  0  0
 14 17  1  0  0  0
 19 20  1  0  0  0
 19 45  1  0  0  0
 19 46  1  0  0  0
 20 21  1  0  0  0
 20 43  1  0  0  0
 20 44  1  0  0  0
 21 22  1  0  0  0
 21 39  1  0  0  0
 22 23  1  0  0  0
 22 37  1  0  0  0
 22 38  1  0  0  0
 23 24  1  0  0  0
 23 26  1  0  0  0
 23 36  1  0  0  0
 24 25  1  0  0  0
 26 27  1  0  0  0
 26 29  1  0  0  0
 26 32  1  0  0  0
 27 28  1  0  0  0
 29 30  1  0  0  0
 29 31  1  0  0  0
 32 33  1  0  0  0
 32 34  1  0  0  0
 32 35  1  0  0  0
 39 40  1  0  0  0
 39 41  1  0  0  0
 39 42  1  0  0  0
 49 50  2  0  0  0
 49 56  1  0  0  0
 50 51  1  0  0  0
 50 60  1  0  0  0
 51 52  2  0  0  0
 51 59  1  0  0  0
 52 53  1  0  0  0
 52 55  1  0  0  0
 53 54  1  0  0  0
 55 56  2  0  0  0
 55 58  1  0  0  0
 56 57  1  0  0  0
M  END
> <Tumorigenic>
none

> <Score>
35.66147

> <Active/Decoy>
active

> <InChI>
InChI=1S/C22H32O6/c1-13(2)22(27)10-9-20(3)12-17(24)21(4,26)11-16(18(20)22)28-19(25)14-5-7-15(23)8-6-14/h5-8,13,16-18,23-24,26-27H,9-12H2,1-4H3/t16-,17-,18+,20+,21-,22+/m0/s1

> <Matching Features>
H:14924486185440016873||HBA:14924321692640012300|HBA:14924486112070016868

> <Mol. Index>
889

> <Pharmacophore Match>
Model -1

> <# Confs.>
25

> <Source Database>
Pharm-Screening-input-NANPDB_After_DataWarror.ldb

> <Pharmacophore-Fit Score>
35.66

> <formula>
C22H32O6

> <Mutagenic>
none

> <Reproductive Effective>
none

> <Irritant>
none

$$$$
rosmarinic acid
XX    ILIB03122402113D

 42 43  0  0  1  0              1 V2000
    1.8576   -0.7845   -2.9088 O   0  0  0  0  0
    1.2542    0.1091   -2.3366 C   0  0  0  0  0
    1.7519    0.9698   -1.4317 O   0  0  0  0  0
    3.1412    0.8452   -1.1269 C   0  0  1  0  0
    3.9245    1.7130   -2.0801 C   0  0  0  0  0
    3.4544    2.4041   -2.9724 O   0  0  0  0  0
    5.2608    1.5827   -1.8675 O   0  0  0  0  0
    5.7845    2.1199   -2.4986 H   0  0  0  0  0
    3.4043    1.3218    0.3129 C   0  0  0  0  0
    2.6940    0.4992    1.3509 C   0  0  0  0  0
    1.3996    0.8515    1.7600 C   0  0  0  0  0
    0.7360    0.0897    2.7210 C   0  0  0  0  0
   -0.5237    0.4711    3.0880 O   0  0  0  0  0
   -0.8446   -0.1544    3.7607 H   0  0  0  0  0
    1.3496   -1.0257    3.2834 C   0  0  0  0  0
    0.6757   -1.7532    4.2228 O   0  0  0  0  0
    1.2413   -2.4910    4.5085 H   0  0  0  0  0
    2.6346   -1.3881    2.8877 C   0  0  0  0  0
    3.3020   -0.6297    1.9251 C   0  0  0  0  0
    4.3048   -0.9245    1.6250 H   0  0  0  0  0
    3.1248   -2.2565    3.3208 H   0  0  0  0  0
    0.9076    1.7197    1.3288 H   0  0  0  0  0
    4.4817    1.2829    0.5187 H   0  0  0  0  0
    3.1141    2.3747    0.4175 H   0  0  0  0  0
    3.4788   -0.1917   -1.2600 H   0  0  0  0  0
   -0.1756    0.4184   -2.5180 C   0  0  0  0  0
   -0.9838   -0.2632   -3.3439 C   0  0  0  0  0
   -2.4085    0.0299   -3.5369 C   0  0  0  0  0
   -3.0361   -0.2374   -4.7622 C   0  0  0  0  0
   -4.3946    0.0372   -4.9532 C   0  0  0  0  0
   -4.9231   -0.2783   -6.1744 O   0  0  0  0  0
   -5.8905   -0.2150   -6.1410 H   0  0  0  0  0
   -5.1467    0.5952   -3.9248 C   0  0  0  0  0
   -6.4673    0.9152   -4.0511 O   0  0  0  0  0
   -6.7304    0.8624   -4.9838 H   0  0  0  0  0
   -4.5479    0.8604   -2.6978 C   0  0  0  0  0
   -3.1909    0.5790   -2.5032 C   0  0  0  0  0
   -2.7609    0.8082   -1.5305 H   0  0  0  0  0
   -5.1224    1.2929   -1.8841 H   0  0  0  0  0
   -2.4771   -0.6719   -5.5883 H   0  0  0  0  0
   -0.6017   -1.0973   -3.9265 H   0  0  0  0  0
   -0.5438    1.2391   -1.9094 H   0  0  0  0  0
  1  2  2  0  0  0
  2  3  1  0  0  0
  2 26  1  0  0  0
  3  4  1  0  0  0
  4  5  1  0  0  0
  4  9  1  0  0  0
  4 25  1  0  0  0
  5  6  2  0  0  0
  5  7  1  0  0  0
  7  8  1  0  0  0
  9 10  1  0  0  0
  9 23  1  0  0  0
  9 24  1  0  0  0
 10 11  2  0  0  0
 10 19  1  0  0  0
 11 12  1  0  0  0
 11 22  1  0  0  0
 12 13  1  0  0  0
 12 15  2  0  0  0
 13 14  1  0  0  0
 15 16  1  0  0  0
 15 18  1  0  0  0
 16 17  1  0  0  0
 18 19  2  0  0  0
 18 21  1  0  0  0
 19 20  1  0  0  0
 26 27  2  0  0  0
 26 42  1  0  0  0
 27 28  1  0  0  0
 27 41  1  0  0  0
 28 29  2  0  0  0
 28 37  1  0  0  0
 29 30  1  0  0  0
 29 40  1  0  0  0
 30 31  1  0  0  0
 30 33  2  0  0  0
 31 32  1  0  0  0
 33 34  1  0  0  0
 33 36  1  0  0  0
 34 35  1  0  0  0
 36 37  2  0  0  0
 36 39  1  0  0  0
 37 38  1  0  0  0
M  END
> <Tumorigenic>
none

> <Score>
35.663883

> <Active/Decoy>
active

> <InChI>
InChI=1S/C18H16O8/c19-12-4-1-10(7-14(12)21)3-6-17(23)26-16(18(24)25)9-11-2-5-13(20)15(22)8-11/h1-8,16,19-22H,9H2,(H,24,25)/b6-3+/t16-/m1/s1

> <Matching Features>
H:14924486185440016873||HBA:14924321692640012300|HBA:14924486112070016868

> <Mol. Index>
560

> <Pharmacophore Match>
Model -1

> <# Confs.>
25

> <Source Database>
Pharm-Screening-input-NANPDB_After_DataWarror.ldb

> <Pharmacophore-Fit Score>
35.66

> <formula>
C18H16O8

> <Mutagenic>
none

> <Reproductive Effective>
none

> <Irritant>
none

$$$$
2-acetyl-jaeschkeanadiol-6-anisate
XX    ILIB03122402113D

 68 70  0  0  1  0              1 V2000
   -2.3731   -0.1668    0.7792 O   0  0  0  0  0
   -2.3134   -0.4428   -0.4086 C   0  0  0  0  0
   -1.3172   -1.1126   -1.0355 O   0  0  0  0  0
   -0.1979   -1.5178   -0.2435 C   0  0  2  0  0
    0.8742   -0.4044   -0.2097 C   0  0  1  0  0
    2.1961   -0.6434    0.5739 C   0  0  2  0  0
    2.9098   -1.7544    0.0344 O   0  0  0  0  0
    3.7772   -1.7981    0.4719 H   0  0  0  0  0
    2.0771   -0.8363    2.0974 C   0  0  0  0  0
    3.4558   -0.9148    2.7602 C   0  0  0  0  0
    3.3585   -1.0256    3.8454 H   0  0  0  0  0
    4.0245   -1.7746    2.3939 H   0  0  0  0  0
    4.0415   -0.0106    2.5647 H   0  0  0  0  0
    1.2667    0.2935    2.7416 C   0  0  0  0  0
    1.2048    0.1562    3.8266 H   0  0  0  0  0
    1.7276    1.2689    2.5510 H   0  0  0  0  0
    0.2427    0.3200    2.3570 H   0  0  0  0  0
    1.5543   -1.7813    2.2975 H   0  0  0  0  0
    2.9781    0.6343    0.2339 C   0  0  0  0  0
    2.7768    0.7984   -1.2746 C   0  0  2  0  0
    3.0257    2.1526   -1.6886 O   0  0  0  0  0
    4.2891    2.4550   -2.0957 C   0  0  0  0  0
    5.2392    1.6862   -2.1449 O   0  0  0  0  0
    4.3529    3.8928   -2.5135 C   0  0  0  0  0
    5.3991    4.2084   -2.5675 H   0  0  0  0  0
    3.8897    4.0127   -3.4948 H   0  0  0  0  0
    3.8511    4.5216   -1.7726 H   0  0  0  0  0
    1.2967    0.3486   -1.5458 C   0  0  1  0  0
    1.2002   -0.4539   -2.8696 C   0  0  0  0  0
    2.0692   -1.6716   -2.9666 C   0  0  0  0  0
    1.7111   -2.9228   -2.6396 C   0  0  0  0  0
    0.3445   -3.2756   -2.1248 C   0  0  0  0  0
    0.1676   -2.9730   -0.6369 C   0  0  0  0  0
   -0.6835   -3.5915   -0.3168 H   0  0  0  0  0
    1.0206   -3.3418   -0.0602 H   0  0  0  0  0
   -0.4395   -2.8027   -2.7259 H   0  0  0  0  0
    0.1883   -4.3525   -2.2760 H   0  0  0  0  0
    2.6897   -4.0580   -2.7456 C   0  0  0  0  0
    2.8102   -4.5462   -1.7728 H   0  0  0  0  0
    2.3337   -4.7998   -3.4675 H   0  0  0  0  0
    3.6800   -3.7239   -3.0719 H   0  0  0  0  0
    3.0798   -1.4990   -3.3291 H   0  0  0  0  0
    0.1575   -0.7070   -3.0869 H   0  0  0  0  0
    1.4947    0.2021   -3.7009 H   0  0  0  0  0
    0.3761    1.5862   -1.7243 C   0  0  0  0  0
    0.4482    2.2676   -0.8689 H   0  0  0  0  0
    0.6408    2.1557   -2.6222 H   0  0  0  0  0
   -0.6723    1.2933   -1.8277 H   0  0  0  0  0
    3.4870    0.1425   -1.7910 H   0  0  0  0  0
    2.5946    1.5143    0.7643 H   0  0  0  0  0
    4.0446    0.5469    0.4682 H   0  0  0  0  0
    0.3584    0.3769    0.3592 H   0  0  0  0  0
   -0.5436   -1.6150    0.7950 H   0  0  0  0  0
   -3.3694   -0.0871   -1.3749 C   0  0  0  0  0
   -3.2824   -0.4102   -2.7320 C   0  0  0  0  0
   -4.3151   -0.0517   -3.6028 C   0  0  0  0  0
   -5.4377    0.6383   -3.1346 C   0  0  0  0  0
   -6.3732    0.9397   -4.0835 O   0  0  0  0  0
   -7.5171    1.6426   -3.6067 C   0  0  0  0  0
   -8.0703    1.0468   -2.8733 H   0  0  0  0  0
   -8.1804    1.8183   -4.4618 H   0  0  0  0  0
   -7.2399    2.6180   -3.1932 H   0  0  0  0  0
   -5.5234    0.9601   -1.7782 C   0  0  0  0  0
   -4.4967    0.5951   -0.9024 C   0  0  0  0  0
   -4.5900    0.8661    0.1465 H   0  0  0  0  0
   -6.3750    1.4944   -1.3669 H   0  0  0  0  0
   -4.2318   -0.3105   -4.6558 H   0  0  0  0  0
   -2.4389   -0.9610   -3.1371 H   0  0  0  0  0
  1  2  2  0  0  0
  2  3  1  0  0  0
  2 54  1  0  0  0
  3  4  1  0  0  0
  4  5  1  0  0  0
  4 33  1  0  0  0
  4 53  1  0  0  0
  5  6  1  0  0  0
  5 28  1  0  0  0
  5 52  1  0  0  0
  6  7  1  0  0  0
  6  9  1  0  0  0
  6 19  1  0  0  0
  7  8  1  0  0  0
  9 10  1  0  0  0
  9 14  1  0  0  0
  9 18  1  0  0  0
 10 11  1  0  0  0
 10 12  1  0  0  0
 10 13  1  0  0  0
 14 15  1  0  0  0
 14 16  1  0  0  0
 14 17  1  0  0  0
 19 20  1  0  0  0
 19 50  1  0  0  0
 19 51  1  0  0  0
 20 21  1  0  0  0
 20 28  1  0  0  0
 20 49  1  0  0  0
 21 22  1  0  0  0
 22 23  2  0  0  0
 22 24  1  0  0  0
 24 25  1  0  0  0
 24 26  1  0  0  0
 24 27  1  0  0  0
 28 29  1  0  0  0
 28 45  1  0  0  0
 29 30  1  0  0  0
 29 43  1  0  0  0
 29 44  1  0  0  0
 30 31  2  0  0  0
 30 42  1  0  0  0
 31 32  1  0  0  0
 31 38  1  0  0  0
 32 33  1  0  0  0
 32 36  1  0  0  0
 32 37  1  0  0  0
 33 34  1  0  0  0
 33 35  1  0  0  0
 38 39  1  0  0  0
 38 40  1  0  0  0
 38 41  1  0  0  0
 45 46  1  0  0  0
 45 47  1  0  0  0
 45 48  1  0  0  0
 54 55  2  0  0  0
 54 64  1  0  0  0
 55 56  1  0  0  0
 55 68  1  0  0  0
 56 57  2  0  0  0
 56 67  1  0  0  0
 57 58  1  0  0  0
 57 63  1  0  0  0
 58 59  1  0  0  0
 59 60  1  0  0  0
 59 61  1  0  0  0
 59 62  1  0  0  0
 63 64  2  0  0  0
 63 66  1  0  0  0
 64 65  1  0  0  0
M  END
> <Tumorigenic>
none

> <Score>
35.65328

> <Active/Decoy>
active

> <InChI>
InChI=1S/C26H36O6/c1-16(2)26(29)15-22(31-18(4)27)25(5)14-13-17(3)7-12-21(23(25)26)32-24(28)19-8-10-20(30-6)11-9-19/h8-11,13,16,21-23,29H,7,12,14-15H2,1-6H3/b17-13-/t21-,22-,23+,25+,26+/m0/s1

> <Matching Features>
H:14924486185440016873||HBA:14924321692640012300|HBA:14924486112070016868

> <Mol. Index>
967

> <Pharmacophore Match>
Model -1

> <# Confs.>
25

> <Source Database>
Pharm-Screening-input-NANPDB_After_DataWarror.ldb

> <Pharmacophore-Fit Score>
35.65

> <formula>
C26H36O6

> <Mutagenic>
none

> <Reproductive Effective>
none

> <Irritant>
none

$$$$
oleoside 11-methyl ester
XX    ILIB03122402113D

 52 53  0  0  1  0              1 V2000
    4.2706   -0.9440   -4.1842 O   0  0  0  0  0
    4.0062   -1.1362   -3.0080 C   0  0  0  0  0
    4.8158   -1.6818   -2.0652 O   0  0  0  0  0
    6.1171   -2.0651   -2.5269 C   0  0  0  0  0
    6.6520   -1.1948   -2.9167 H   0  0  0  0  0
    6.6742   -2.4689   -1.6774 H   0  0  0  0  0
    6.0301   -2.8417   -3.2931 H   0  0  0  0  0
    2.7238   -0.8042   -2.3622 C   0  0  0  0  0
    1.6321   -1.4050   -2.8597 C   0  0  0  0  0
    0.3483   -1.2576   -2.3986 O   0  0  0  0  0
    0.1309   -0.1848   -1.4705 C   0  0  1  0  0
   -1.1064   -0.3556   -0.8000 O   0  0  0  0  0
   -2.2317   -0.3534   -1.6758 C   0  0  2  0  0
   -2.3183    0.8693   -2.4098 O   0  0  0  0  0
   -3.4239    0.8933   -3.3185 C   0  0  1  0  0
   -4.7368    0.8235   -2.5329 C   0  0  1  0  0
   -5.8233    0.7680   -3.4511 O   0  0  0  0  0
   -6.6483    0.8261   -2.9378 H   0  0  0  0  0
   -4.7627   -0.4150   -1.6368 C   0  0  2  0  0
   -5.8662   -0.3254   -0.7316 O   0  0  0  0  0
   -6.6821   -0.3437   -1.2603 H   0  0  0  0  0
   -3.4831   -0.5293   -0.8106 C   0  0  1  0  0
   -3.4461   -1.8073   -0.1757 O   0  0  0  0  0
   -3.4174   -2.4871   -0.8711 H   0  0  0  0  0
   -3.4913    0.2149   -0.0050 H   0  0  0  0  0
   -4.9221   -1.3232   -2.2319 H   0  0  0  0  0
   -4.8618    1.7251   -1.9196 H   0  0  0  0  0
   -3.3222    2.1742   -4.1261 C   0  0  0  0  0
   -2.0971    2.1974   -4.8408 O   0  0  0  0  0
   -2.0761    3.0313   -5.3420 H   0  0  0  0  0
   -3.3744    3.0534   -3.4744 H   0  0  0  0  0
   -4.1511    2.2416   -4.8376 H   0  0  0  0  0
   -3.3350    0.0427   -4.0075 H   0  0  0  0  0
   -2.1190   -1.2006   -2.3663 H   0  0  0  0  0
    1.2929   -0.0751   -0.4645 C   0  0  0  0  0
    2.6470    0.1028   -1.1512 C   0  0  2  0  0
    2.8853    1.5522   -1.5565 C   0  0  0  0  0
    4.2423    1.7416   -2.1891 C   0  0  0  0  0
    5.3158    1.5068   -1.6508 O   0  0  0  0  0
    4.1362    2.2086   -3.4603 O   0  0  0  0  0
    5.0153    2.3306   -3.8793 H   0  0  0  0  0
    2.1170    1.8697   -2.2714 H   0  0  0  0  0
    2.8238    2.2054   -0.6782 H   0  0  0  0  0
    3.4374   -0.2100   -0.4608 H   0  0  0  0  0
    1.1210   -0.1724    0.8694 C   0  0  0  0  0
    2.1590   -0.0977    1.9436 C   0  0  0  0  0
    3.1605    0.1387    1.5805 H   0  0  0  0  0
    2.2081   -1.0534    2.4754 H   0  0  0  0  0
    1.8816    0.6774    2.6649 H   0  0  0  0  0
    0.1168   -0.3218    1.2601 H   0  0  0  0  0
    0.0950    0.7552   -2.0365 H   0  0  0  0  0
    1.6360   -2.1118   -3.6792 H   0  0  0  0  0
  1  2  2  0  0  0
  2  3  1  0  0  0
  2  8  1  0  0  0
  3  4  1  0  0  0
  4  5  1  0  0  0
  4  6  1  0  0  0
  4  7  1  0  0  0
  8  9  2  0  0  0
  8 36  1  0  0  0
  9 10  1  0  0  0
  9 52  1  0  0  0
 10 11  1  0  0  0
 11 12  1  0  0  0
 11 35  1  0  0  0
 11 51  1  0  0  0
 12 13  1  0  0  0
 13 14  1  0  0  0
 13 22  1  0  0  0
 13 34  1  0  0  0
 14 15  1  0  0  0
 15 16  1  0  0  0
 15 28  1  0  0  0
 15 33  1  0  0  0
 16 17  1  0  0  0
 16 19  1  0  0  0
 16 27  1  0  0  0
 17 18  1  0  0  0
 19 20  1  0  0  0
 19 22  1  0  0  0
 19 26  1  0  0  0
 20 21  1  0  0  0
 22 23  1  0  0  0
 22 25  1  0  0  0
 23 24  1  0  0  0
 28 29  1  0  0  0
 28 31  1  0  0  0
 28 32  1  0  0  0
 29 30  1  0  0  0
 35 36  1  0  0  0
 35 45  2  0  0  0
 36 37  1  0  0  0
 36 44  1  0  0  0
 37 38  1  0  0  0
 37 42  1  0  0  0
 37 43  1  0  0  0
 38 39  2  0  0  0
 38 40  1  0  0  0
 40 41  1  0  0  0
 45 46  1  0  0  0
 45 50  1  0  0  0
 46 47  1  0  0  0
 46 48  1  0  0  0
 46 49  1  0  0  0
M  END
> <Tumorigenic>
none

> <Score>
35.646854

> <Active/Decoy>
active

> <InChI>
InChI=1S/C17H24O11/c1-3-7-8(4-11(19)20)9(15(24)25-2)6-26-16(7)28-17-14(23)13(22)12(21)10(5-18)27-17/h3,6,8,10,12-14,16-18,21-23H,4-5H2,1-2H3,(H,19,20)/b7-3+/t8-,10+,12+,13-,14+,16-,17-/m0/s1

> <Matching Features>
H:14924486185440016873||HBA:14924321692640012300|HBA:14924486112070016868

> <Mol. Index>
637

> <Pharmacophore Match>
Model -1

> <# Confs.>
25

> <Source Database>
Pharm-Screening-input-NANPDB_After_DataWarror.ldb

> <Pharmacophore-Fit Score>
35.65

> <formula>
C17H24O11

> <Mutagenic>
none

> <Reproductive Effective>
none

> <Irritant>
none

$$$$
(1R*,2R*,3E,7R*,llR*,12S*)-16-O-(3-hydroxy-3-methylglutaryl)-dolabella-3,8(17)-dien-2,7,16,18-tetrol
XX    ILIB03122402113D

 79 80  0  0  1  0              1 V2000
   -2.9984    0.9973    3.0350 O   0  0  0  0  0
   -2.2927    1.3053    2.0847 C   0  0  0  0  0
   -1.1369    0.6771    1.7335 O   0  0  0  0  0
   -0.7447   -0.4470    2.5358 C   0  0  0  0  0
    0.5311   -0.9947    1.9864 C   0  0  0  0  0
    1.7114   -0.5241    2.4456 C   0  0  0  0  0
    3.0918   -0.9577    2.0266 C   0  0  2  0  0
    3.6914   -1.6385    3.1404 O   0  0  0  0  0
    3.1078   -2.3775    3.3834 H   0  0  0  0  0
    4.0512    0.1766    1.5423 C   0  0  2  0  0
    3.5421    1.1342    0.4039 C   0  0  1  0  0
    4.8671    1.6685   -0.2114 C   0  0  2  0  0
    4.8379    2.4979   -1.5089 C   0  0  0  0  0
    4.2617    1.7213   -2.5640 O   0  0  0  0  0
    4.8628    0.9862   -2.7659 H   0  0  0  0  0
    3.9612    3.7429   -1.3513 C   0  0  0  0  0
    2.9182    3.4744   -1.1499 H   0  0  0  0  0
    4.3184    4.3861   -0.5402 H   0  0  0  0  0
    3.9473    4.3298   -2.2767 H   0  0  0  0  0
    6.2479    2.9108   -1.9359 C   0  0  0  0  0
    6.7432    3.5092   -1.1653 H   0  0  0  0  0
    6.2198    3.4951   -2.8637 H   0  0  0  0  0
    6.8732    2.0355   -2.1516 H   0  0  0  0  0
    5.7967    0.4578   -0.2187 C   0  0  0  0  0
    5.3369   -0.4477    0.9277 C   0  0  0  0  0
    5.1468   -1.4490    0.5234 H   0  0  0  0  0
    6.1322   -0.5633    1.6735 H   0  0  0  0  0
    5.7432   -0.0920   -1.1636 H   0  0  0  0  0
    6.8398    0.7594   -0.0816 H   0  0  0  0  0
    5.2678    2.3671    0.5382 H   0  0  0  0  0
    2.4807    0.6107   -0.5871 C   0  0  0  0  0
    2.7306   -0.6882   -1.3636 C   0  0  0  0  0
    1.5292   -1.0616   -2.2109 C   0  0  0  0  0
    0.4924   -2.0408   -1.6796 C   0  0  1  0  0
    1.0752   -3.3327   -1.5179 O   0  0  0  0  0
    1.5030   -3.5753   -2.3565 H   0  0  0  0  0
   -0.2361   -1.6086   -0.3898 C   0  0  0  0  0
    0.3912   -2.0825    0.9361 C   0  0  0  0  0
    1.3422   -2.5830    0.7570 H   0  0  0  0  0
   -0.2435   -2.8759    1.3545 H   0  0  0  0  0
   -1.2386   -2.0602   -0.4277 H   0  0  0  0  0
   -0.4138   -0.5268   -0.4078 H   0  0  0  0  0
   -0.2889   -2.1628   -2.4420 H   0  0  0  0  0
    1.4032   -0.5543   -3.4496 C   0  0  0  0  0
    2.1359    0.1343   -3.8546 H   0  0  0  0  0
    0.5647   -0.8123   -4.0879 H   0  0  0  0  0
    3.6031   -0.5751   -2.0134 H   0  0  0  0  0
    2.9756   -1.5285   -0.7171 H   0  0  0  0  0
    1.5436    0.5221   -0.0368 H   0  0  0  0  0
    2.2670    1.4088   -1.3088 H   0  0  0  0  0
    3.0506    1.9943    0.8861 H   0  0  0  0  0
    4.4770    1.0352    2.7742 C   0  0  0  0  0
    5.2613    1.7589    2.5319 H   0  0  0  0  0
    3.6277    1.5963    3.1766 H   0  0  0  0  0
    4.8822    0.4168    3.5822 H   0  0  0  0  0
    3.0429   -1.7182    1.2544 H   0  0  0  0  0
    1.6856    0.2426    3.2175 H   0  0  0  0  0
   -1.5204   -1.2198    2.4869 H   0  0  0  0  0
   -0.6271   -0.1300    3.5791 H   0  0  0  0  0
   -2.5412    2.4858    1.1971 C   0  0  0  0  0
   -3.4266    2.0692    0.0239 C   0  0  0  0  0
   -3.7361    3.2042   -0.9566 C   0  0  1  0  0
   -2.5144    3.7264   -1.4729 O   0  0  0  0  0
   -2.1417    3.0633   -2.0781 H   0  0  0  0  0
   -4.6268    2.8160   -2.1211 C   0  0  0  0  0
   -3.9534    1.7658   -2.9648 C   0  0  0  0  0
   -2.7404    1.6640   -3.0914 O   0  0  0  0  0
   -4.8406    0.9423   -3.5772 O   0  0  0  0  0
   -5.7832    1.1409   -3.3926 H   0  0  0  0  0
   -4.8456    3.6732   -2.7679 H   0  0  0  0  0
   -5.5938    2.4189   -1.7889 H   0  0  0  0  0
   -4.4088    4.3668   -0.1968 C   0  0  0  0  0
   -3.7699    4.7179    0.6216 H   0  0  0  0  0
   -5.3808    4.0839    0.2184 H   0  0  0  0  0
   -4.5558    5.2288   -0.8591 H   0  0  0  0  0
   -4.3534    1.6381    0.3928 H   0  0  0  0  0
   -2.9069    1.2670   -0.5385 H   0  0  0  0  0
   -3.0413    3.2544    1.7995 H   0  0  0  0  0
   -1.5916    2.8949    0.8703 H   0  0  0  0  0
  1  2  2  0  0  0
  2  3  1  0  0  0
  2 60  1  0  0  0
  3  4  1  0  0  0
  4  5  1  0  0  0
  4 58  1  0  0  0
  4 59  1  0  0  0
  5  6  2  0  0  0
  5 38  1  0  0  0
  6  7  1  0  0  0
  6 57  1  0  0  0
  7  8  1  0  0  0
  7 10  1  0  0  0
  7 56  1  0  0  0
  8  9  1  0  0  0
 10 11  1  0  0  0
 10 25  1  0  0  0
 10 52  1  0  0  0
 11 12  1  0  0  0
 11 31  1  0  0  0
 11 51  1  0  0  0
 12 13  1  0  0  0
 12 24  1  0  0  0
 12 30  1  0  0  0
 13 14  1  0  0  0
 13 16  1  0  0  0
 13 20  1  0  0  0
 14 15  1  0  0  0
 16 17  1  0  0  0
 16 18  1  0  0  0
 16 19  1  0  0  0
 20 21  1  0  0  0
 20 22  1  0  0  0
 20 23  1  0  0  0
 24 25  1  0  0  0
 24 28  1  0  0  0
 24 29  1  0  0  0
 25 26  1  0  0  0
 25 27  1  0  0  0
 31 32  1  0  0  0
 31 49  1  0  0  0
 31 50  1  0  0  0
 32 33  1  0  0  0
 32 47  1  0  0  0
 32 48  1  0  0  0
 33 34  1  0  0  0
 33 44  2  0  0  0
 34 35  1  0  0  0
 34 37  1  0  0  0
 34 43  1  0  0  0
 35 36  1  0  0  0
 37 38  1  0  0  0
 37 41  1  0  0  0
 37 42  1  0  0  0
 38 39  1  0  0  0
 38 40  1  0  0  0
 44 45  1  0  0  0
 44 46  1  0  0  0
 52 53  1  0  0  0
 52 54  1  0  0  0
 52 55  1  0  0  0
 60 61  1  0  0  0
 60 78  1  0  0  0
 60 79  1  0  0  0
 61 62  1  0  0  0
 61 76  1  0  0  0
 61 77  1  0  0  0
 62 63  1  0  0  0
 62 65  1  0  0  0
 62 72  1  0  0  0
 63 64  1  0  0  0
 65 66  1  0  0  0
 65 70  1  0  0  0
 65 71  1  0  0  0
 66 67  2  0  0  0
 66 68  1  0  0  0
 68 69  1  0  0  0
 72 73  1  0  0  0
 72 74  1  0  0  0
 72 75  1  0  0  0
M  END
> <Tumorigenic>
none

> <Score>
35.64823

> <Active/Decoy>
active

> <InChI>
InChI=1S/C27H44O8/c1-17-6-8-20-19(25(2,3)33)10-13-27(20,5)22(29)14-18(7-9-21(17)28)16-35-24(32)11-12-26(4,34)15-23(30)31/h14,19-22,28-29,33-34H,1,6-13,15-16H2,2-5H3,(H,30,31)/b18-14-/t19-,20-,21+,22+,26-,27+/m1/s1

> <Matching Features>
H:14924486185440016873||HBA:14924321692640012300|HBA:14924486112070016868

> <Mol. Index>
513

> <Pharmacophore Match>
Model -1

> <# Confs.>
25

> <Source Database>
Pharm-Screening-input-NANPDB_After_DataWarror.ldb

> <Pharmacophore-Fit Score>
35.65

> <formula>
C27H44O8

> <Mutagenic>
none

> <Reproductive Effective>
none

> <Irritant>
none

$$$$
3alpha-acetoxy-beta-eudesmol-(alpha-xylopyranoside-triacetate)
XX    ILIB03122402113D

 75 77  0  0  1  0              1 V2000
   -5.9136    0.7851   -3.5259 O   0  0  0  0  0
   -4.9141    0.1237   -3.2782 C   0  0  0  0  0
   -3.6339    0.5509   -3.3434 O   0  0  0  0  0
   -3.4322    1.9102   -3.7424 C   0  0  1  0  0
   -2.1708    2.4326   -3.0747 C   0  0  2  0  0
   -2.3837    2.4626   -1.6670 O   0  0  0  0  0
   -1.2732    2.8986   -0.8979 C   0  0  0  0  0
   -0.0325    2.0086   -1.1011 C   0  0  1  0  0
    1.1770    2.5018   -0.2735 C   0  0  0  0  0
    2.4185    1.6113   -0.4865 C   0  0  1  0  0
    3.7014    2.0704    0.1971 C   0  0  0  0  0
    3.7972    3.0988    1.0550 C   0  0  0  0  0
    4.7468    3.3620    1.5105 H   0  0  0  0  0
    2.9439    3.7053    1.3325 H   0  0  0  0  0
    4.9205    1.2416   -0.1483 C   0  0  2  0  0
    5.2300    1.4480   -1.5260 O   0  0  0  0  0
    6.0080    0.9036   -1.7375 H   0  0  0  0  0
    4.6674   -0.2468    0.1052 C   0  0  0  0  0
    3.3627   -0.7412   -0.5326 C   0  0  0  0  0
    2.1247    0.1184   -0.1464 C   0  0  2  0  0
    0.9133   -0.3566   -0.9838 C   0  0  0  0  0
   -0.3268    0.5244   -0.8199 C   0  0  0  0  0
   -0.7347    0.4009    0.1891 H   0  0  0  0  0
   -1.0983    0.1595   -1.5079 H   0  0  0  0  0
    1.1846   -0.3698   -2.0479 H   0  0  0  0  0
    0.6542   -1.3895   -0.7221 H   0  0  0  0  0
    1.8170   -0.0932    1.3564 C   0  0  0  0  0
    1.6312   -1.1541    1.5653 H   0  0  0  0  0
    2.6408    0.2235    2.0013 H   0  0  0  0  0
    0.9321    0.4567    1.6841 H   0  0  0  0  0
    3.1983   -1.7889   -0.2507 H   0  0  0  0  0
    3.4864   -0.7329   -1.6238 H   0  0  0  0  0
    4.6469   -0.4398    1.1841 H   0  0  0  0  0
    5.4951   -0.8400   -0.3047 H   0  0  0  0  0
    5.7963    1.5610    0.4287 H   0  0  0  0  0
    2.6262    1.6668   -1.5667 H   0  0  0  0  0
    1.4182    3.5276   -0.5776 H   0  0  0  0  0
    0.9123    2.5437    0.7891 H   0  0  0  0  0
    0.2621    2.0951   -2.1577 H   0  0  0  0  0
   -0.9648    4.3805   -1.2063 C   0  0  0  0  0
   -0.1899    4.7720   -0.5386 H   0  0  0  0  0
   -0.6216    4.5210   -2.2365 H   0  0  0  0  0
   -1.8637    4.9969   -1.0935 H   0  0  0  0  0
   -1.7401    2.8081    0.5664 C   0  0  0  0  0
   -2.6114    3.4499    0.7411 H   0  0  0  0  0
   -2.0592    1.7901    0.8155 H   0  0  0  0  0
   -0.9499    3.1062    1.2634 H   0  0  0  0  0
   -1.8335    3.7317   -3.5583 O   0  0  0  0  0
   -1.5731    3.7384   -4.9573 C   0  0  0  0  0
   -2.8163    3.3276   -5.7399 C   0  0  1  0  0
   -2.5010    3.2415   -7.1383 O   0  0  0  0  0
   -2.6604    4.3713   -7.8618 C   0  0  0  0  0
   -3.0455    5.4541   -7.4417 O   0  0  0  0  0
   -2.2780    4.1105   -9.2882 C   0  0  0  0  0
   -1.2107    3.8839   -9.3469 H   0  0  0  0  0
   -2.4829    5.0017   -9.8880 H   0  0  0  0  0
   -2.8716    3.2848   -9.6869 H   0  0  0  0  0
   -3.3057    1.9544   -5.2709 C   0  0  2  0  0
   -4.6057    1.7265   -5.8348 O   0  0  0  0  0
   -4.7329    0.6481   -6.6388 C   0  0  0  0  0
   -3.8509   -0.1487   -6.9296 O   0  0  0  0  0
   -6.1462    0.5521   -7.1291 C   0  0  0  0  0
   -6.8162    0.3586   -6.2869 H   0  0  0  0  0
   -6.2285   -0.2731   -7.8402 H   0  0  0  0  0
   -6.4254    1.4761   -7.6409 H   0  0  0  0  0
   -2.6143    1.1699   -5.6107 H   0  0  0  0  0
   -3.6218    4.0597   -5.5866 H   0  0  0  0  0
   -0.7190    3.0884   -5.1842 H   0  0  0  0  0
   -1.2687    4.7526   -5.2375 H   0  0  0  0  0
   -1.3203    1.7367   -3.2672 H   0  0  0  0  0
   -4.2892    2.5299   -3.4267 H   0  0  0  0  0
   -4.9413   -1.3151   -2.8606 C   0  0  0  0  0
   -4.4759   -1.9318   -3.6338 H   0  0  0  0  0
   -5.9792   -1.6366   -2.7312 H   0  0  0  0  0
   -4.4246   -1.4359   -1.9060 H   0  0  0  0  0
  1  2  2  0  0  0
  2  3  1  0  0  0
  2 72  1  0  0  0
  3  4  1  0  0  0
  4  5  1  0  0  0
  4 58  1  0  0  0
  4 71  1  0  0  0
  5  6  1  0  0  0
  5 48  1  0  0  0
  5 70  1  0  0  0
  6  7  1  0  0  0
  7  8  1  0  0  0
  7 40  1  0  0  0
  7 44  1  0  0  0
  8  9  1  0  0  0
  8 22  1  0  0  0
  8 39  1  0  0  0
  9 10  1  0  0  0
  9 37  1  0  0  0
  9 38  1  0  0  0
 10 11  1  0  0  0
 10 20  1  0  0  0
 10 36  1  0  0  0
 11 12  2  0  0  0
 11 15  1  0  0  0
 12 13  1  0  0  0
 12 14  1  0  0  0
 15 16  1  0  0  0
 15 18  1  0  0  0
 15 35  1  0  0  0
 16 17  1  0  0  0
 18 19  1  0  0  0
 18 33  1  0  0  0
 18 34  1  0  0  0
 19 20  1  0  0  0
 19 31  1  0  0  0
 19 32  1  0  0  0
 20 21  1  0  0  0
 20 27  1  0  0  0
 21 22  1  0  0  0
 21 25  1  0  0  0
 21 26  1  0  0  0
 22 23  1  0  0  0
 22 24  1  0  0  0
 27 28  1  0  0  0
 27 29  1  0  0  0
 27 30  1  0  0  0
 40 41  1  0  0  0
 40 42  1  0  0  0
 40 43  1  0  0  0
 44 45  1  0  0  0
 44 46  1  0  0  0
 44 47  1  0  0  0
 48 49  1  0  0  0
 49 50  1  0  0  0
 49 68  1  0  0  0
 49 69  1  0  0  0
 50 51  1  0  0  0
 50 58  1  0  0  0
 50 67  1  0  0  0
 51 52  1  0  0  0
 52 53  2  0  0  0
 52 54  1  0  0  0
 54 55  1  0  0  0
 54 56  1  0  0  0
 54 57  1  0  0  0
 58 59  1  0  0  0
 58 66  1  0  0  0
 59 60  1  0  0  0
 60 61  2  0  0  0
 60 62  1  0  0  0
 62 63  1  0  0  0
 62 64  1  0  0  0
 62 65  1  0  0  0
 72 73  1  0  0  0
 72 74  1  0  0  0
 72 75  1  0  0  0
M  END
> <Tumorigenic>
none

> <Score>
35.644085

> <Active/Decoy>
active

> <InChI>
InChI=1S/C26H40O9/c1-14-19-12-18(8-10-26(19,7)11-9-20(14)30)25(5,6)35-24-23(34-17(4)29)22(33-16(3)28)21(13-31-24)32-15(2)27/h18-24,30H,1,8-13H2,2-7H3/t18-,19+,20-,21-,22+,23-,24+,26+/m1/s1

> <Matching Features>
H:14924486185440016873||HBA:14924321692640012300|HBA:14924486112070016868

> <Mol. Index>
1162

> <Pharmacophore Match>
Model -1

> <# Confs.>
12

> <Source Database>
Pharm-Screening-input-NANPDB_After_DataWarror.ldb

> <Pharmacophore-Fit Score>
35.64

> <formula>
C26H40O9

> <Mutagenic>
none

> <Reproductive Effective>
none

> <Irritant>
none

$$$$
naamidine D
XX    ILIB03122402113D

 55 58  0  0  1  0              1 V2000
    5.3594    1.4979   -1.6129 O   0  0  0  0  0
    4.6245    2.3785   -2.0448 C   0  0  0  0  0
    3.3193    2.5758   -1.6247 N   0  0  0  0  0
    2.8448    3.5984   -2.2867 C   0  0  0  0  0
    1.6055    4.1955   -2.2480 N   0  0  0  0  0
    0.5632    3.8237   -1.4702 C   0  0  0  0  0
   -0.6467    4.3342   -1.3597 N   0  0  0  0  0
   -1.3060    3.5698   -0.4235 C   0  0  0  0  0
   -2.6989    3.8721   -0.0493 C   0  0  0  0  0
   -3.5654    3.0800   -0.9981 C   0  0  0  0  0
   -3.9833    3.6197   -2.2107 C   0  0  0  0  0
   -4.7894    2.8878   -3.0883 C   0  0  0  0  0
   -5.1906    1.5954   -2.7604 C   0  0  0  0  0
   -5.9712    0.7787   -3.5286 O   0  0  0  0  0
   -6.3913    1.3379   -4.7707 C   0  0  0  0  0
   -7.0109    2.2273   -4.6127 H   0  0  0  0  0
   -7.0035    0.5907   -5.2819 H   0  0  0  0  0
   -5.5340    1.5654   -5.4132 H   0  0  0  0  0
   -4.7794    1.0401   -1.5393 C   0  0  0  0  0
   -3.9749    1.7718   -0.6635 C   0  0  0  0  0
   -3.6695    1.3191    0.2760 H   0  0  0  0  0
   -5.0824    0.0326   -1.2639 H   0  0  0  0  0
   -5.0840    3.3593   -4.0221 H   0  0  0  0  0
   -3.6829    4.6268   -2.4880 H   0  0  0  0  0
   -2.9052    3.5795    0.9887 H   0  0  0  0  0
   -2.9089    4.9326   -0.1413 H   0  0  0  0  0
   -0.4581    2.5732    0.0600 C   0  0  0  0  0
    0.7168    2.7554   -0.6236 N   0  0  0  0  0
    1.5576    2.2042   -0.5174 H   0  0  0  0  0
   -0.6411    1.4972    1.0714 C   0  0  0  0  0
    0.5898    0.6570    1.2642 C   0  0  0  0  0
    0.7992   -0.4935    0.4905 C   0  0  0  0  0
    1.9427   -1.2793    0.6669 C   0  0  0  0  0
    2.8952   -0.9255    1.6252 C   0  0  0  0  0
    4.0492   -1.6080    1.8887 O   0  0  0  0  0
    4.2608   -2.7737    1.0967 C   0  0  0  0  0
    3.4728   -3.5150    1.2670 H   0  0  0  0  0
    5.2122   -3.2195    1.4079 H   0  0  0  0  0
    4.3425   -2.5229    0.0341 H   0  0  0  0  0
    2.6904    0.2180    2.4027 C   0  0  0  0  0
    1.5485    1.0029    2.2250 C   0  0  0  0  0
    1.4141    1.8862    2.8426 H   0  0  0  0  0
    3.4217    0.5085    3.1529 H   0  0  0  0  0
    2.0559   -2.1582    0.0396 H   0  0  0  0  0
    0.0699   -0.7875   -0.2609 H   0  0  0  0  0
   -0.9290    1.9400    2.0342 H   0  0  0  0  0
   -1.4831    0.8526    0.7864 H   0  0  0  0  0
    1.4756    4.9979   -2.8606 H   0  0  0  0  0
    3.9055    4.1298   -3.2131 C   0  0  0  0  0
    4.9580    3.3057   -2.9986 N   0  0  0  0  0
    6.2422    3.4016   -3.6644 C   0  0  0  0  0
    6.9040    4.0073   -3.0390 H   0  0  0  0  0
    6.6738    2.4058   -3.7792 H   0  0  0  0  0
    6.1242    3.8873   -4.6368 H   0  0  0  0  0
    3.7395    5.0876   -3.9356 O   0  0  0  0  0
  1  2  2  0  0  0
  2  3  1  0  0  0
  2 50  1  0  0  0
  3  4  2  0  0  0
  4  5  1  0  0  0
  4 49  1  0  0  0
  5  6  1  0  0  0
  5 48  1  0  0  0
  6  7  2  0  0  0
  6 28  1  0  0  0
  7  8  1  0  0  0
  8  9  1  0  0  0
  8 27  2  0  0  0
  9 10  1  0  0  0
  9 25  1  0  0  0
  9 26  1  0  0  0
 10 11  2  0  0  0
 10 20  1  0  0  0
 11 12  1  0  0  0
 11 24  1  0  0  0
 12 13  2  0  0  0
 12 23  1  0  0  0
 13 14  1  0  0  0
 13 19  1  0  0  0
 14 15  1  0  0  0
 15 16  1  0  0  0
 15 17  1  0  0  0
 15 18  1  0  0  0
 19 20  2  0  0  0
 19 22  1  0  0  0
 20 21  1  0  0  0
 27 28  1  0  0  0
 27 30  1  0  0  0
 28 29  1  0  0  0
 30 31  1  0  0  0
 30 46  1  0  0  0
 30 47  1  0  0  0
 31 32  2  0  0  0
 31 41  1  0  0  0
 32 33  1  0  0  0
 32 45  1  0  0  0
 33 34  2  0  0  0
 33 44  1  0  0  0
 34 35  1  0  0  0
 34 40  1  0  0  0
 35 36  1  0  0  0
 36 37  1  0  0  0
 36 38  1  0  0  0
 36 39  1  0  0  0
 40 41  2  0  0  0
 40 43  1  0  0  0
 41 42  1  0  0  0
 49 50  1  0  0  0
 49 55  2  0  0  0
 50 51  1  0  0  0
 51 52  1  0  0  0
 51 53  1  0  0  0
 51 54  1  0  0  0
M  END
> <Tumorigenic>
none

> <Score>
35.63802

> <Active/Decoy>
active

> <InChI>
InChI=1S/C23H23N5O4/c1-28-21(29)20(27-23(28)30)26-22-24-18(12-14-4-8-16(31-2)9-5-14)19(25-22)13-15-6-10-17(32-3)11-7-15/h4-11H,12-13H2,1-3H3,(H2,24,25,26,27,30)

> <Matching Features>
H:14924486185440016873||HBA:14924321692640012300|HBA:14924486112070016868

> <Mol. Index>
609

> <Pharmacophore Match>
Model -1

> <# Confs.>
25

> <Source Database>
Pharm-Screening-input-NANPDB_After_DataWarror.ldb

> <Pharmacophore-Fit Score>
35.64

> <formula>
C23H23N5O4

> <Mutagenic>
none

> <Reproductive Effective>
none

> <Irritant>
none

$$$$
helioscopinolide B
XX    ILIB03122402113D

 51 54  0  0  1  0              1 V2000
   -5.5877    0.8505   -3.5876 O   0  0  0  0  0
   -4.4653    0.5143   -3.2498 C   0  0  0  0  0
   -3.3290    1.2558   -3.4315 O   0  0  0  0  0
   -2.2031    0.4789   -3.0283 C   0  0  2  0  0
   -2.8072   -0.6911   -2.3627 C   0  0  0  0  0
   -4.1253   -0.7334   -2.5403 C   0  0  0  0  0
   -5.1533   -1.6862   -2.0641 C   0  0  0  0  0
   -5.9260   -1.1654   -1.4900 H   0  0  0  0  0
   -5.6322   -2.1821   -2.9146 H   0  0  0  0  0
   -4.7291   -2.4616   -1.4200 H   0  0  0  0  0
   -1.9489   -1.5496   -1.6031 C   0  0  0  0  0
   -0.7470   -1.1199   -1.1724 C   0  0  0  0  0
    0.1612   -2.0279   -0.3987 C   0  0  0  0  0
    1.5576   -2.0770   -1.0146 C   0  0  0  0  0
    2.2029   -0.6965   -1.3050 C   0  0  2  0  0
    2.9795   -0.0709   -0.0670 C   0  0  0  0  0
    3.4842    1.3605   -0.4007 C   0  0  1  0  0
    4.5517    1.2942   -1.3514 O   0  0  0  0  0
    4.8647    2.2005   -1.5046 H   0  0  0  0  0
    2.3815    2.2488   -0.9636 C   0  0  0  0  0
    1.8327    1.6642   -2.2557 C   0  0  0  0  0
    1.2026    0.2543   -2.0999 C   0  0  2  0  0
   -0.2133    0.2985   -1.4055 C   0  0  1  0  0
   -1.2876    1.2206   -2.0635 C   0  0  0  0  0
   -0.8611    2.0925   -2.5628 H   0  0  0  0  0
   -1.9056    1.6509   -1.2612 H   0  0  0  0  0
   -0.0667    0.7359   -0.4138 H   0  0  0  0  0
    1.0560   -0.2942   -3.5493 C   0  0  0  0  0
    0.5233   -1.2485   -3.5899 H   0  0  0  0  0
    2.0375   -0.4533   -4.0113 H   0  0  0  0  0
    0.5248    0.4170   -4.1901 H   0  0  0  0  0
    1.1297    2.3767   -2.6948 H   0  0  0  0  0
    2.6544    1.6112   -2.9844 H   0  0  0  0  0
    1.5810    2.4010   -0.2339 H   0  0  0  0  0
    2.7957    3.2396   -1.1895 H   0  0  0  0  0
    3.9011    1.8297    0.4982 H   0  0  0  0  0
    2.1688   -0.0053    1.2433 C   0  0  0  0  0
    1.9438   -1.0037    1.6295 H   0  0  0  0  0
    2.7464    0.4952    2.0295 H   0  0  0  0  0
    1.2357    0.5474    1.1452 H   0  0  0  0  0
    4.2216   -0.9541    0.2512 C   0  0  0  0  0
    4.8290   -1.1417   -0.6410 H   0  0  0  0  0
    4.8656   -0.4680    0.9933 H   0  0  0  0  0
    3.9384   -1.9267    0.6649 H   0  0  0  0  0
    3.0092   -0.9162   -2.0241 H   0  0  0  0  0
    1.4894   -2.6279   -1.9623 H   0  0  0  0  0
    2.2034   -2.6911   -0.3805 H   0  0  0  0  0
   -0.2365   -3.0494   -0.3653 H   0  0  0  0  0
    0.1916   -1.6899    0.6392 H   0  0  0  0  0
   -2.3041   -2.5449   -1.3572 H   0  0  0  0  0
   -1.6665    0.1818   -3.9348 H   0  0  0  0  0
  1  2  2  0  0  0
  2  3  1  0  0  0
  2  6  1  0  0  0
  3  4  1  0  0  0
  4  5  1  0  0  0
  4 24  1  0  0  0
  4 51  1  0  0  0
  5  6  2  0  0  0
  5 11  1  0  0  0
  6  7  1  0  0  0
  7  8  1  0  0  0
  7  9  1  0  0  0
  7 10  1  0  0  0
 11 12  2  0  0  0
 11 50  1  0  0  0
 12 13  1  0  0  0
 12 23  1  0  0  0
 13 14  1  0  0  0
 13 48  1  0  0  0
 13 49  1  0  0  0
 14 15  1  0  0  0
 14 46  1  0  0  0
 14 47  1  0  0  0
 15 16  1  0  0  0
 15 22  1  0  0  0
 15 45  1  0  0  0
 16 17  1  0  0  0
 16 37  1  0  0  0
 16 41  1  0  0  0
 17 18  1  0  0  0
 17 20  1  0  0  0
 17 36  1  0  0  0
 18 19  1  0  0  0
 20 21  1  0  0  0
 20 34  1  0  0  0
 20 35  1  0  0  0
 21 22  1  0  0  0
 21 32  1  0  0  0
 21 33  1  0  0  0
 22 23  1  0  0  0
 22 28  1  0  0  0
 23 24  1  0  0  0
 23 27  1  0  0  0
 24 25  1  0  0  0
 24 26  1  0  0  0
 28 29  1  0  0  0
 28 30  1  0  0  0
 28 31  1  0  0  0
 37 38  1  0  0  0
 37 39  1  0  0  0
 37 40  1  0  0  0
 41 42  1  0  0  0
 41 43  1  0  0  0
 41 44  1  0  0  0
M  END
> <Tumorigenic>
none

> <Score>
35.620483

> <Active/Decoy>
active

> <InChI>
InChI=1S/C20H28O3/c1-11-13-9-12-5-6-16-19(2,3)17(21)7-8-20(16,4)14(12)10-15(13)23-18(11)22/h9,14-17,21H,5-8,10H2,1-4H3/t14-,15-,16+,17-,20+/m0/s1

> <Matching Features>
H:14924486185440016873||HBA:14924321692640012300|HBA:14924486112070016868

> <Mol. Index>
478

> <Pharmacophore Match>
Model -1

> <# Confs.>
4

> <Source Database>
Pharm-Screening-input-NANPDB_After_DataWarror.ldb

> <Pharmacophore-Fit Score>
35.62

> <formula>
C20H28O3

> <Mutagenic>
none

> <Reproductive Effective>
none

> <Irritant>
none

$$$$
xysmalogenin
XX    ILIB03122402113D

 59 63  0  0  1  0              1 V2000
   -5.9580    0.7905   -3.5549 O   0  0  0  0  0
   -5.5520    1.6266   -2.7658 C   0  0  0  0  0
   -6.2662    2.6850   -2.2867 O   0  0  0  0  0
   -5.4528    3.4326   -1.3762 C   0  0  0  0  0
   -4.1688    2.7089   -1.3631 C   0  0  0  0  0
   -4.2146    1.6440   -2.1712 C   0  0  0  0  0
   -3.4427    0.9212   -2.3714 H   0  0  0  0  0
   -2.9968    3.1189   -0.5513 C   0  0  2  0  0
   -2.8745    2.5683    0.9008 C   0  0  2  0  0
   -1.7474    3.4719    1.4844 C   0  0  1  0  0
   -1.7936    3.4185    2.9088 O   0  0  0  0  0
   -1.4284    4.2489    3.2574 H   0  0  0  0  0
   -0.3003    3.1044    1.0015 C   0  0  2  0  0
    0.0041    1.5891    1.1080 C   0  0  2  0  0
    1.4613    1.2106    0.5986 C   0  0  2  0  0
    2.4886    2.3086    0.8871 C   0  0  0  0  0
    3.8994    2.0570    0.4119 C   0  0  0  0  0
    3.9026    1.8078   -1.0945 C   0  0  1  0  0
    5.2175    1.4325   -1.4898 O   0  0  0  0  0
    5.2010    1.2685   -2.4486 H   0  0  0  0  0
    2.9174    0.7103   -1.4911 C   0  0  0  0  0
    1.5084    0.9575   -0.9365 C   0  0  0  0  0
    1.0783    1.8187   -1.4638 H   0  0  0  0  0
    0.8990    0.0862   -1.2015 H   0  0  0  0  0
    3.2921   -0.2655   -1.1590 H   0  0  0  0  0
    2.8728    0.6387   -2.5853 H   0  0  0  0  0
    3.6504    2.7371   -1.6196 H   0  0  0  0  0
    4.3432    1.2101    0.9478 H   0  0  0  0  0
    4.5618    2.9047    0.6332 H   0  0  0  0  0
    2.1677    3.4871    1.4407 C   0  0  0  0  0
    0.7740    3.8872    1.7900 C   0  0  0  0  0
    0.6679    4.9573    1.5832 H   0  0  0  0  0
    0.6590    3.7570    2.8718 H   0  0  0  0  0
    2.9406    4.2301    1.6189 H   0  0  0  0  0
    1.8728   -0.0837    1.3494 C   0  0  0  0  0
    1.1682   -0.8988    1.1573 H   0  0  0  0  0
    2.8604   -0.4521    1.0606 H   0  0  0  0  0
    1.8997    0.0832    2.4321 H   0  0  0  0  0
   -1.0997    0.7625    0.4204 C   0  0  0  0  0
   -2.4859    1.0739    0.9634 C   0  0  0  0  0
   -3.2235    0.4699    0.4205 H   0  0  0  0  0
   -2.5231    0.7323    2.0073 H   0  0  0  0  0
   -0.9115   -0.3079    0.5609 H   0  0  0  0  0
   -1.1014    0.9355   -0.6601 H   0  0  0  0  0
   -0.0402    1.3438    2.1805 H   0  0  0  0  0
   -0.2044    3.3850   -0.0563 H   0  0  0  0  0
   -2.1659    4.8708    0.9862 C   0  0  0  0  0
   -2.8565    4.6578   -0.3669 C   0  0  0  0  0
   -2.2575    5.0854   -1.1792 H   0  0  0  0  0
   -3.8192    5.1791   -0.3719 H   0  0  0  0  0
   -2.8630    5.3410    1.6899 H   0  0  0  0  0
   -1.3279    5.5662    0.8900 H   0  0  0  0  0
   -4.1999    2.7098    1.6863 C   0  0  0  0  0
   -4.0740    2.4350    2.7397 H   0  0  0  0  0
   -4.5933    3.7304    1.6616 H   0  0  0  0  0
   -4.9732    2.0451    1.2853 H   0  0  0  0  0
   -2.0989    2.8280   -1.1131 H   0  0  0  0  0
   -5.9324    3.4560   -0.4041 H   0  0  0  0  0
   -5.3480    4.4579   -1.7679 H   0  0  0  0  0
  1  2  2  0  0  0
  2  3  1  0  0  0
  2  6  1  0  0  0
  3  4  1  0  0  0
  4  5  1  0  0  0
  4 58  1  0  0  0
  4 59  1  0  0  0
  5  6  2  0  0  0
  5  8  1  0  0  0
  6  7  1  0  0  0
  8  9  1  0  0  0
  8 48  1  0  0  0
  8 57  1  0  0  0
  9 10  1  0  0  0
  9 40  1  0  0  0
  9 53  1  0  0  0
 10 11  1  0  0  0
 10 13  1  0  0  0
 10 47  1  0  0  0
 11 12  1  0  0  0
 13 14  1  0  0  0
 13 31  1  0  0  0
 13 46  1  0  0  0
 14 15  1  0  0  0
 14 39  1  0  0  0
 14 45  1  0  0  0
 15 16  1  0  0  0
 15 22  1  0  0  0
 15 35  1  0  0  0
 16 17  1  0  0  0
 16 30  2  0  0  0
 17 18  1  0  0  0
 17 28  1  0  0  0
 17 29  1  0  0  0
 18 19  1  0  0  0
 18 21  1  0  0  0
 18 27  1  0  0  0
 19 20  1  0  0  0
 21 22  1  0  0  0
 21 25  1  0  0  0
 21 26  1  0  0  0
 22 23  1  0  0  0
 22 24  1  0  0  0
 30 31  1  0  0  0
 30 34  1  0  0  0
 31 32  1  0  0  0
 31 33  1  0  0  0
 35 36  1  0  0  0
 35 37  1  0  0  0
 35 38  1  0  0  0
 39 40  1  0  0  0
 39 43  1  0  0  0
 39 44  1  0  0  0
 40 41  1  0  0  0
 40 42  1  0  0  0
 47 48  1  0  0  0
 47 51  1  0  0  0
 47 52  1  0  0  0
 48 49  1  0  0  0
 48 50  1  0  0  0
 53 54  1  0  0  0
 53 55  1  0  0  0
 53 56  1  0  0  0
M  END
> <Tumorigenic>
none

> <Score>
35.615685

> <Active/Decoy>
active

> <InChI>
InChI=1S/C23H32O4/c1-21-8-5-16(24)12-15(21)3-4-19-18(21)6-9-22(2)17(7-10-23(19,22)26)14-11-20(25)27-13-14/h3,11,16-19,24,26H,4-10,12-13H2,1-2H3/t16-,17+,18+,19-,21-,22+,23-/m0/s1

> <Matching Features>
H:14924486185440016873||HBA:14924321692640012300|HBA:14924486112070016868

> <Mol. Index>
93

> <Pharmacophore Match>
Model -1

> <# Confs.>
4

> <Source Database>
Pharm-Screening-input-NANPDB_After_DataWarror.ldb

> <Pharmacophore-Fit Score>
35.62

> <formula>
C23H32O4

> <Mutagenic>
none

> <Reproductive Effective>
none

> <Irritant>
none

$$$$
glaberin 5s
XX    ILIB03122402113D

 51 53  0  0  1  0              1 V2000
    4.8929    0.8564   -0.5026 F   0  0  0  0  0
    3.6845    1.2780   -0.9359 C   0  0  0  0  0
    3.4119    2.4463   -0.3121 F   0  0  0  0  0
    3.7974    1.5443   -2.2571 F   0  0  0  0  0
    2.6071    0.2501   -0.6738 C   0  0  2  0  0
    3.0314   -0.9037   -1.3929 O   0  0  0  0  0
    2.1327   -1.9982   -1.2679 C   0  0  0  0  0
    2.0176   -2.2845   -0.2178 H   0  0  0  0  0
    1.1583   -1.7563   -1.7025 H   0  0  0  0  0
    2.5522   -2.8461   -1.8153 H   0  0  0  0  0
    1.3522    0.7962   -1.2799 C   0  0  0  0  0
    0.7953    0.3028   -2.2598 O   0  0  0  0  0
    0.9455    1.9123   -0.6300 O   0  0  0  0  0
   -0.2178    2.5956   -1.1175 C   0  0  1  0  0
   -1.4867    2.0504   -0.4371 C   0  0  0  0  0
   -2.7489    2.3942   -1.1764 C   0  0  0  0  0
   -3.2437    1.5140   -2.1689 C   0  0  0  0  0
   -4.4236    1.8010   -2.8729 C   0  0  0  0  0
   -4.9904    1.0254   -3.8443 O   0  0  0  0  0
   -4.2884   -0.1785   -4.1468 C   0  0  0  0  0
   -3.2855    0.0349   -4.5315 H   0  0  0  0  0
   -4.8458   -0.6972   -4.9339 H   0  0  0  0  0
   -4.2432   -0.8399   -3.2759 H   0  0  0  0  0
   -5.0788    2.9762   -2.5547 C   0  0  0  0  0
   -6.2349    3.4286   -3.1188 O   0  0  0  0  0
   -6.4315    4.6638   -2.4029 C   0  0  0  0  0
   -5.3969    4.9341   -1.4388 O   0  0  0  0  0
   -4.6031    3.8386   -1.5944 C   0  0  0  0  0
   -3.4466    3.5783   -0.8916 C   0  0  0  0  0
   -3.0903    4.2745   -0.1390 H   0  0  0  0  0
   -7.3945    4.6182   -1.8821 H   0  0  0  0  0
   -6.4625    5.4875   -3.1257 H   0  0  0  0  0
   -2.6860    0.6030   -2.3708 H   0  0  0  0  0
   -1.4170    0.9581   -0.3604 H   0  0  0  0  0
   -1.5524    2.4227    0.5938 H   0  0  0  0  0
   -0.0496    4.0705   -0.7808 C   0  0  0  0  0
    0.0691    4.2202    0.2979 H   0  0  0  0  0
    0.8556    4.4648   -1.2549 H   0  0  0  0  0
   -0.9051    4.6593   -1.1249 H   0  0  0  0  0
   -0.2879    2.4863   -2.2034 H   0  0  0  0  0
    2.4652   -0.0695    0.8075 C   0  0  0  0  0
    3.5751   -0.5162    1.5389 C   0  0  0  0  0
    3.4559   -0.8192    2.8954 C   0  0  0  0  0
    2.2276   -0.6826    3.5383 C   0  0  0  0  0
    1.1150   -0.2451    2.8225 C   0  0  0  0  0
    1.2322    0.0578    1.4656 C   0  0  0  0  0
    0.3509    0.3918    0.9234 H   0  0  0  0  0
    0.1557   -0.1415    3.3208 H   0  0  0  0  0
    2.1363   -0.9178    4.5926 H   0  0  0  0  0
    4.3234   -1.1631    3.4512 H   0  0  0  0  0
    4.5411   -0.6318    1.0554 H   0  0  0  0  0
  1  2  1  0  0  0
  2  3  1  0  0  0
  2  4  1  0  0  0
  2  5  1  0  0  0
  5  6  1  0  0  0
  5 11  1  0  0  0
  5 41  1  0  0  0
  6  7  1  0  0  0
  7  8  1  0  0  0
  7  9  1  0  0  0
  7 10  1  0  0  0
 11 12  2  0  0  0
 11 13  1  0  0  0
 13 14  1  0  0  0
 14 15  1  0  0  0
 14 36  1  0  0  0
 14 40  1  0  0  0
 15 16  1  0  0  0
 15 34  1  0  0  0
 15 35  1  0  0  0
 16 17  2  0  0  0
 16 29  1  0  0  0
 17 18  1  0  0  0
 17 33  1  0  0  0
 18 19  1  0  0  0
 18 24  2  0  0  0
 19 20  1  0  0  0
 20 21  1  0  0  0
 20 22  1  0  0  0
 20 23  1  0  0  0
 24 25  1  0  0  0
 24 28  1  0  0  0
 25 26  1  0  0  0
 26 27  1  0  0  0
 26 31  1  0  0  0
 26 32  1  0  0  0
 27 28  1  0  0  0
 28 29  2  0  0  0
 29 30  1  0  0  0
 36 37  1  0  0  0
 36 38  1  0  0  0
 36 39  1  0  0  0
 41 42  2  0  0  0
 41 46  1  0  0  0
 42 43  1  0  0  0
 42 51  1  0  0  0
 43 44  2  0  0  0
 43 50  1  0  0  0
 44 45  1  0  0  0
 44 49  1  0  0  0
 45 46  2  0  0  0
 45 48  1  0  0  0
 46 47  1  0  0  0
M  END
> <Tumorigenic>
none

> <Score>
35.60684

> <Active/Decoy>
active

> <InChI>
InChI=1S/C21H21F3O6/c1-13(9-14-10-16(26-2)18-17(11-14)28-12-29-18)30-19(25)20(27-3,21(22,23)24)15-7-5-4-6-8-15/h4-8,10-11,13H,9,12H2,1-3H3/t13-,20-/m1/s1

> <Matching Features>
H:14924486185440016873||HBA:14924321692640012300|HBA:14924486112070016868

> <Mol. Index>
977

> <Pharmacophore Match>
Model -1

> <# Confs.>
25

> <Source Database>
Pharm-Screening-input-NANPDB_After_DataWarror.ldb

> <Pharmacophore-Fit Score>
35.61

> <formula>
C21H21F3O6

> <Mutagenic>
none

> <Reproductive Effective>
none

> <Irritant>
none

$$$$
euphornin C
XX    ILIB03122402113D

 79 81  0  0  1  0              1 V2000
   -2.5729   -0.7799   -1.0482 O   0  0  0  0  0
   -1.7914    0.1332   -1.3082 C   0  0  0  0  0
   -1.4524    1.1529   -0.2683 C   0  0  0  0  0
   -0.1626    1.2414    0.1015 C   0  0  0  0  0
    0.4159    2.2775    1.0517 C   0  0  2  0  0
    1.8374    2.7770    0.6602 C   0  0  2  0  0
    2.0662    4.0028    1.3695 O   0  0  0  0  0
    2.9673    4.3022    1.1585 H   0  0  0  0  0
    2.0991    3.0260   -0.8474 C   0  0  2  0  0
    3.4783    3.4053   -0.9956 O   0  0  0  0  0
    4.2606    2.6121   -1.7786 C   0  0  0  0  0
    3.9060    1.6028   -2.3736 O   0  0  0  0  0
    5.6479    3.1742   -1.8388 C   0  0  0  0  0
    6.3324    2.4105   -2.2200 H   0  0  0  0  0
    5.6676    4.0401   -2.5047 H   0  0  0  0  0
    5.9845    3.4536   -0.8366 H   0  0  0  0  0
    1.1663    4.1006   -1.4859 C   0  0  2  0  0
    0.6466    3.5474   -2.7969 C   0  0  0  0  0
   -0.6545    3.2934   -3.0089 C   0  0  0  0  0
   -1.2777    2.5063   -4.1543 C   0  0  0  0  0
   -2.0825    1.3125   -3.5282 C   0  0  1  0  0
   -2.7293    0.5792   -4.5836 O   0  0  0  0  0
   -4.0882    0.4982   -4.5419 C   0  0  0  0  0
   -4.8190    0.9889   -3.6916 O   0  0  0  0  0
   -4.5831   -0.2739   -5.7247 C   0  0  0  0  0
   -5.6184   -0.5799   -5.5505 H   0  0  0  0  0
   -4.5388    0.3534   -6.6202 H   0  0  0  0  0
   -3.9842   -1.1795   -5.8600 H   0  0  0  0  0
   -1.2207    0.3250   -2.7079 C   0  0  0  0  0
   -0.1804    0.6498   -2.6114 H   0  0  0  0  0
   -1.1799   -0.6640   -3.1823 H   0  0  0  0  0
   -2.8693    1.7413   -2.8898 H   0  0  0  0  0
   -0.2599    1.9919   -5.1956 C   0  0  0  0  0
    0.4792    1.3182   -4.7520 H   0  0  0  0  0
   -0.7579    1.4434   -6.0034 H   0  0  0  0  0
    0.2848    2.8212   -5.6630 H   0  0  0  0  0
   -2.2510    3.4513   -4.8876 C   0  0  0  0  0
   -3.0371    3.8192   -4.2184 H   0  0  0  0  0
   -2.7426    2.9492   -5.7277 H   0  0  0  0  0
   -1.7266    4.3262   -5.2925 H   0  0  0  0  0
   -1.3574    3.6083   -2.2380 H   0  0  0  0  0
    1.3903    3.2513   -3.5310 H   0  0  0  0  0
    1.8199    5.4642   -1.7135 C   0  0  0  0  0
    2.2243    5.8635   -0.7783 H   0  0  0  0  0
    1.0842    6.1852   -2.0881 H   0  0  0  0  0
    2.6306    5.4161   -2.4474 H   0  0  0  0  0
    0.3083    4.2645   -0.8243 H   0  0  0  0  0
    1.9599    2.0639   -1.3598 H   0  0  0  0  0
    2.7816    1.7004    1.2393 C   0  0  0  0  0
    2.0527    1.0727    2.4459 C   0  0  1  0  0
    0.6488    1.7382    2.4751 C   0  0  2  0  0
   -0.3898    0.8612    2.9186 O   0  0  0  0  0
   -0.6612    0.8399    4.2532 C   0  0  0  0  0
   -0.0871    1.4688    5.1279 O   0  0  0  0  0
   -1.7746   -0.0888    4.5237 C   0  0  0  0  0
   -2.2069   -0.2738    5.8377 C   0  0  0  0  0
   -3.2674   -1.1421    6.0863 C   0  0  0  0  0
   -3.8883   -1.8118    5.0297 C   0  0  0  0  0
   -3.4502   -1.6144    3.7187 C   0  0  0  0  0
   -2.3885   -0.7472    3.4584 C   0  0  0  0  0
   -2.0538   -0.5954    2.4369 H   0  0  0  0  0
   -3.9371   -2.1357    2.9003 H   0  0  0  0  0
   -4.7166   -2.4872    5.2282 H   0  0  0  0  0
   -3.6140   -1.2989    7.1045 H   0  0  0  0  0
   -1.7297    0.2477    6.6621 H   0  0  0  0  0
    0.7137    2.6069    3.1479 H   0  0  0  0  0
    2.0454   -0.4522    2.3697 C   0  0  0  0  0
    1.5889   -0.8884    3.2635 H   0  0  0  0  0
    1.4940   -0.8141    1.4969 H   0  0  0  0  0
    3.0683   -0.8371    2.3030 H   0  0  0  0  0
    2.5863    1.3471    3.3651 H   0  0  0  0  0
    2.9983    0.9316    0.4882 H   0  0  0  0  0
    3.7374    2.1293    1.5606 H   0  0  0  0  0
   -0.2633    3.1262    1.1203 H   0  0  0  0  0
    0.5478    0.5397   -0.3312 H   0  0  0  0  0
   -2.6058    1.9436    0.2623 C   0  0  0  0  0
   -2.9634    2.6497   -0.4918 H   0  0  0  0  0
   -2.3532    2.5089    1.1630 H   0  0  0  0  0
   -3.4351    1.2808    0.5306 H   0  0  0  0  0
  1  2  2  0  0  0
  2  3  1  0  0  0
  2 29  1  0  0  0
  3  4  2  0  0  0
  3 76  1  0  0  0
  4  5  1  0  0  0
  4 75  1  0  0  0
  5  6  1  0  0  0
  5 51  1  0  0  0
  5 74  1  0  0  0
  6  7  1  0  0  0
  6  9  1  0  0  0
  6 49  1  0  0  0
  7  8  1  0  0  0
  9 10  1  0  0  0
  9 17  1  0  0  0
  9 48  1  0  0  0
 10 11  1  0  0  0
 11 12  2  0  0  0
 11 13  1  0  0  0
 13 14  1  0  0  0
 13 15  1  0  0  0
 13 16  1  0  0  0
 17 18  1  0  0  0
 17 43  1  0  0  0
 17 47  1  0  0  0
 18 19  2  0  0  0
 18 42  1  0  0  0
 19 20  1  0  0  0
 19 41  1  0  0  0
 20 21  1  0  0  0
 20 33  1  0  0  0
 20 37  1  0  0  0
 21 22  1  0  0  0
 21 29  1  0  0  0
 21 32  1  0  0  0
 22 23  1  0  0  0
 23 24  2  0  0  0
 23 25  1  0  0  0
 25 26  1  0  0  0
 25 27  1  0  0  0
 25 28  1  0  0  0
 29 30  1  0  0  0
 29 31  1  0  0  0
 33 34  1  0  0  0
 33 35  1  0  0  0
 33 36  1  0  0  0
 37 38  1  0  0  0
 37 39  1  0  0  0
 37 40  1  0  0  0
 43 44  1  0  0  0
 43 45  1  0  0  0
 43 46  1  0  0  0
 49 50  1  0  0  0
 49 72  1  0  0  0
 49 73  1  0  0  0
 50 51  1  0  0  0
 50 67  1  0  0  0
 50 71  1  0  0  0
 51 52  1  0  0  0
 51 66  1  0  0  0
 52 53  1  0  0  0
 53 54  2  0  0  0
 53 55  1  0  0  0
 55 56  2  0  0  0
 55 60  1  0  0  0
 56 57  1  0  0  0
 56 65  1  0  0  0
 57 58  2  0  0  0
 57 64  1  0  0  0
 58 59  1  0  0  0
 58 63  1  0  0  0
 59 60  2  0  0  0
 59 62  1  0  0  0
 60 61  1  0  0  0
 67 68  1  0  0  0
 67 69  1  0  0  0
 67 70  1  0  0  0
 76 77  1  0  0  0
 76 78  1  0  0  0
 76 79  1  0  0  0
M  END
> <Tumorigenic>
none

> <Score>
35.599728

> <Active/Decoy>
active

> <InChI>
InChI=1S/C31H40O8/c1-18-13-14-30(6,7)26(37-21(4)32)16-25(34)19(2)15-24-27(39-29(35)23-11-9-8-10-12-23)20(3)17-31(24,36)28(18)38-22(5)33/h8-15,18,20,24,26-28,36H,16-17H2,1-7H3/b14-13-,19-15-/t18-,20-,24-,26-,27-,28+,31-/m0/s1

> <Matching Features>
H:14924486185440016873||HBA:14924321692640012300|HBA:14924486112070016868

> <Mol. Index>
482

> <Pharmacophore Match>
Model -1

> <# Confs.>
25

> <Source Database>
Pharm-Screening-input-NANPDB_After_DataWarror.ldb

> <Pharmacophore-Fit Score>
35.6

> <formula>
C31H40O8

> <Mutagenic>
none

> <Reproductive Effective>
none

> <Irritant>
none

$$$$
2-phenylethyl-O-beta-xylopyranosyl-(1?2)-beta-glucopyranoside
XX    ILIB03122402113D

 57 59  0  0  1  0              1 V2000
    1.9442    1.2583   -2.6673 O   0  0  0  0  0
    0.6751    1.7953   -2.3015 C   0  0  2  0  0
    0.1629    1.1204   -1.1597 O   0  0  0  0  0
   -0.0460   -0.2627   -1.3530 C   0  0  0  0  0
   -0.5941   -0.8689   -0.0676 C   0  0  0  0  0
    0.3246   -0.7031    1.1106 C   0  0  0  0  0
    0.2324    0.4215    1.9437 C   0  0  0  0  0
    1.0865    0.5658    3.0376 C   0  0  0  0  0
    2.0428   -0.4098    3.3104 C   0  0  0  0  0
    2.1460   -1.5302    2.4896 C   0  0  0  0  0
    1.2918   -1.6767    1.3944 C   0  0  0  0  0
    1.3859   -2.5599    0.7677 H   0  0  0  0  0
    2.8909   -2.2917    2.7013 H   0  0  0  0  0
    2.7073   -0.2969    4.1620 H   0  0  0  0  0
    1.0047    1.4390    3.6785 H   0  0  0  0  0
   -0.5085    1.1918    1.7462 H   0  0  0  0  0
   -1.5746   -0.4323    0.1648 H   0  0  0  0  0
   -0.7701   -1.9418   -0.2200 H   0  0  0  0  0
   -0.7481   -0.4383   -2.1794 H   0  0  0  0  0
    0.9016   -0.7564   -1.6101 H   0  0  0  0  0
   -0.3319    1.6456   -3.4540 C   0  0  1  0  0
   -1.5383    2.3601   -3.1751 O   0  0  0  0  0
   -2.5194    2.2539   -4.2006 C   0  0  2  0  0
   -3.6874    3.0461   -3.9536 O   0  0  0  0  0
   -4.4216    2.6441   -2.7970 C   0  0  0  0  0
   -4.9229    1.2104   -2.9266 C   0  0  1  0  0
   -5.9086    1.1773   -3.9551 O   0  0  0  0  0
   -6.2460    0.2667   -4.0079 H   0  0  0  0  0
   -3.7810    0.2468   -3.2598 C   0  0  2  0  0
   -2.9691    0.0604   -2.1033 O   0  0  0  0  0
   -3.5344   -0.3108   -1.4043 H   0  0  0  0  0
   -2.8982    0.7774   -4.3950 C   0  0  1  0  0
   -3.6050    0.6356   -5.6247 O   0  0  0  0  0
   -3.0137    0.9283   -6.3394 H   0  0  0  0  0
   -1.9886    0.1683   -4.4518 H   0  0  0  0  0
   -4.1891   -0.7294   -3.5477 H   0  0  0  0  0
   -5.4126    0.9224   -1.9896 H   0  0  0  0  0
   -3.7946    2.7678   -1.9066 H   0  0  0  0  0
   -5.2681    3.3327   -2.7064 H   0  0  0  0  0
   -2.0841    2.6280   -5.1359 H   0  0  0  0  0
    0.2365    2.2323   -4.7502 C   0  0  2  0  0
   -0.6101    1.8665   -5.8424 O   0  0  0  0  0
   -0.6138    0.8967   -5.9065 H   0  0  0  0  0
    1.6564    1.7371   -5.0263 C   0  0  1  0  0
    2.1895    2.4537   -6.1354 O   0  0  0  0  0
    2.2411    3.3917   -5.8862 H   0  0  0  0  0
    2.5409    1.9139   -3.7859 C   0  0  2  0  0
    3.9261    1.3176   -3.9665 C   0  0  0  0  0
    4.6951    1.5238   -2.7862 O   0  0  0  0  0
    4.2095    1.1179   -2.0482 H   0  0  0  0  0
    3.8827    0.2396   -4.1534 H   0  0  0  0  0
    4.4561    1.7985   -4.7941 H   0  0  0  0  0
    2.6583    2.9828   -3.5607 H   0  0  0  0  0
    1.6184    0.6797   -5.3142 H   0  0  0  0  0
    0.2160    3.3287   -4.7124 H   0  0  0  0  0
   -0.5721    0.5854   -3.6114 H   0  0  0  0  0
    0.7921    2.8718   -2.0513 H   0  0  0  0  0
  1  2  1  0  0  0
  1 47  1  0  0  0
  2  3  1  0  0  0
  2 21  1  0  0  0
  2 57  1  0  0  0
  3  4  1  0  0  0
  4  5  1  0  0  0
  4 19  1  0  0  0
  4 20  1  0  0  0
  5  6  1  0  0  0
  5 17  1  0  0  0
  5 18  1  0  0  0
  6  7  2  0  0  0
  6 11  1  0  0  0
  7  8  1  0  0  0
  7 16  1  0  0  0
  8  9  2  0  0  0
  8 15  1  0  0  0
  9 10  1  0  0  0
  9 14  1  0  0  0
 10 11  2  0  0  0
 10 13  1  0  0  0
 11 12  1  0  0  0
 21 22  1  0  0  0
 21 41  1  0  0  0
 21 56  1  0  0  0
 22 23  1  0  0  0
 23 24  1  0  0  0
 23 32  1  0  0  0
 23 40  1  0  0  0
 24 25  1  0  0  0
 25 26  1  0  0  0
 25 38  1  0  0  0
 25 39  1  0  0  0
 26 27  1  0  0  0
 26 29  1  0  0  0
 26 37  1  0  0  0
 27 28  1  0  0  0
 29 30  1  0  0  0
 29 32  1  0  0  0
 29 36  1  0  0  0
 30 31  1  0  0  0
 32 33  1  0  0  0
 32 35  1  0  0  0
 33 34  1  0  0  0
 41 42  1  0  0  0
 41 44  1  0  0  0
 41 55  1  0  0  0
 42 43  1  0  0  0
 44 45  1  0  0  0
 44 47  1  0  0  0
 44 54  1  0  0  0
 45 46  1  0  0  0
 47 48  1  0  0  0
 47 53  1  0  0  0
 48 49  1  0  0  0
 48 51  1  0  0  0
 48 52  1  0  0  0
 49 50  1  0  0  0
M  END
> <Tumorigenic>
none

> <Score>
35.587204

> <Active/Decoy>
active

> <InChI>
InChI=1S/C19H28O10/c20-8-12-14(23)15(24)17(29-18-16(25)13(22)11(21)9-27-18)19(28-12)26-7-6-10-4-2-1-3-5-10/h1-5,11-25H,6-9H2/t11-,12+,13+,14+,15-,16-,17+,18+,19+/m1/s1

> <Matching Features>
H:14924486185440016873||HBA:14924321692640012300|HBA:14924486112070016868

> <Mol. Index>
1371

> <Pharmacophore Match>
Model -1

> <# Confs.>
18

> <Source Database>
Pharm-Screening-input-NANPDB_After_DataWarror.ldb

> <Pharmacophore-Fit Score>
35.59

> <formula>
C19H28O10

> <Mutagenic>
none

> <Reproductive Effective>
none

> <Irritant>
none

$$$$
aliarin
XX    ILIB03122402113D

 54 56  0  0  1  0              1 V2000
    3.9998    1.4969   -2.0656 O   0  0  0  0  0
    3.0002    1.0927   -1.4857 C   0  0  0  0  0
    1.6661    1.1129   -2.1442 C   0  0  0  0  0
    1.5890    1.5527   -3.4409 O   0  0  0  0  0
    2.8304    1.9473   -4.0134 C   0  0  0  0  0
    3.2663    2.7885   -3.4656 H   0  0  0  0  0
    3.5298    1.1050   -4.0533 H   0  0  0  0  0
    2.6385    2.2761   -5.0392 H   0  0  0  0  0
    0.5835    0.7625   -1.4233 C   0  0  0  0  0
    0.6386    0.3077   -0.1165 O   0  0  0  0  0
    1.8566    0.2115    0.5052 C   0  0  0  0  0
    3.0581    0.5776   -0.1016 C   0  0  0  0  0
    4.2585    0.4543    0.6179 C   0  0  0  0  0
    5.4716    0.8324    0.1080 O   0  0  0  0  0
    5.3516    1.1649   -0.7965 H   0  0  0  0  0
    4.2423   -0.0517    1.9260 C   0  0  0  0  0
    5.3819   -0.1610    2.6710 O   0  0  0  0  0
    6.5753    0.2756    2.0258 C   0  0  0  0  0
    6.7861   -0.3261    1.1350 H   0  0  0  0  0
    7.4032    0.1343    2.7264 H   0  0  0  0  0
    6.5231    1.3374    1.7821 H   0  0  0  0  0
    3.0297   -0.3912    2.5244 C   0  0  0  0  0
    3.0272   -0.8532    3.8116 O   0  0  0  0  0
    2.1080   -1.0392    4.0727 H   0  0  0  0  0
    1.8369   -0.2679    1.8175 C   0  0  0  0  0
    0.8925   -0.5405    2.2823 H   0  0  0  0  0
   -0.7928    0.7982   -1.9589 C   0  0  0  0  0
   -1.1659    0.0364   -3.0825 C   0  0  0  0  0
   -2.4684    0.0604   -3.6051 C   0  0  0  0  0
   -3.4224    0.8763   -2.9651 C   0  0  0  0  0
   -4.7034    0.9102   -3.4475 O   0  0  0  0  0
   -5.2293    1.5143   -2.8958 H   0  0  0  0  0
   -3.0769    1.6480   -1.8583 C   0  0  0  0  0
   -1.7726    1.6082   -1.3614 C   0  0  0  0  0
   -1.5424    2.2220   -0.4939 H   0  0  0  0  0
   -3.8127    2.2818   -1.3718 H   0  0  0  0  0
   -2.8224   -0.8049   -4.7720 C   0  0  0  0  0
   -3.3254   -2.1816   -4.3938 C   0  0  0  0  0
   -3.7129   -3.1145   -5.5504 C   0  0  2  0  0
   -2.5926   -3.4217   -6.5125 C   0  0  0  0  0
   -1.5274   -4.0530   -5.8213 O   0  0  0  0  0
   -0.8303   -4.2333   -6.4741 H   0  0  0  0  0
   -2.2198   -2.5085   -6.9897 H   0  0  0  0  0
   -2.9437   -4.0887   -7.3091 H   0  0  0  0  0
   -4.9542   -2.5862   -6.2967 C   0  0  0  0  0
   -5.2675   -3.2974   -7.0702 H   0  0  0  0  0
   -4.7639   -1.6246   -6.7836 H   0  0  0  0  0
   -5.7951   -2.4542   -5.6080 H   0  0  0  0  0
   -4.0154   -4.0688   -5.0981 H   0  0  0  0  0
   -4.1997   -2.0687   -3.7205 H   0  0  0  0  0
   -2.5525   -2.6667   -3.8026 H   0  0  0  0  0
   -1.9401   -0.8950   -5.4103 H   0  0  0  0  0
   -3.5793   -0.2734   -5.3928 H   0  0  0  0  0
   -0.4381   -0.6105   -3.5697 H   0  0  0  0  0
  1  2  2  0  0  0
  2  3  1  0  0  0
  2 12  1  0  0  0
  3  4  1  0  0  0
  3  9  2  0  0  0
  4  5  1  0  0  0
  5  6  1  0  0  0
  5  7  1  0  0  0
  5  8  1  0  0  0
  9 10  1  0  0  0
  9 27  1  0  0  0
 10 11  1  0  0  0
 11 12  1  0  0  0
 11 25  2  0  0  0
 12 13  2  0  0  0
 13 14  1  0  0  0
 13 16  1  0  0  0
 14 15  1  0  0  0
 16 17  1  0  0  0
 16 22  2  0  0  0
 17 18  1  0  0  0
 18 19  1  0  0  0
 18 20  1  0  0  0
 18 21  1  0  0  0
 22 23  1  0  0  0
 22 25  1  0  0  0
 23 24  1  0  0  0
 25 26  1  0  0  0
 27 28  2  0  0  0
 27 34  1  0  0  0
 28 29  1  0  0  0
 28 54  1  0  0  0
 29 30  2  0  0  0
 29 37  1  0  0  0
 30 31  1  0  0  0
 30 33  1  0  0  0
 31 32  1  0  0  0
 33 34  2  0  0  0
 33 36  1  0  0  0
 34 35  1  0  0  0
 37 38  1  0  0  0
 37 52  1  0  0  0
 37 53  1  0  0  0
 38 39  1  0  0  0
 38 50  1  0  0  0
 38 51  1  0  0  0
 39 40  1  0  0  0
 39 45  1  0  0  0
 39 49  1  0  0  0
 40 41  1  0  0  0
 40 43  1  0  0  0
 40 44  1  0  0  0
 41 42  1  0  0  0
 45 46  1  0  0  0
 45 47  1  0  0  0
 45 48  1  0  0  0
M  END
> <Tumorigenic>
none

> <Score>
35.575417

> <Active/Decoy>
active

> <InChI>
InChI=1S/C22H24O8/c1-11(10-23)4-5-12-8-13(6-7-14(12)24)20-22(29-3)19(27)17-16(30-20)9-15(25)21(28-2)18(17)26/h6-9,11,23-26H,4-5,10H2,1-3H3/t11-/m1/s1

> <Matching Features>
H:14924486185440016873||HBA:14924321692640012300|HBA:14924486112070016868

> <Mol. Index>
747

> <Pharmacophore Match>
Model -1

> <# Confs.>
25

> <Source Database>
Pharm-Screening-input-NANPDB_After_DataWarror.ldb

> <Pharmacophore-Fit Score>
35.58

> <formula>
C22H24O8

> <Mutagenic>
none

> <Reproductive Effective>
none

> <Irritant>
none

$$$$
acetyldrimartol B
XX    ILIB03122402113D

 71 74  0  0  1  0              1 V2000
   -5.4399    1.0380   -4.0278 O   0  0  0  0  0
   -5.2301    0.9988   -2.8197 C   0  0  0  0  0
   -4.0539    1.4819   -2.2592 O   0  0  0  0  0
   -3.8141    1.4514   -0.8675 C   0  0  0  0  0
   -2.6137    1.9686   -0.3780 C   0  0  0  0  0
   -1.6483    2.4905   -1.1918 O   0  0  0  0  0
   -1.9510    2.4721   -2.5849 C   0  0  0  0  0
   -2.0732    1.4463   -2.9494 H   0  0  0  0  0
   -2.8362    3.0770   -2.8045 H   0  0  0  0  0
   -1.1026    2.9170   -3.1153 H   0  0  0  0  0
   -2.3528    1.8879    0.9941 C   0  0  0  0  0
   -1.1568    2.3339    1.4790 O   0  0  0  0  0
   -1.0869    3.7060    1.8442 C   0  0  0  0  0
   -0.0694    3.8777    2.9575 C   0  0  2  0  0
    1.4250    3.4517    2.6302 C   0  0  1  0  0
    1.5834    1.8976    2.7859 C   0  0  1  0  0
    2.9301    1.2651    2.2564 C   0  0  0  0  0
    3.2206    1.8102    0.8235 C   0  0  2  0  0
    4.5143    1.3686    0.3830 O   0  0  0  0  0
    4.6701    1.1935   -0.9459 C   0  0  0  0  0
    3.8204    1.3752   -1.8078 O   0  0  0  0  0
    6.0723    0.7462   -1.2317 C   0  0  0  0  0
    6.7743    1.5410   -0.9658 H   0  0  0  0  0
    6.1752    0.5280   -2.2988 H   0  0  0  0  0
    6.2919   -0.1676   -0.6746 H   0  0  0  0  0
    3.1746    3.3372    0.7432 C   0  0  0  0  0
    1.8194    3.8735    1.1916 C   0  0  0  0  0
    1.0855    3.4981    0.4702 H   0  0  0  0  0
    1.8120    4.9666    1.1017 H   0  0  0  0  0
    3.9954    3.7823    1.3153 H   0  0  0  0  0
    3.3560    3.6508   -0.2927 H   0  0  0  0  0
    2.4558    1.4093    0.1412 H   0  0  0  0  0
    4.1499    1.4707    3.1842 C   0  0  0  0  0
    3.9495    1.1474    4.2086 H   0  0  0  0  0
    5.0058    0.8756    2.8425 H   0  0  0  0  0
    4.4953    2.5029    3.2148 H   0  0  0  0  0
    2.7530   -0.2747    2.1400 C   0  0  0  0  0
    3.6267   -0.7455    1.6754 H   0  0  0  0  0
    2.6238   -0.7426    3.1215 H   0  0  0  0  0
    1.8812   -0.5294    1.5275 H   0  0  0  0  0
    1.1809    1.4282    4.2013 C   0  0  0  0  0
   -0.0174    2.1252    4.7686 C   0  0  0  0  0
   -0.5929    3.2172    4.2383 C   0  0  0  0  0
   -1.7583    3.8745    4.9267 C   0  0  0  0  0
   -1.9683    3.4238    5.9031 H   0  0  0  0  0
   -2.6676    3.7882    4.3256 H   0  0  0  0  0
   -1.5501    4.9354    5.0983 H   0  0  0  0  0
   -0.4114    1.7086    5.6921 H   0  0  0  0  0
    0.9605    0.3547    4.1802 H   0  0  0  0  0
    1.9992    1.5692    4.9135 H   0  0  0  0  0
    0.8220    1.4670    2.1207 H   0  0  0  0  0
    2.3268    4.2436    3.6215 C   0  0  0  0  0
    2.1961    3.9273    4.6600 H   0  0  0  0  0
    3.3872    4.1714    3.3892 H   0  0  0  0  0
    2.0931    5.3142    3.5817 H   0  0  0  0  0
   -0.0526    4.9583    3.1605 H   0  0  0  0  0
   -0.8207    4.3437    0.9893 H   0  0  0  0  0
   -2.0805    4.0514    2.2036 H   0  0  0  0  0
   -3.2823    1.3060    1.8729 C   0  0  0  0  0
   -2.9164    1.2532    3.1879 O   0  0  0  0  0
   -3.8720    0.6590    4.0633 C   0  0  0  0  0
   -4.8059    1.2303    4.0741 H   0  0  0  0  0
   -4.0533   -0.3885    3.7966 H   0  0  0  0  0
   -3.4540    0.6795    5.0738 H   0  0  0  0  0
   -4.4921    0.8182    1.3594 C   0  0  0  0  0
   -4.7594    0.8881   -0.0131 C   0  0  0  0  0
   -5.9991    0.3761   -0.5738 C   0  0  0  0  0
   -6.2215    0.4333   -1.8890 C   0  0  0  0  0
   -7.1465    0.0561   -2.3119 H   0  0  0  0  0
   -6.7413   -0.0491    0.0933 H   0  0  0  0  0
   -5.2353    0.3666    2.0120 H   0  0  0  0  0
  1  2  2  0  0  0
  2  3  1  0  0  0
  2 68  1  0  0  0
  3  4  1  0  0  0
  4  5  2  0  0  0
  4 66  1  0  0  0
  5  6  1  0  0  0
  5 11  1  0  0  0
  6  7  1  0  0  0
  7  8  1  0  0  0
  7  9  1  0  0  0
  7 10  1  0  0  0
 11 12  1  0  0  0
 11 59  2  0  0  0
 12 13  1  0  0  0
 13 14  1  0  0  0
 13 57  1  0  0  0
 13 58  1  0  0  0
 14 15  1  0  0  0
 14 43  1  0  0  0
 14 56  1  0  0  0
 15 16  1  0  0  0
 15 27  1  0  0  0
 15 52  1  0  0  0
 16 17  1  0  0  0
 16 41  1  0  0  0
 16 51  1  0  0  0
 17 18  1  0  0  0
 17 33  1  0  0  0
 17 37  1  0  0  0
 18 19  1  0  0  0
 18 26  1  0  0  0
 18 32  1  0  0  0
 19 20  1  0  0  0
 20 21  2  0  0  0
 20 22  1  0  0  0
 22 23  1  0  0  0
 22 24  1  0  0  0
 22 25  1  0  0  0
 26 27  1  0  0  0
 26 30  1  0  0  0
 26 31  1  0  0  0
 27 28  1  0  0  0
 27 29  1  0  0  0
 33 34  1  0  0  0
 33 35  1  0  0  0
 33 36  1  0  0  0
 37 38  1  0  0  0
 37 39  1  0  0  0
 37 40  1  0  0  0
 41 42  1  0  0  0
 41 49  1  0  0  0
 41 50  1  0  0  0
 42 43  2  0  0  0
 42 48  1  0  0  0
 43 44  1  0  0  0
 44 45  1  0  0  0
 44 46  1  0  0  0
 44 47  1  0  0  0
 52 53  1  0  0  0
 52 54  1  0  0  0
 52 55  1  0  0  0
 59 60  1  0  0  0
 59 65  1  0  0  0
 60 61  1  0  0  0
 61 62  1  0  0  0
 61 63  1  0  0  0
 61 64  1  0  0  0
 65 66  2  0  0  0
 65 71  1  0  0  0
 66 67  1  0  0  0
 67 68  2  0  0  0
 67 70  1  0  0  0
 68 69  1  0  0  0
M  END
> <Tumorigenic>
none

> <Score>
35.57575

> <Active/Decoy>
active

> <InChI>
InChI=1S/C28H36O7/c1-16-8-10-21-27(3,4)22(34-17(2)29)12-13-28(21,5)19(16)15-33-25-20(31-6)14-18-9-11-23(30)35-24(18)26(25)32-7/h8-9,11,14,19,21-22H,10,12-13,15H2,1-7H3/t19-,21+,22+,28-/m0/s1

> <Matching Features>
H:14924486185440016873||HBA:14924321692640012300|HBA:14924486112070016868

> <Mol. Index>
437

> <Pharmacophore Match>
Model -1

> <# Confs.>
25

> <Source Database>
Pharm-Screening-input-NANPDB_After_DataWarror.ldb

> <Pharmacophore-Fit Score>
35.58

> <formula>
C28H36O7

> <Mutagenic>
none

> <Reproductive Effective>
none

> <Irritant>
none

$$$$
ladanein
XX    ILIB03122402113D

 37 39  0  0  1  0              1 V2000
    3.9826    1.4985   -2.0755 O   0  0  0  0  0
    2.9918    1.1335   -1.4587 C   0  0  0  0  0
    3.0575    0.6054   -0.0814 C   0  0  0  0  0
    4.2542    0.4811    0.6312 C   0  0  0  0  0
    5.4735    0.8250    0.1151 O   0  0  0  0  0
    5.3613    1.1483   -0.7925 H   0  0  0  0  0
    4.2386   -0.0195    1.9382 C   0  0  0  0  0
    5.4083   -0.1466    2.6445 O   0  0  0  0  0
    6.1391    0.1602    2.0798 H   0  0  0  0  0
    3.0427   -0.4001    2.5539 C   0  0  0  0  0
    3.1441   -0.8752    3.8301 O   0  0  0  0  0
    1.9123   -1.2571    4.4378 C   0  0  0  0  0
    1.2349   -0.4012    4.5282 H   0  0  0  0  0
    2.1348   -1.6150    5.4473 H   0  0  0  0  0
    1.4380   -2.0778    3.8902 H   0  0  0  0  0
    1.8493   -0.2738    1.8383 C   0  0  0  0  0
    1.8616    0.2239    0.5290 C   0  0  0  0  0
    0.6392    0.3118   -0.0922 O   0  0  0  0  0
    0.5724    0.7603   -1.3979 C   0  0  0  0  0
    1.6573    1.1764   -2.0897 C   0  0  0  0  0
    1.6130    1.5422   -3.1093 H   0  0  0  0  0
   -0.7848    0.7949   -1.9546 C   0  0  0  0  0
   -1.8990    0.9877   -1.1466 C   0  0  0  0  0
   -3.1906    1.0196   -1.6819 C   0  0  0  0  0
   -3.3988    0.8588   -3.0464 C   0  0  0  0  0
   -4.6997    0.9145   -3.4575 O   0  0  0  0  0
   -4.9097    0.7530   -4.8583 C   0  0  0  0  0
   -4.4255    1.5636   -5.4214 H   0  0  0  0  0
   -5.9874    0.8164   -5.0434 H   0  0  0  0  0
   -4.5690   -0.2304   -5.1989 H   0  0  0  0  0
   -2.2945    0.6653   -3.8851 C   0  0  0  0  0
   -1.0013    0.6321   -3.3462 C   0  0  0  0  0
   -0.1724    0.4831   -4.0350 H   0  0  0  0  0
   -2.3999    0.5354   -4.9579 H   0  0  0  0  0
   -4.0355    1.1714   -1.0141 H   0  0  0  0  0
   -1.7914    1.1164   -0.0716 H   0  0  0  0  0
    0.8942   -0.5564    2.2722 H   0  0  0  0  0
  1  2  2  0  0  0
  2  3  1  0  0  0
  2 20  1  0  0  0
  3  4  2  0  0  0
  3 17  1  0  0  0
  4  5  1  0  0  0
  4  7  1  0  0  0
  5  6  1  0  0  0
  7  8  1  0  0  0
  7 10  2  0  0  0
  8  9  1  0  0  0
 10 11  1  0  0  0
 10 16  1  0  0  0
 11 12  1  0  0  0
 12 13  1  0  0  0
 12 14  1  0  0  0
 12 15  1  0  0  0
 16 17  2  0  0  0
 16 37  1  0  0  0
 17 18  1  0  0  0
 18 19  1  0  0  0
 19 20  2  0  0  0
 19 22  1  0  0  0
 20 21  1  0  0  0
 22 23  2  0  0  0
 22 32  1  0  0  0
 23 24  1  0  0  0
 23 36  1  0  0  0
 24 25  2  0  0  0
 24 35  1  0  0  0
 25 26  1  0  0  0
 25 31  1  0  0  0
 26 27  1  0  0  0
 27 28  1  0  0  0
 27 29  1  0  0  0
 27 30  1  0  0  0
 31 32  2  0  0  0
 31 34  1  0  0  0
 32 33  1  0  0  0
M  END
> <Tumorigenic>
none

> <Score>
35.56897

> <Active/Decoy>
active

> <InChI>
InChI=1S/C17H14O6/c1-21-10-5-3-9(4-6-10)12-7-11(18)15-13(23-12)8-14(22-2)16(19)17(15)20/h3-8,19-20H,1-2H3

> <Matching Features>
H:14924486185440016873||HBA:14924321692640012300|HBA:14924486112070016868

> <Mol. Index>
694

> <Pharmacophore Match>
Model -1

> <# Confs.>
7

> <Source Database>
Pharm-Screening-input-NANPDB_After_DataWarror.ldb

> <Pharmacophore-Fit Score>
35.57

> <formula>
C17H14O6

> <Mutagenic>
none

> <Reproductive Effective>
none

> <Irritant>
none

$$$$
kaempferol-3,6-dimethyl ether
XX    ILIB03122402113D

 37 39  0  0  1  0              1 V2000
    3.9937    1.4952   -2.0631 O   0  0  0  0  0
    2.9975    1.0809   -1.4861 C   0  0  0  0  0
    1.6696    1.0995   -2.1549 C   0  0  0  0  0
    1.5942    1.5386   -3.4445 O   0  0  0  0  0
    2.7529    1.3301   -4.2248 C   0  0  0  0  0
    3.6123    1.8593   -3.8010 H   0  0  0  0  0
    2.5670    1.7348   -5.2246 H   0  0  0  0  0
    2.9659    0.2610   -4.3274 H   0  0  0  0  0
    0.5783    0.7602   -1.4220 C   0  0  0  0  0
    0.6310    0.3620   -0.0953 O   0  0  0  0  0
    1.8512    0.2203    0.5101 C   0  0  0  0  0
    3.0548    0.5408   -0.1103 C   0  0  0  0  0
    4.2637    0.3617    0.5853 C   0  0  0  0  0
    5.4353    0.6782   -0.0532 O   0  0  0  0  0
    6.1939    0.5139    0.5279 H   0  0  0  0  0
    4.2737   -0.1361    1.9048 C   0  0  0  0  0
    3.0416   -0.4400    2.5018 C   0  0  0  0  0
    3.0130   -0.9181    3.7871 O   0  0  0  0  0
    2.0879   -1.0672    4.0464 H   0  0  0  0  0
    1.8391   -0.2663    1.8153 C   0  0  0  0  0
    0.8936   -0.5099    2.2935 H   0  0  0  0  0
    5.5658   -0.3381    2.6485 C   0  0  0  0  0
    6.1978   -1.0568    2.1170 H   0  0  0  0  0
    6.0980    0.6137    2.7469 H   0  0  0  0  0
    5.4136   -0.7288    3.6589 H   0  0  0  0  0
   -0.7990    0.8004   -1.9496 C   0  0  0  0  0
   -1.3499    2.0028   -2.4281 C   0  0  0  0  0
   -2.6535    2.0523   -2.9306 C   0  0  0  0  0
   -3.4232    0.8943   -2.9631 C   0  0  0  0  0
   -4.7004    0.9107   -3.4477 O   0  0  0  0  0
   -4.9133    1.8191   -3.7230 H   0  0  0  0  0
   -2.9049   -0.3088   -2.5005 C   0  0  0  0  0
   -1.6019   -0.3547   -1.9978 C   0  0  0  0  0
   -1.2268   -1.3143   -1.6483 H   0  0  0  0  0
   -3.5029   -1.2154   -2.5264 H   0  0  0  0  0
   -3.0507    2.9960   -3.2916 H   0  0  0  0  0
   -0.7756    2.9267   -2.4156 H   0  0  0  0  0
  1  2  2  0  0  0
  2  3  1  0  0  0
  2 12  1  0  0  0
  3  4  1  0  0  0
  3  9  2  0  0  0
  4  5  1  0  0  0
  5  6  1  0  0  0
  5  7  1  0  0  0
  5  8  1  0  0  0
  9 10  1  0  0  0
  9 26  1  0  0  0
 10 11  1  0  0  0
 11 12  1  0  0  0
 11 20  2  0  0  0
 12 13  2  0  0  0
 13 14  1  0  0  0
 13 16  1  0  0  0
 14 15  1  0  0  0
 16 17  2  0  0  0
 16 22  1  0  0  0
 17 18  1  0  0  0
 17 20  1  0  0  0
 18 19  1  0  0  0
 20 21  1  0  0  0
 22 23  1  0  0  0
 22 24  1  0  0  0
 22 25  1  0  0  0
 26 27  2  0  0  0
 26 33  1  0  0  0
 27 28  1  0  0  0
 27 37  1  0  0  0
 28 29  2  0  0  0
 28 36  1  0  0  0
 29 30  1  0  0  0
 29 32  1  0  0  0
 30 31  1  0  0  0
 32 33  2  0  0  0
 32 35  1  0  0  0
 33 34  1  0  0  0
M  END
> <Tumorigenic>
none

> <Score>
35.565678

> <Active/Decoy>
active

> <InChI>
InChI=1S/C17H14O6/c1-8-11(19)7-12-13(14(8)20)15(21)17(22-2)16(23-12)9-3-5-10(18)6-4-9/h3-7,18-20H,1-2H3

> <Matching Features>
H:14924486185440016873||HBA:14924321692640012300|HBA:14924486112070016868

> <Mol. Index>
126

> <Pharmacophore Match>
Model -1

> <# Confs.>
2

> <Source Database>
Pharm-Screening-input-NANPDB_After_DataWarror.ldb

> <Pharmacophore-Fit Score>
35.57

> <formula>
C17H14O6

> <Mutagenic>
none

> <Reproductive Effective>
none

> <Irritant>
none

$$$$
15-O-methyllatrunculin B
XX    ILIB03122402113D

 59 61  0  0  1  0              1 V2000
   -3.8982   -1.3554   -4.1809 S   0  0  0  0  0
   -4.0956    0.2530   -3.4980 C   0  0  0  0  0
   -4.9834    1.0218   -3.8328 O   0  0  0  0  0
   -3.1091    0.4680   -2.5620 N   0  0  0  0  0
   -2.2415   -0.6496   -2.2594 C   0  0  1  0  0
   -2.2382   -1.5650   -3.4725 C   0  0  0  0  0
   -1.5099   -1.2455   -4.2243 H   0  0  0  0  0
   -2.0449   -2.6097   -3.2139 H   0  0  0  0  0
   -0.8511   -0.2201   -1.8030 C   0  0  2  0  0
   -0.9697    0.6018   -0.6335 O   0  0  0  0  0
    0.2603    1.1654   -0.1611 C   0  0  1  0  0
    0.8532    2.0817   -1.2374 C   0  0  0  0  0
    1.1438    1.2679   -2.5040 C   0  0  1  0  0
    2.1151    0.2496   -2.1906 O   0  0  0  0  0
    3.4013    0.6494   -2.0208 C   0  0  0  0  0
    3.9399    1.6446   -2.4713 O   0  0  0  0  0
    3.9876   -0.2913   -1.0475 C   0  0  0  0  0
    4.4683    0.1235    0.1390 C   0  0  0  0  0
    4.8828   -0.9031    1.1752 C   0  0  0  0  0
    3.7011   -1.5475    1.9228 C   0  0  0  0  0
    2.8443   -0.5592    2.6671 C   0  0  0  0  0
    1.5072   -0.4954    2.5522 C   0  0  0  0  0
    0.5699    0.4705    3.2451 C   0  0  2  0  0
   -0.5097    1.0502    2.2931 C   0  0  0  0  0
   -0.0177    1.9383    1.1353 C   0  0  0  0  0
   -0.8112    2.6683    0.9283 H   0  0  0  0  0
    0.8679    2.5084    1.4350 H   0  0  0  0  0
   -1.1904    1.6560    2.9047 H   0  0  0  0  0
   -1.1238    0.2293    1.9022 H   0  0  0  0  0
    1.2561    1.5867    4.0413 C   0  0  0  0  0
    0.5156    2.2510    4.4988 H   0  0  0  0  0
    1.8578    1.1696    4.8565 H   0  0  0  0  0
    1.9160    2.1964    3.4156 H   0  0  0  0  0
    0.0183   -0.1339    3.9807 H   0  0  0  0  0
    1.0198   -1.2260    1.9102 H   0  0  0  0  0
    3.3676    0.1219    3.3293 H   0  0  0  0  0
    3.0965   -2.1301    1.2170 H   0  0  0  0  0
    4.1046   -2.2607    2.6501 H   0  0  0  0  0
    5.5726   -0.4445    1.8967 H   0  0  0  0  0
    5.4616   -1.6979    0.6863 H   0  0  0  0  0
    4.6075    1.5576    0.5787 C   0  0  0  0  0
    4.0508    1.7355    1.5029 H   0  0  0  0  0
    4.2432    2.2831   -0.1496 H   0  0  0  0  0
    5.6619    1.7868    0.7665 H   0  0  0  0  0
    3.8782   -1.3493   -1.2666 H   0  0  0  0  0
   -0.1527    0.5832   -2.9545 C   0  0  0  0  0
    0.0676   -0.0931   -3.7893 H   0  0  0  0  0
   -0.8149    1.3758   -3.3197 H   0  0  0  0  0
    1.5238    1.9062   -3.3090 H   0  0  0  0  0
    0.1450    2.8828   -1.4818 H   0  0  0  0  0
    1.7697    2.5473   -0.8597 H   0  0  0  0  0
    0.9575    0.3537    0.0587 H   0  0  0  0  0
   -0.0334   -1.3700   -1.6043 O   0  0  0  0  0
   -0.5480   -2.2364   -0.6015 C   0  0  0  0  0
   -0.6300   -1.7116    0.3553 H   0  0  0  0  0
   -1.5212   -2.6412   -0.8951 H   0  0  0  0  0
    0.1492   -3.0703   -0.4821 H   0  0  0  0  0
   -2.7248   -1.1922   -1.4155 H   0  0  0  0  0
   -3.0990    1.3201   -2.0100 H   0  0  0  0  0
  1  2  1  0  0  0
  1  6  1  0  0  0
  2  3  2  0  0  0
  2  4  1  0  0  0
  4  5  1  0  0  0
  4 59  1  0  0  0
  5  6  1  0  0  0
  5  9  1  0  0  0
  5 58  1  0  0  0
  6  7  1  0  0  0
  6  8  1  0  0  0
  9 10  1  0  0  0
  9 46  1  0  0  0
  9 53  1  0  0  0
 10 11  1  0  0  0
 11 12  1  0  0  0
 11 25  1  0  0  0
 11 52  1  0  0  0
 12 13  1  0  0  0
 12 50  1  0  0  0
 12 51  1  0  0  0
 13 14  1  0  0  0
 13 46  1  0  0  0
 13 49  1  0  0  0
 14 15  1  0  0  0
 15 16  2  0  0  0
 15 17  1  0  0  0
 17 18  2  0  0  0
 17 45  1  0  0  0
 18 19  1  0  0  0
 18 41  1  0  0  0
 19 20  1  0  0  0
 19 39  1  0  0  0
 19 40  1  0  0  0
 20 21  1  0  0  0
 20 37  1  0  0  0
 20 38  1  0  0  0
 21 22  2  0  0  0
 21 36  1  0  0  0
 22 23  1  0  0  0
 22 35  1  0  0  0
 23 24  1  0  0  0
 23 30  1  0  0  0
 23 34  1  0  0  0
 24 25  1  0  0  0
 24 28  1  0  0  0
 24 29  1  0  0  0
 25 26  1  0  0  0
 25 27  1  0  0  0
 30 31  1  0  0  0
 30 32  1  0  0  0
 30 33  1  0  0  0
 41 42  1  0  0  0
 41 43  1  0  0  0
 41 44  1  0  0  0
 46 47  1  0  0  0
 46 48  1  0  0  0
 53 54  1  0  0  0
 54 55  1  0  0  0
 54 56  1  0  0  0
 54 57  1  0  0  0
M  END
> <Tumorigenic>
none

> <Score>
35.561222

> <Active/Decoy>
active

> <InChI>
InChI=1S/C21H31NO5S/c1-14-6-4-5-7-15(2)10-19(23)26-17-11-16(9-8-14)27-21(12-17,25-3)18-13-28-20(24)22-18/h4,6,10,14,16-18H,5,7-9,11-13H2,1-3H3,(H,22,24)/b6-4+,15-10-/t14-,16-,17-,18+,21-/m1/s1

> <Matching Features>
H:14924486185440016873||HBA:14924321692640012300|HBA:14924486112070016868

> <Mol. Index>
683

> <Pharmacophore Match>
Model -1

> <# Confs.>
15

> <Source Database>
Pharm-Screening-input-NANPDB_After_DataWarror.ldb

> <Pharmacophore-Fit Score>
35.56

> <formula>
C21H31NO5S

> <Mutagenic>
none

> <Reproductive Effective>
none

> <Irritant>
none

$$$$
humistratagenin
XX    ILIB03122402113D

 59 63  0  0  1  0              1 V2000
   -5.7500    0.7526   -3.3864 O   0  0  0  0  0
   -5.0753    1.3744   -2.5835 C   0  0  0  0  0
   -4.9802    2.7325   -2.5033 O   0  0  0  0  0
   -4.0851    3.0833   -1.4423 C   0  0  0  0  0
   -3.6758    1.7863   -0.8735 C   0  0  0  0  0
   -4.2433    0.7745   -1.5392 C   0  0  0  0  0
   -4.1340   -0.2829   -1.3711 H   0  0  0  0  0
   -2.7333    1.6584    0.2650 C   0  0  2  0  0
   -1.2094    1.5712   -0.0272 C   0  0  2  0  0
   -0.6689    1.1401    1.3733 C   0  0  2  0  0
   -0.9284    2.1764    2.3421 O   0  0  0  0  0
   -0.6165    1.8589    3.2071 H   0  0  0  0  0
    0.8323    0.9830    1.2963 C   0  0  0  0  0
    1.4680   -0.1854    1.4790 C   0  0  0  0  0
    2.9299   -0.3910    1.2392 C   0  0  0  0  0
    3.5773    0.7630    0.4569 C   0  0  1  0  0
    3.1296    2.1573    0.9670 C   0  0  2  0  0
    3.4846    2.4068    2.4128 C   0  0  0  0  0
    4.0649    1.5949    3.1291 O   0  0  0  0  0
    3.1360    3.3650    2.8370 H   0  0  0  0  0
    1.5589    2.2809    0.9048 C   0  0  1  0  0
    0.9804    2.8221   -0.4290 C   0  0  0  0  0
   -0.5634    2.9004   -0.4414 C   0  0  0  0  0
   -0.8779    3.7013    0.2389 H   0  0  0  0  0
   -0.9016    3.2000   -1.4404 H   0  0  0  0  0
    1.3526    3.8374   -0.6108 H   0  0  0  0  0
    1.3255    2.2062   -1.2665 H   0  0  0  0  0
    1.2789    3.0314    1.6592 H   0  0  0  0  0
    3.8557    3.2646    0.1511 C   0  0  0  0  0
    5.3816    3.0945    0.0666 C   0  0  1  0  0
    5.9671    3.3585    1.3372 O   0  0  0  0  0
    6.9307    3.2800    1.2366 H   0  0  0  0  0
    5.7791    1.6995   -0.4155 C   0  0  2  0  0
    5.4153    1.5724   -1.7888 O   0  0  0  0  0
    5.6908    0.6878   -2.0851 H   0  0  0  0  0
    5.1060    0.5935    0.4005 C   0  0  0  0  0
    5.3328   -0.3790   -0.0554 H   0  0  0  0  0
    5.5304    0.5751    1.4095 H   0  0  0  0  0
    6.8672    1.5777   -0.3494 H   0  0  0  0  0
    5.7648    3.8492   -0.6319 H   0  0  0  0  0
    3.4833    3.2684   -0.8802 H   0  0  0  0  0
    3.6294    4.2489    0.5826 H   0  0  0  0  0
    3.2145    0.6743   -0.5786 H   0  0  0  0  0
    3.4273   -0.5625    2.1998 H   0  0  0  0  0
    3.0564   -1.3154    0.6631 H   0  0  0  0  0
    0.9115   -1.0724    1.7657 H   0  0  0  0  0
   -1.6109   -0.0125    1.7447 C   0  0  0  0  0
   -2.9905    0.4289    1.2009 C   0  0  0  0  0
   -3.4678   -0.4112    0.6868 H   0  0  0  0  0
   -3.6527    0.7184    2.0254 H   0  0  0  0  0
   -1.3232   -0.9564    1.2704 H   0  0  0  0  0
   -1.6658   -0.1835    2.8248 H   0  0  0  0  0
   -0.9159    0.5078   -1.1327 C   0  0  0  0  0
   -1.2250    0.8788   -2.1164 H   0  0  0  0  0
    0.1484    0.2668   -1.2118 H   0  0  0  0  0
   -1.4389   -0.4372   -0.9618 H   0  0  0  0  0
   -2.8958    2.5421    0.9016 H   0  0  0  0  0
   -4.6397    3.6922   -0.7107 H   0  0  0  0  0
   -3.2560    3.6549   -1.8461 H   0  0  0  0  0
  1  2  2  0  0  0
  2  3  1  0  0  0
  2  6  1  0  0  0
  3  4  1  0  0  0
  4  5  1  0  0  0
  4 58  1  0  0  0
  4 59  1  0  0  0
  5  6  2  0  0  0
  5  8  1  0  0  0
  6  7  1  0  0  0
  8  9  1  0  0  0
  8 48  1  0  0  0
  8 57  1  0  0  0
  9 10  1  0  0  0
  9 23  1  0  0  0
  9 53  1  0  0  0
 10 11  1  0  0  0
 10 13  1  0  0  0
 10 47  1  0  0  0
 11 12  1  0  0  0
 13 14  2  0  0  0
 13 21  1  0  0  0
 14 15  1  0  0  0
 14 46  1  0  0  0
 15 16  1  0  0  0
 15 44  1  0  0  0
 15 45  1  0  0  0
 16 17  1  0  0  0
 16 36  1  0  0  0
 16 43  1  0  0  0
 17 18  1  0  0  0
 17 21  1  0  0  0
 17 29  1  0  0  0
 18 19  2  0  0  0
 18 20  1  0  0  0
 21 22  1  0  0  0
 21 28  1  0  0  0
 22 23  1  0  0  0
 22 26  1  0  0  0
 22 27  1  0  0  0
 23 24  1  0  0  0
 23 25  1  0  0  0
 29 30  1  0  0  0
 29 41  1  0  0  0
 29 42  1  0  0  0
 30 31  1  0  0  0
 30 33  1  0  0  0
 30 40  1  0  0  0
 31 32  1  0  0  0
 33 34  1  0  0  0
 33 36  1  0  0  0
 33 39  1  0  0  0
 34 35  1  0  0  0
 36 37  1  0  0  0
 36 38  1  0  0  0
 47 48  1  0  0  0
 47 51  1  0  0  0
 47 52  1  0  0  0
 48 49  1  0  0  0
 48 50  1  0  0  0
 53 54  1  0  0  0
 53 55  1  0  0  0
 53 56  1  0  0  0
M  END
> <Tumorigenic>
none

> <Score>
35.557014

> <Active/Decoy>
active

> <InChI>
InChI=1S/C23H30O6/c1-21-6-4-16-17(3-2-14-9-18(25)19(26)10-22(14,16)12-24)23(21,28)7-5-15(21)13-8-20(27)29-11-13/h3,8,12,14-16,18-19,25-26,28H,2,4-7,9-11H2,1H3/t14-,15-,16+,18-,19-,21-,22+,23-/m1/s1

> <Matching Features>
H:14924486185440016873||HBA:14924321692640012300|HBA:14924486112070016868

> <Mol. Index>
94

> <Pharmacophore Match>
Model -1

> <# Confs.>
4

> <Source Database>
Pharm-Screening-input-NANPDB_After_DataWarror.ldb

> <Pharmacophore-Fit Score>
35.56

> <formula>
C23H30O6

> <Mutagenic>
none

> <Reproductive Effective>
none

> <Irritant>
none

$$$$
pectachol
XX    ILIB03122402113D

 66 69  0  0  1  0              1 V2000
   -5.4846    0.9449   -3.7996 O   0  0  0  0  0
   -5.0681    1.1778   -2.6709 C   0  0  0  0  0
   -3.8010    0.7820   -2.2554 O   0  0  0  0  0
   -3.3194    1.0481   -0.9549 C   0  0  0  0  0
   -2.0389    0.6092   -0.6116 C   0  0  0  0  0
   -1.2366   -0.0439   -1.5033 O   0  0  0  0  0
   -1.7960   -0.2344   -2.8009 C   0  0  0  0  0
   -2.6940   -0.8601   -2.7553 H   0  0  0  0  0
   -1.0543   -0.7572   -3.4093 H   0  0  0  0  0
   -2.0107    0.7249   -3.2840 H   0  0  0  0  0
   -1.5887    0.7868    0.6951 C   0  0  0  0  0
   -0.3443    0.3780    1.0782 O   0  0  0  0  0
    0.7078    1.3328    0.9538 C   0  0  0  0  0
    2.0356    0.6334    0.6797 C   0  0  1  0  0
    3.3024    1.5832    0.4977 C   0  0  1  0  0
    4.4968    0.6627    0.0060 C   0  0  1  0  0
    5.7830    1.3958   -0.5325 C   0  0  0  0  0
    5.3662    2.4886   -1.5561 C   0  0  1  0  0
    4.8779    1.8723   -2.7520 O   0  0  0  0  0
    4.6678    2.5818   -3.3841 H   0  0  0  0  0
    4.2825    3.4249   -1.0278 C   0  0  0  0  0
    3.0338    2.6641   -0.5798 C   0  0  0  0  0
    2.5788    2.1949   -1.4611 H   0  0  0  0  0
    2.3106    3.3997   -0.2085 H   0  0  0  0  0
    4.6707    4.0420   -0.2122 H   0  0  0  0  0
    3.9834    4.1213   -1.8229 H   0  0  0  0  0
    6.2448    3.0812   -1.8453 H   0  0  0  0  0
    6.6911    0.3677   -1.2668 C   0  0  0  0  0
    7.1891   -0.3094   -0.5651 H   0  0  0  0  0
    6.1231   -0.2465   -1.9749 H   0  0  0  0  0
    7.4814    0.8779   -1.8299 H   0  0  0  0  0
    6.6642    2.0204    0.5677 C   0  0  0  0  0
    6.2150    2.8939    1.0376 H   0  0  0  0  0
    6.9106    1.3002    1.3520 H   0  0  0  0  0
    7.6147    2.3669    0.1447 H   0  0  0  0  0
    4.7924   -0.4688    1.0204 C   0  0  0  0  0
    3.5501   -1.3183    1.2991 C   0  0  0  0  0
    2.3725   -0.4625    1.6919 C   0  0  0  0  0
    1.7392   -0.6776    2.8562 C   0  0  0  0  0
    2.0498   -1.4742    3.5244 H   0  0  0  0  0
    0.9078   -0.0674    3.1878 H   0  0  0  0  0
    3.2868   -1.8900    0.4009 H   0  0  0  0  0
    3.7916   -2.0551    2.0744 H   0  0  0  0  0
    5.1750   -0.0593    1.9601 H   0  0  0  0  0
    5.5658   -1.1404    0.6376 H   0  0  0  0  0
    4.0982    0.1436   -0.8804 H   0  0  0  0  0
    3.5881    2.3000    1.8435 C   0  0  0  0  0
    2.7046    2.8373    2.2007 H   0  0  0  0  0
    3.8853    1.6108    2.6383 H   0  0  0  0  0
    4.3654    3.0571    1.7665 H   0  0  0  0  0
    1.8912    0.1219   -0.2849 H   0  0  0  0  0
    0.4748    2.0431    0.1480 H   0  0  0  0  0
    0.7613    1.8843    1.8888 H   0  0  0  0  0
   -2.3843    1.4653    1.6427 C   0  0  0  0  0
   -1.8365    1.6276    2.8834 O   0  0  0  0  0
   -2.6519    2.3230    3.8228 C   0  0  0  0  0
   -2.8550    3.3461    3.4887 H   0  0  0  0  0
   -2.0977    2.3825    4.7648 H   0  0  0  0  0
   -3.5839    1.7812    4.0163 H   0  0  0  0  0
   -3.6559    1.9227    1.2655 C   0  0  0  0  0
   -4.1323    1.7006   -0.0327 C   0  0  0  0  0
   -5.4532    2.1422   -0.4475 C   0  0  0  0  0
   -5.8896    1.9026   -1.6857 C   0  0  0  0  0
   -6.8760    2.2258   -1.9981 H   0  0  0  0  0
   -6.0777    2.6734    0.2624 H   0  0  0  0  0
   -4.2946    2.4490    1.9708 H   0  0  0  0  0
  1  2  2  0  0  0
  2  3  1  0  0  0
  2 63  1  0  0  0
  3  4  1  0  0  0
  4  5  2  0  0  0
  4 61  1  0  0  0
  5  6  1  0  0  0
  5 11  1  0  0  0
  6  7  1  0  0  0
  7  8  1  0  0  0
  7  9  1  0  0  0
  7 10  1  0  0  0
 11 12  1  0  0  0
 11 54  2  0  0  0
 12 13  1  0  0  0
 13 14  1  0  0  0
 13 52  1  0  0  0
 13 53  1  0  0  0
 14 15  1  0  0  0
 14 38  1  0  0  0
 14 51  1  0  0  0
 15 16  1  0  0  0
 15 22  1  0  0  0
 15 47  1  0  0  0
 16 17  1  0  0  0
 16 36  1  0  0  0
 16 46  1  0  0  0
 17 18  1  0  0  0
 17 28  1  0  0  0
 17 32  1  0  0  0
 18 19  1  0  0  0
 18 21  1  0  0  0
 18 27  1  0  0  0
 19 20  1  0  0  0
 21 22  1  0  0  0
 21 25  1  0  0  0
 21 26  1  0  0  0
 22 23  1  0  0  0
 22 24  1  0  0  0
 28 29  1  0  0  0
 28 30  1  0  0  0
 28 31  1  0  0  0
 32 33  1  0  0  0
 32 34  1  0  0  0
 32 35  1  0  0  0
 36 37  1  0  0  0
 36 44  1  0  0  0
 36 45  1  0  0  0
 37 38  1  0  0  0
 37 42  1  0  0  0
 37 43  1  0  0  0
 38 39  2  0  0  0
 39 40  1  0  0  0
 39 41  1  0  0  0
 47 48  1  0  0  0
 47 49  1  0  0  0
 47 50  1  0  0  0
 54 55  1  0  0  0
 54 60  1  0  0  0
 55 56  1  0  0  0
 56 57  1  0  0  0
 56 58  1  0  0  0
 56 59  1  0  0  0
 60 61  2  0  0  0
 60 66  1  0  0  0
 61 62  1  0  0  0
 62 63  2  0  0  0
 62 65  1  0  0  0
 63 64  1  0  0  0
M  END
> <Tumorigenic>
none

> <Score>
35.553726

> <Active/Decoy>
active

> <InChI>
InChI=1S/C26H34O6/c1-15-7-9-19-25(2,3)20(27)11-12-26(19,4)17(15)14-31-23-18(29-5)13-16-8-10-21(28)32-22(16)24(23)30-6/h8,10,13,17,19-20,27H,1,7,9,11-12,14H2,2-6H3/t17-,19-,20+,26+/m1/s1

> <Matching Features>
H:14924486185440016873||HBA:14924321692640012300|HBA:14924486112070016868

> <Mol. Index>
441

> <Pharmacophore Match>
Model -1

> <# Confs.>
25

> <Source Database>
Pharm-Screening-input-NANPDB_After_DataWarror.ldb

> <Pharmacophore-Fit Score>
35.55

> <formula>
C26H34O6

> <Mutagenic>
none

> <Reproductive Effective>
none

> <Irritant>
none

$$$$
5,6-dehydrocalotropagenin
XX    ILIB03122402113D

 59 63  0  0  1  0              1 V2000
   -5.9461    0.7733   -3.5060 O   0  0  0  0  0
   -5.3341    1.7087   -3.0192 C   0  0  0  0  0
   -5.2175    2.9547   -3.5613 O   0  0  0  0  0
   -4.4154    3.7723   -2.7022 C   0  0  0  0  0
   -4.0876    2.8892   -1.5683 C   0  0  0  0  0
   -4.6138    1.6723   -1.7455 C   0  0  0  0  0
   -4.5431    0.8118   -1.1029 H   0  0  0  0  0
   -3.2687    3.3223   -0.4098 C   0  0  2  0  0
   -1.7061    3.1225   -0.4893 C   0  0  1  0  0
   -1.4594    1.8316    0.3142 C   0  0  1  0  0
   -1.9692    0.7120   -0.4307 O   0  0  0  0  0
   -2.1226   -0.0260    0.1822 H   0  0  0  0  0
    0.0424    1.5894    0.5522 C   0  0  2  0  0
    0.7971    1.5050   -0.8113 C   0  0  2  0  0
    2.3527    1.3494   -0.6011 C   0  0  1  0  0
    2.9087    2.6586   -0.0995 C   0  0  0  0  0
    2.5493    3.2034    0.9413 O   0  0  0  0  0
    3.6371    3.1606   -0.7608 H   0  0  0  0  0
    2.6740    0.3441    0.5030 C   0  0  0  0  0
    4.0968   -0.1545    0.5865 C   0  0  0  0  0
    4.5591   -0.6828   -0.7670 C   0  0  2  0  0
    5.9066   -1.1214   -0.6502 O   0  0  0  0  0
    6.1751   -1.4691   -1.5179 H   0  0  0  0  0
    4.4484    0.3932   -1.8463 C   0  0  2  0  0
    5.3319    1.4733   -1.5580 O   0  0  0  0  0
    6.2246    1.1005   -1.4608 H   0  0  0  0  0
    3.0115    0.9259   -1.9501 C   0  0  0  0  0
    3.0082    1.7735   -2.6460 H   0  0  0  0  0
    2.4033    0.1342   -2.4073 H   0  0  0  0  0
    4.7606   -0.0127   -2.8156 H   0  0  0  0  0
    3.9525   -1.5531   -1.0481 H   0  0  0  0  0
    4.7531    0.6538    0.9294 H   0  0  0  0  0
    4.2056   -0.9497    1.3358 H   0  0  0  0  0
    1.7484   -0.1076    1.3675 C   0  0  0  0  0
    0.3160    0.3209    1.3808 C   0  0  0  0  0
    0.0144    0.5057    2.4190 H   0  0  0  0  0
   -0.2781   -0.5287    1.0275 H   0  0  0  0  0
    2.0292   -0.8432    2.1180 H   0  0  0  0  0
    0.4239    2.6465   -1.8014 C   0  0  0  0  0
   -1.0822    2.9601   -1.8898 C   0  0  0  0  0
   -1.2286    3.8655   -2.4910 H   0  0  0  0  0
   -1.5641    2.1460   -2.4429 H   0  0  0  0  0
    0.7712    2.3837   -2.8077 H   0  0  0  0  0
    0.9524    3.5680   -1.5393 H   0  0  0  0  0
    0.4517    0.5767   -1.2941 H   0  0  0  0  0
    0.4443    2.4297    1.1306 H   0  0  0  0  0
   -2.3621    2.0150    1.5295 C   0  0  0  0  0
   -3.6490    2.6178    0.9328 C   0  0  0  0  0
   -4.0857    3.3366    1.6354 H   0  0  0  0  0
   -4.3953    1.8296    0.7840 H   0  0  0  0  0
   -2.5891    1.0752    2.0427 H   0  0  0  0  0
   -1.9185    2.6975    2.2606 H   0  0  0  0  0
   -1.0841    4.4033    0.1670 C   0  0  0  0  0
   -1.2884    5.2864   -0.4508 H   0  0  0  0  0
   -0.0003    4.3469    0.2866 H   0  0  0  0  0
   -1.5045    4.6047    1.1573 H   0  0  0  0  0
   -3.4748    4.3855   -0.2678 H   0  0  0  0  0
   -5.0211    4.6358   -2.3843 H   0  0  0  0  0
   -3.5409    4.1143   -3.2457 H   0  0  0  0  0
  1  2  2  0  0  0
  2  3  1  0  0  0
  2  6  1  0  0  0
  3  4  1  0  0  0
  4  5  1  0  0  0
  4 58  1  0  0  0
  4 59  1  0  0  0
  5  6  2  0  0  0
  5  8  1  0  0  0
  6  7  1  0  0  0
  8  9  1  0  0  0
  8 48  1  0  0  0
  8 57  1  0  0  0
  9 10  1  0  0  0
  9 40  1  0  0  0
  9 53  1  0  0  0
 10 11  1  0  0  0
 10 13  1  0  0  0
 10 47  1  0  0  0
 11 12  1  0  0  0
 13 14  1  0  0  0
 13 35  1  0  0  0
 13 46  1  0  0  0
 14 15  1  0  0  0
 14 39  1  0  0  0
 14 45  1  0  0  0
 15 16  1  0  0  0
 15 19  1  0  0  0
 15 27  1  0  0  0
 16 17  2  0  0  0
 16 18  1  0  0  0
 19 20  1  0  0  0
 19 34  2  0  0  0
 20 21  1  0  0  0
 20 32  1  0  0  0
 20 33  1  0  0  0
 21 22  1  0  0  0
 21 24  1  0  0  0
 21 31  1  0  0  0
 22 23  1  0  0  0
 24 25  1  0  0  0
 24 27  1  0  0  0
 24 30  1  0  0  0
 25 26  1  0  0  0
 27 28  1  0  0  0
 27 29  1  0  0  0
 34 35  1  0  0  0
 34 38  1  0  0  0
 35 36  1  0  0  0
 35 37  1  0  0  0
 39 40  1  0  0  0
 39 43  1  0  0  0
 39 44  1  0  0  0
 40 41  1  0  0  0
 40 42  1  0  0  0
 47 48  1  0  0  0
 47 51  1  0  0  0
 47 52  1  0  0  0
 48 49  1  0  0  0
 48 50  1  0  0  0
 53 54  1  0  0  0
 53 55  1  0  0  0
 53 56  1  0  0  0
M  END
> <Tumorigenic>
none

> <Score>
35.548203

> <Active/Decoy>
active

> <InChI>
InChI=1S/C23H30O6/c1-21-6-4-16-17(3-2-14-9-18(25)19(26)10-22(14,16)12-24)23(21,28)7-5-15(21)13-8-20(27)29-11-13/h2,8,12,15-19,25-26,28H,3-7,9-11H2,1H3/t15-,16-,17+,18+,19-,21+,22+,23+/m1/s1

> <Matching Features>
H:14924486185440016873||HBA:14924321692640012300|HBA:14924486112070016868

> <Mol. Index>
95

> <Pharmacophore Match>
Model -1

> <# Confs.>
7

> <Source Database>
Pharm-Screening-input-NANPDB_After_DataWarror.ldb

> <Pharmacophore-Fit Score>
35.55

> <formula>
C23H30O6

> <Mutagenic>
none

> <Reproductive Effective>
none

> <Irritant>
none

$$$$
sorbifolin
XX    ILIB03122402113D

 34 36  0  0  1  0              1 V2000
    3.9521    1.4977   -2.0836 O   0  0  0  0  0
    2.9699    1.1240   -1.4564 C   0  0  0  0  0
    3.0528    0.5998   -0.0789 C   0  0  0  0  0
    4.2602    0.4657    0.6143 C   0  0  0  0  0
    5.4742    0.7953    0.0779 O   0  0  0  0  0
    5.3473    1.1340   -0.8228 H   0  0  0  0  0
    4.2612   -0.0379    1.9203 C   0  0  0  0  0
    5.4386   -0.1589    2.6138 O   0  0  0  0  0
    6.1619    0.1407    2.0370 H   0  0  0  0  0
    3.0798   -0.4126    2.5614 C   0  0  0  0  0
    3.1972   -0.8884    3.8277 O   0  0  0  0  0
    1.9650   -1.2682    4.4527 C   0  0  0  0  0
    1.2948   -0.3947    4.5598 H   0  0  0  0  0
    2.1997   -1.6092    5.4657 H   0  0  0  0  0
    1.4742   -2.0714    3.9147 H   0  0  0  0  0
    1.8687   -0.2781    1.8561 C   0  0  0  0  0
    1.8633    0.2289    0.5497 C   0  0  0  0  0
    0.6327    0.3250   -0.0520 O   0  0  0  0  0
    0.5568    0.7941   -1.3546 C   0  0  0  0  0
    1.6254    1.1877   -2.0639 C   0  0  0  0  0
    1.5672    1.5567   -3.0801 H   0  0  0  0  0
   -0.8132    0.8272   -1.9020 C   0  0  0  0  0
   -1.7820   -0.0973   -1.4727 C   0  0  0  0  0
   -3.0810   -0.0765   -1.9873 C   0  0  0  0  0
   -3.4270    0.8734   -2.9429 C   0  0  0  0  0
   -4.6883    0.9200   -3.4681 O   0  0  0  0  0
   -5.2172    0.2080   -3.0667 H   0  0  0  0  0
   -2.4915    1.7993   -3.3875 C   0  0  0  0  0
   -1.1930    1.7747   -2.8721 C   0  0  0  0  0
   -0.4856    2.5110   -3.2453 H   0  0  0  0  0
   -2.7587    2.5421   -4.1350 H   0  0  0  0  0
   -3.8094   -0.8024   -1.6354 H   0  0  0  0  0
   -1.5451   -0.8508   -0.7253 H   0  0  0  0  0
    0.9179   -0.5497    2.3065 H   0  0  0  0  0
  1  2  2  0  0  0
  2  3  1  0  0  0
  2 20  1  0  0  0
  3  4  2  0  0  0
  3 17  1  0  0  0
  4  5  1  0  0  0
  4  7  1  0  0  0
  5  6  1  0  0  0
  7  8  1  0  0  0
  7 10  2  0  0  0
  8  9  1  0  0  0
 10 11  1  0  0  0
 10 16  1  0  0  0
 11 12  1  0  0  0
 12 13  1  0  0  0
 12 14  1  0  0  0
 12 15  1  0  0  0
 16 17  2  0  0  0
 16 34  1  0  0  0
 17 18  1  0  0  0
 18 19  1  0  0  0
 19 20  2  0  0  0
 19 22  1  0  0  0
 20 21  1  0  0  0
 22 23  2  0  0  0
 22 29  1  0  0  0
 23 24  1  0  0  0
 23 33  1  0  0  0
 24 25  2  0  0  0
 24 32  1  0  0  0
 25 26  1  0  0  0
 25 28  1  0  0  0
 26 27  1  0  0  0
 28 29  2  0  0  0
 28 31  1  0  0  0
 29 30  1  0  0  0
M  END
> <Tumorigenic>
none

> <Score>
35.538532

> <Active/Decoy>
active

> <InChI>
InChI=1S/C16H12O6/c1-21-13-7-12-14(16(20)15(13)19)10(18)6-11(22-12)8-2-4-9(17)5-3-8/h2-7,17,19-20H,1H3

> <Matching Features>
H:14924486185440016873||HBA:14924321692640012300|HBA:14924486112070016868

> <Mol. Index>
1320

> <Pharmacophore Match>
Model -1

> <# Confs.>
2

> <Source Database>
Pharm-Screening-input-NANPDB_After_DataWarror.ldb

> <Pharmacophore-Fit Score>
35.54

> <formula>
C16H12O6

> <Mutagenic>
none

> <Reproductive Effective>
none

> <Irritant>
none

$$$$
hispidulin 7-sulphate
XX    ILIB03122402113D

 38 40  0  0  1  0              1 V2000
    1.9196   -0.5945    4.8787 S   0  0  0  0  0
    1.0136   -1.7247    4.7915 O   0  0  0  0  0
    1.4273    0.7508    4.6502 O   0  0  0  0  0
    3.1902   -0.8467    3.8501 O   0  0  0  0  0
    3.0704   -0.3749    2.5761 C   0  0  0  0  0
    4.2594   -0.0133    1.9346 C   0  0  0  0  0
    5.4216   -0.0861    2.6480 O   0  0  0  0  0
    6.5911   -0.3525    1.8764 C   0  0  0  0  0
    6.5218   -1.3253    1.3780 H   0  0  0  0  0
    6.7784    0.4483    1.1530 H   0  0  0  0  0
    7.4417   -0.3881    2.5629 H   0  0  0  0  0
    4.2567    0.5079    0.6321 C   0  0  0  0  0
    5.4600    0.8999    0.1126 O   0  0  0  0  0
    5.3287    1.2466   -0.7853 H   0  0  0  0  0
    3.0525    0.6138   -0.0729 C   0  0  0  0  0
    2.9711    1.1308   -1.4554 C   0  0  0  0  0
    3.9543    1.4979   -2.0834 O   0  0  0  0  0
    1.6280    1.1889   -2.0656 C   0  0  0  0  0
    0.5605    0.7782   -1.3627 C   0  0  0  0  0
    0.6380    0.2844   -0.0704 O   0  0  0  0  0
    1.8636    0.2301    0.5482 C   0  0  0  0  0
    1.8656   -0.2777    1.8539 C   0  0  0  0  0
    0.9152   -0.5592    2.2982 H   0  0  0  0  0
   -0.8093    0.8131   -1.9123 C   0  0  0  0  0
   -1.9171    0.9942   -1.0651 C   0  0  0  0  0
   -3.2192    1.0286   -1.5730 C   0  0  0  0  0
   -3.4263    0.8860   -2.9420 C   0  0  0  0  0
   -4.6875    0.9194   -3.4661 O   0  0  0  0  0
   -5.3223    1.0377   -2.7427 H   0  0  0  0  0
   -2.3511    0.7086   -3.8037 C   0  0  0  0  0
   -1.0516    0.6726   -3.2900 C   0  0  0  0  0
   -0.2334    0.5370   -3.9959 H   0  0  0  0  0
   -2.5115    0.5976   -4.8720 H   0  0  0  0  0
   -4.0559    1.1690   -0.8949 H   0  0  0  0  0
   -1.7885    1.1084    0.0091 H   0  0  0  0  0
    1.5692    1.5725   -3.0784 H   0  0  0  0  0
    2.6133   -0.6190    6.3562 O   0  0  0  0  0
    3.4480   -0.1011    6.4399 H   0  0  0  0  0
  1  2  2  0  0  0
  1  3  2  0  0  0
  1  4  1  0  0  0
  1 37  1  0  0  0
  4  5  1  0  0  0
  5  6  2  0  0  0
  5 22  1  0  0  0
  6  7  1  0  0  0
  6 12  1  0  0  0
  7  8  1  0  0  0
  8  9  1  0  0  0
  8 10  1  0  0  0
  8 11  1  0  0  0
 12 13  1  0  0  0
 12 15  2  0  0  0
 13 14  1  0  0  0
 15 16  1  0  0  0
 15 21  1  0  0  0
 16 17  2  0  0  0
 16 18  1  0  0  0
 18 19  2  0  0  0
 18 36  1  0  0  0
 19 20  1  0  0  0
 19 24  1  0  0  0
 20 21  1  0  0  0
 21 22  2  0  0  0
 22 23  1  0  0  0
 24 25  2  0  0  0
 24 31  1  0  0  0
 25 26  1  0  0  0
 25 35  1  0  0  0
 26 27  2  0  0  0
 26 34  1  0  0  0
 27 28  1  0  0  0
 27 30  1  0  0  0
 28 29  1  0  0  0
 30 31  2  0  0  0
 30 33  1  0  0  0
 31 32  1  0  0  0
 37 38  1  0  0  0
M  END
> <Tumorigenic>
none

> <Score>
35.537533

> <Active/Decoy>
active

> <InChI>
InChI=1S/C16H12O9S/c1-23-16-13(25-26(20,21)22)7-12-14(15(16)19)10(18)6-11(24-12)8-2-4-9(17)5-3-8/h2-7,17,19H,1H3,(H,20,21,22)

> <Matching Features>
H:14924486185440016873||HBA:14924321692640012300|HBA:14924486112070016868

> <Mol. Index>
1169

> <Pharmacophore Match>
Model -1

> <# Confs.>
14

> <Source Database>
Pharm-Screening-input-NANPDB_After_DataWarror.ldb

> <Pharmacophore-Fit Score>
35.54

> <formula>
C16H12O9S

> <Mutagenic>
none

> <Reproductive Effective>
none

> <Irritant>
none

$$$$
6-bromo-N-propionylaplysinopsin
XX    ILIB03122402113D

 41 43  0  0  1  0              1 V2000
    2.5368   -0.4448    2.5149 Br  0  0  0  0  0
    1.5337    0.6037    1.2991 C   0  0  0  0  0
    2.1179    0.9947    0.0908 C   0  0  0  0  0
    1.3597    1.7751   -0.8054 C   0  0  0  0  0
    1.6939    2.3065   -2.0533 N   0  0  0  0  0
    2.8948    2.1657   -2.7294 C   0  0  0  0  0
    3.7926    1.5285   -2.2174 O   0  0  0  0  0
    2.9655    2.8429   -4.0787 C   0  0  0  0  0
    2.5030    1.9092   -5.1808 C   0  0  0  0  0
    3.0983    0.9899   -5.1937 H   0  0  0  0  0
    2.5994    2.3943   -6.1566 H   0  0  0  0  0
    1.4550    1.6246   -5.0410 H   0  0  0  0  0
    2.3721    3.7632   -4.0796 H   0  0  0  0  0
    4.0084    3.1362   -4.2453 H   0  0  0  0  0
    0.5851    3.0095   -2.5164 C   0  0  0  0  0
   -0.4291    2.9448   -1.5890 C   0  0  0  0  0
    0.0484    2.1723   -0.4918 C   0  0  0  0  0
   -0.5061    1.7606    0.7434 C   0  0  0  0  0
    0.2360    0.9712    1.6241 C   0  0  0  0  0
   -0.2157    0.6622    2.5629 H   0  0  0  0  0
   -1.5215    2.0311    1.0174 H   0  0  0  0  0
   -1.6928    3.5751   -1.7973 C   0  0  0  0  0
   -2.7992    3.0793   -2.3718 C   0  0  0  0  0
   -3.2010    1.8670   -2.9054 N   0  0  0  0  0
   -4.4945    1.9661   -3.4015 C   0  0  0  0  0
   -5.1969    1.0559   -3.9931 N   0  0  0  0  0
   -6.1167    1.4193   -4.2476 H   0  0  0  0  0
   -4.9580    3.2406   -3.1611 N   0  0  0  0  0
   -3.9893    3.9973   -2.5213 C   0  0  0  0  0
   -4.0478    5.1577   -2.1510 O   0  0  0  0  0
   -6.2726    3.7537   -3.5069 C   0  0  0  0  0
   -7.0319    3.1336   -3.0221 H   0  0  0  0  0
   -6.4021    3.6815   -4.5914 H   0  0  0  0  0
   -6.3839    4.7932   -3.1891 H   0  0  0  0  0
   -2.4406    0.6354   -2.9465 C   0  0  0  0  0
   -1.7067    0.6662   -3.7562 H   0  0  0  0  0
   -1.9324    0.4522   -1.9950 H   0  0  0  0  0
   -3.0882   -0.2300   -3.1230 H   0  0  0  0  0
   -1.7375    4.5979   -1.4240 H   0  0  0  0  0
    0.5964    3.4840   -3.4886 H   0  0  0  0  0
    3.1352    0.6981   -0.1415 H   0  0  0  0  0
  1  2  1  0  0  0
  2  3  2  0  0  0
  2 19  1  0  0  0
  3  4  1  0  0  0
  3 41  1  0  0  0
  4  5  1  0  0  0
  4 17  2  0  0  0
  5  6  1  0  0  0
  5 15  1  0  0  0
  6  7  2  0  0  0
  6  8  1  0  0  0
  8  9  1  0  0  0
  8 13  1  0  0  0
  8 14  1  0  0  0
  9 10  1  0  0  0
  9 11  1  0  0  0
  9 12  1  0  0  0
 15 16  2  0  0  0
 15 40  1  0  0  0
 16 17  1  0  0  0
 16 22  1  0  0  0
 17 18  1  0  0  0
 18 19  2  0  0  0
 18 21  1  0  0  0
 19 20  1  0  0  0
 22 23  2  0  0  0
 22 39  1  0  0  0
 23 24  1  0  0  0
 23 29  1  0  0  0
 24 25  1  0  0  0
 24 35  1  0  0  0
 25 26  2  0  0  0
 25 28  1  0  0  0
 26 27  1  0  0  0
 28 29  1  0  0  0
 28 31  1  0  0  0
 29 30  2  0  0  0
 31 32  1  0  0  0
 31 33  1  0  0  0
 31 34  1  0  0  0
 35 36  1  0  0  0
 35 37  1  0  0  0
 35 38  1  0  0  0
M  END
> <Tumorigenic>
none

> <Score>
35.535835

> <Active/Decoy>
active

> <InChI>
InChI=1S/C17H17BrN4O2/c1-4-15(23)22-9-10(12-6-5-11(18)8-13(12)22)7-14-16(24)21(3)17(19)20(14)2/h5-9,19H,4H2,1-3H3/b14-7+,19-17+

> <Matching Features>
H:14924486185440016873||HBA:14924321692640012300|HBA:14924486112070016868

> <Mol. Index>
445

> <Pharmacophore Match>
Model -1

> <# Confs.>
25

> <Source Database>
Pharm-Screening-input-NANPDB_After_DataWarror.ldb

> <Pharmacophore-Fit Score>
35.54

> <formula>
C17H17BrN4O2

> <Mutagenic>
none

> <Reproductive Effective>
none

> <Irritant>
none

$$$$
hispidulin
XX    ILIB03122402113D

 34 36  0  0  1  0              1 V2000
    3.9550    1.4972   -2.0813 O   0  0  0  0  0
    2.9715    1.1331   -1.4514 C   0  0  0  0  0
    3.0520    0.6216   -0.0674 C   0  0  0  0  0
    4.2614    0.5059    0.6337 C   0  0  0  0  0
    5.4704    0.8397    0.0875 O   0  0  0  0  0
    5.3414    1.1400   -0.8267 H   0  0  0  0  0
    4.2725    0.0279    1.9490 C   0  0  0  0  0
    5.4238   -0.1174    2.6543 O   0  0  0  0  0
    6.6098    0.2481    1.9667 C   0  0  0  0  0
    6.7600   -0.3730    1.0851 H   0  0  0  0  0
    7.4539    0.0820    2.6426 H   0  0  0  0  0
    6.5981    1.3168    1.7001 H   0  0  0  0  0
    3.0671   -0.3782    2.5452 C   0  0  0  0  0
    3.0896   -0.8753    3.8187 O   0  0  0  0  0
    2.1819   -1.1145    4.0755 H   0  0  0  0  0
    1.8650   -0.2766    1.8509 C   0  0  0  0  0
    1.8602    0.2287    0.5488 C   0  0  0  0  0
    0.6351    0.3014   -0.0631 O   0  0  0  0  0
    0.5596    0.7878   -1.3590 C   0  0  0  0  0
    1.6281    1.1924   -2.0611 C   0  0  0  0  0
    1.5714    1.5727   -3.0748 H   0  0  0  0  0
   -0.8108    0.8252   -1.9083 C   0  0  0  0  0
   -1.9181    1.0136   -1.0621 C   0  0  0  0  0
   -3.2194    1.0478   -1.5708 C   0  0  0  0  0
   -3.4293    0.8922   -2.9374 C   0  0  0  0  0
   -4.6876    0.9190   -3.4652 O   0  0  0  0  0
   -5.3261    1.0476   -2.7422 H   0  0  0  0  0
   -2.3548    0.7030   -3.7978 C   0  0  0  0  0
   -1.0539    0.6687   -3.2849 C   0  0  0  0  0
   -0.2378    0.5144   -3.9871 H   0  0  0  0  0
   -2.5140    0.5808   -4.8642 H   0  0  0  0  0
   -4.0541    1.1963   -0.8921 H   0  0  0  0  0
   -1.7896    1.1420    0.0105 H   0  0  0  0  0
    0.9336   -0.5885    2.3162 H   0  0  0  0  0
  1  2  2  0  0  0
  2  3  1  0  0  0
  2 20  1  0  0  0
  3  4  2  0  0  0
  3 17  1  0  0  0
  4  5  1  0  0  0
  4  7  1  0  0  0
  5  6  1  0  0  0
  7  8  1  0  0  0
  7 13  2  0  0  0
  8  9  1  0  0  0
  9 10  1  0  0  0
  9 11  1  0  0  0
  9 12  1  0  0  0
 13 14  1  0  0  0
 13 16  1  0  0  0
 14 15  1  0  0  0
 16 17  2  0  0  0
 16 34  1  0  0  0
 17 18  1  0  0  0
 18 19  1  0  0  0
 19 20  2  0  0  0
 19 22  1  0  0  0
 20 21  1  0  0  0
 22 23  2  0  0  0
 22 29  1  0  0  0
 23 24  1  0  0  0
 23 33  1  0  0  0
 24 25  2  0  0  0
 24 32  1  0  0  0
 25 26  1  0  0  0
 25 28  1  0  0  0
 26 27  1  0  0  0
 28 29  2  0  0  0
 28 31  1  0  0  0
 29 30  1  0  0  0
M  END
> <Tumorigenic>
none

> <Score>
35.53689

> <Active/Decoy>
active

> <InChI>
InChI=1S/C16H12O6/c1-21-16-11(19)7-13-14(15(16)20)10(18)6-12(22-13)8-2-4-9(17)5-3-8/h2-7,17,19-20H,1H3

> <Matching Features>
H:14924486185440016873||HBA:14924321692640012300|HBA:14924486112070016868

> <Mol. Index>
342

> <Pharmacophore Match>
Model -1

> <# Confs.>
4

> <Source Database>
Pharm-Screening-input-NANPDB_After_DataWarror.ldb

> <Pharmacophore-Fit Score>
35.54

> <formula>
C16H12O6

> <Mutagenic>
none

> <Reproductive Effective>
none

> <Irritant>
none

$$$$
cirsimartin
XX    ILIB03122402113D

 37 39  0  0  1  0              1 V2000
    3.9526    1.4976   -2.0833 O   0  0  0  0  0
    2.9703    1.1266   -1.4564 C   0  0  0  0  0
    3.0542    0.5994   -0.0788 C   0  0  0  0  0
    4.2630    0.4648    0.6144 C   0  0  0  0  0
    5.4671    0.8484    0.0912 O   0  0  0  0  0
    5.3353    1.1925   -0.8070 H   0  0  0  0  0
    4.2765   -0.0552    1.9144 C   0  0  0  0  0
    5.4380   -0.1604    2.6100 O   0  0  0  0  0
    6.5991    0.2872    1.9285 C   0  0  0  0  0
    6.7765   -0.2987    1.0281 H   0  0  0  0  0
    7.4547    0.1458    2.5955 H   0  0  0  0  0
    6.5298    1.3612    1.6940 H   0  0  0  0  0
    3.0690   -0.4104    2.5552 C   0  0  0  0  0
    3.1815   -0.8778    3.8342 O   0  0  0  0  0
    1.9534   -1.2376    4.4609 C   0  0  0  0  0
    1.2894   -0.3717    4.5540 H   0  0  0  0  0
    2.1860   -1.5910    5.4698 H   0  0  0  0  0
    1.4595   -2.0555    3.9256 H   0  0  0  0  0
    1.8678   -0.2779    1.8552 C   0  0  0  0  0
    1.8648    0.2190    0.5457 C   0  0  0  0  0
    0.6347    0.3070   -0.0598 O   0  0  0  0  0
    0.5581    0.7863   -1.3578 C   0  0  0  0  0
    1.6266    1.1887   -2.0629 C   0  0  0  0  0
    1.5673    1.5679   -3.0771 H   0  0  0  0  0
   -0.8119    0.8219   -1.9054 C   0  0  0  0  0
   -1.7792   -0.1080   -1.4833 C   0  0  0  0  0
   -3.0791   -0.0852   -1.9974 C   0  0  0  0  0
   -3.4258    0.8715   -2.9437 C   0  0  0  0  0
   -4.6879    0.9198   -3.4675 O   0  0  0  0  0
   -5.2136    0.2039   -3.0717 H   0  0  0  0  0
   -2.4906    1.8024   -3.3807 C   0  0  0  0  0
   -1.1937    1.7760   -2.8659 C   0  0  0  0  0
   -0.4880    2.5164   -3.2345 H   0  0  0  0  0
   -2.7605    2.5503   -4.1209 H   0  0  0  0  0
   -3.8018   -0.8158   -1.6487 H   0  0  0  0  0
   -1.5394   -0.8674   -0.7405 H   0  0  0  0  0
    0.9165   -0.5521    2.3022 H   0  0  0  0  0
  1  2  2  0  0  0
  2  3  1  0  0  0
  2 23  1  0  0  0
  3  4  2  0  0  0
  3 20  1  0  0  0
  4  5  1  0  0  0
  4  7  1  0  0  0
  5  6  1  0  0  0
  7  8  1  0  0  0
  7 13  2  0  0  0
  8  9  1  0  0  0
  9 10  1  0  0  0
  9 11  1  0  0  0
  9 12  1  0  0  0
 13 14  1  0  0  0
 13 19  1  0  0  0
 14 15  1  0  0  0
 15 16  1  0  0  0
 15 17  1  0  0  0
 15 18  1  0  0  0
 19 20  2  0  0  0
 19 37  1  0  0  0
 20 21  1  0  0  0
 21 22  1  0  0  0
 22 23  2  0  0  0
 22 25  1  0  0  0
 23 24  1  0  0  0
 25 26  2  0  0  0
 25 32  1  0  0  0
 26 27  1  0  0  0
 26 36  1  0  0  0
 27 28  2  0  0  0
 27 35  1  0  0  0
 28 29  1  0  0  0
 28 31  1  0  0  0
 29 30  1  0  0  0
 31 32  2  0  0  0
 31 34  1  0  0  0
 32 33  1  0  0  0
M  END
> <Tumorigenic>
none

> <Score>
35.53782

> <Active/Decoy>
active

> <InChI>
InChI=1S/C17H14O6/c1-21-14-8-13-15(16(20)17(14)22-2)11(19)7-12(23-13)9-3-5-10(18)6-4-9/h3-8,18,20H,1-2H3

> <Matching Features>
H:14924486185440016873||HBA:14924321692640012300|HBA:14924486112070016868

> <Mol. Index>
330

> <Pharmacophore Match>
Model -1

> <# Confs.>
4

> <Source Database>
Pharm-Screening-input-NANPDB_After_DataWarror.ldb

> <Pharmacophore-Fit Score>
35.54

> <formula>
C17H14O6

> <Mutagenic>
none

> <Reproductive Effective>
none

> <Irritant>
none

$$$$
6-hydroxyapigenin
XX    ILIB03122402113D

 31 33  0  0  1  0              1 V2000
    3.9495    1.4968   -2.0823 O   0  0  0  0  0
    2.9680    1.1391   -1.4463 C   0  0  0  0  0
    3.0487    0.6066   -0.0694 C   0  0  0  0  0
    4.2651    0.4764    0.6181 C   0  0  0  0  0
    5.4298    0.8170   -0.0112 O   0  0  0  0  0
    6.1802    0.4142    0.4528 H   0  0  0  0  0
    4.2736   -0.0102    1.9288 C   0  0  0  0  0
    5.4229   -0.1256    2.6610 O   0  0  0  0  0
    6.1204    0.4173    2.2545 H   0  0  0  0  0
    3.0778   -0.3924    2.5357 C   0  0  0  0  0
    3.0500   -0.8785    3.8136 O   0  0  0  0  0
    3.9626   -0.8899    4.1512 H   0  0  0  0  0
    1.8697   -0.2778    1.8556 C   0  0  0  0  0
    1.8579    0.2258    0.5541 C   0  0  0  0  0
    0.6306    0.3009   -0.0559 O   0  0  0  0  0
    0.5508    0.7856   -1.3635 C   0  0  0  0  0
    1.6229    1.1969   -2.0539 C   0  0  0  0  0
    1.5655    1.5676   -3.0709 H   0  0  0  0  0
   -0.8097    0.8201   -1.9133 C   0  0  0  0  0
   -1.7817   -0.1023   -1.4770 C   0  0  0  0  0
   -3.0814   -0.0802   -1.9930 C   0  0  0  0  0
   -3.4267    0.8727   -2.9450 C   0  0  0  0  0
   -4.6871    0.9202   -3.4681 O   0  0  0  0  0
   -5.2205    0.2185   -3.0558 H   0  0  0  0  0
   -2.4920    1.8011   -3.3849 C   0  0  0  0  0
   -1.1938    1.7768   -2.8654 C   0  0  0  0  0
   -0.4867    2.5155   -3.2356 H   0  0  0  0  0
   -2.7576    2.5455   -4.1296 H   0  0  0  0  0
   -3.8078   -0.8087   -1.6446 H   0  0  0  0  0
   -1.5453   -0.8590   -0.7326 H   0  0  0  0  0
    0.9411   -0.5738    2.3376 H   0  0  0  0  0
  1  2  2  0  0  0
  2  3  1  0  0  0
  2 17  1  0  0  0
  3  4  2  0  0  0
  3 14  1  0  0  0
  4  5  1  0  0  0
  4  7  1  0  0  0
  5  6  1  0  0  0
  7  8  1  0  0  0
  7 10  2  0  0  0
  8  9  1  0  0  0
 10 11  1  0  0  0
 10 13  1  0  0  0
 11 12  1  0  0  0
 13 14  2  0  0  0
 13 31  1  0  0  0
 14 15  1  0  0  0
 15 16  1  0  0  0
 16 17  2  0  0  0
 16 19  1  0  0  0
 17 18  1  0  0  0
 19 20  2  0  0  0
 19 26  1  0  0  0
 20 21  1  0  0  0
 20 30  1  0  0  0
 21 22  2  0  0  0
 21 29  1  0  0  0
 22 23  1  0  0  0
 22 25  1  0  0  0
 23 24  1  0  0  0
 25 26  2  0  0  0
 25 28  1  0  0  0
 26 27  1  0  0  0
M  END
> <Tumorigenic>
none

> <Score>
35.53415

> <Active/Decoy>
active

> <InChI>
InChI=1S/C15H10O6/c16-8-3-1-7(2-4-8)11-5-9(17)13-12(21-11)6-10(18)14(19)15(13)20/h1-6,16,18-20H

> <Matching Features>
H:14924486185440016873||HBA:14924321692640012300|HBA:14924486112070016868

> <Mol. Index>
1414

> <Pharmacophore Match>
Model -1

> <# Confs.>
2

> <Source Database>
Pharm-Screening-input-NANPDB_After_DataWarror.ldb

> <Pharmacophore-Fit Score>
35.53

> <formula>
C15H10O6

> <Mutagenic>
none

> <Reproductive Effective>
none

> <Irritant>
none

$$$$
4beta-hydroxy-6apha-p-anisoyloxy-10alpha-acetyloxydauc-8-ene
XX    ILIB03122402113D

 65 67  0  0  1  0              1 V2000
    0.5008    3.5742   -2.3506 O   0  0  0  0  0
   -0.0593    2.6615   -1.7652 C   0  0  0  0  0
    0.4143    1.9680   -0.7156 O   0  0  0  0  0
    1.7087    2.3349   -0.2376 C   0  0  2  0  0
    2.8087    1.5266   -0.9565 C   0  0  1  0  0
    4.2684    2.0793   -0.8357 C   0  0  1  0  0
    5.0243    1.5893   -1.9639 O   0  0  0  0  0
    4.6080    1.9255   -2.7748 H   0  0  0  0  0
    4.5219    3.5983   -0.8330 C   0  0  0  0  0
    6.0113    3.9172   -0.6773 C   0  0  0  0  0
    6.4069    3.5275    0.2660 H   0  0  0  0  0
    6.5973    3.4857   -1.4952 H   0  0  0  0  0
    6.1786    4.9995   -0.6777 H   0  0  0  0  0
    3.9955    4.2586   -2.1111 C   0  0  0  0  0
    2.9123    4.1353   -2.2072 H   0  0  0  0  0
    4.2011    5.3347   -2.1055 H   0  0  0  0  0
    4.4671    3.8300   -3.0023 H   0  0  0  0  0
    3.9923    4.0463    0.0180 H   0  0  0  0  0
    4.8373    1.3585    0.3855 C   0  0  0  0  0
    4.2216   -0.0420    0.3626 C   0  0  0  0  0
    2.9571    0.0079   -0.5448 C   0  0  1  0  0
    1.7447   -0.6913    0.1396 C   0  0  2  0  0
    0.6152   -0.7138   -0.7466 O   0  0  0  0  0
    0.1336   -1.9316   -1.0774 C   0  0  0  0  0
    0.5640   -3.0116   -0.6962 O   0  0  0  0  0
   -1.0449   -1.7746   -1.9885 C   0  0  0  0  0
   -1.3503   -2.7577   -2.3611 H   0  0  0  0  0
   -0.7748   -1.1538   -2.8465 H   0  0  0  0  0
   -1.8793   -1.3301   -1.4413 H   0  0  0  0  0
    1.2853   -0.2112    1.4856 C   0  0  0  0  0
    1.2909    1.0228    2.0101 C   0  0  0  0  0
    1.6626    2.2998    1.3060 C   0  0  0  0  0
    0.9010    3.0392    1.5940 H   0  0  0  0  0
    2.5999    2.6617    1.7334 H   0  0  0  0  0
    0.8653    1.2215    3.4452 C   0  0  0  0  0
   -0.0246    1.8567    3.4936 H   0  0  0  0  0
    1.6689    1.7029    4.0119 H   0  0  0  0  0
    0.6279    0.2789    3.9482 H   0  0  0  0  0
    0.9340   -1.0201    2.1258 H   0  0  0  0  0
    2.0634   -1.7319    0.3110 H   0  0  0  0  0
    3.2505   -0.8351   -1.8272 C   0  0  0  0  0
    3.3353   -1.9016   -1.5850 H   0  0  0  0  0
    4.1861   -0.5590   -2.3167 H   0  0  0  0  0
    2.4510   -0.7257   -2.5680 H   0  0  0  0  0
    4.9562   -0.7590   -0.0231 H   0  0  0  0  0
    4.0024   -0.3600    1.3869 H   0  0  0  0  0
    4.5706    1.8528    1.3232 H   0  0  0  0  0
    5.9301    1.2882    0.3535 H   0  0  0  0  0
    2.5316    1.5405   -2.0149 H   0  0  0  0  0
    1.8388    3.3912   -0.4937 H   0  0  0  0  0
   -1.3974    2.1627   -2.1373 C   0  0  0  0  0
   -2.2825    1.6182   -1.1952 C   0  0  0  0  0
   -3.5376    1.1591   -1.6036 C   0  0  0  0  0
   -3.9285    1.2434   -2.9435 C   0  0  0  0  0
   -5.1772    0.7614   -3.2174 O   0  0  0  0  0
   -5.5764    0.8468   -4.5824 C   0  0  0  0  0
   -4.9267    0.2422   -5.2242 H   0  0  0  0  0
   -5.6044    1.8879   -4.9208 H   0  0  0  0  0
   -6.5888    0.4428   -4.6577 H   0  0  0  0  0
   -3.0467    1.7956   -3.8767 C   0  0  0  0  0
   -1.7909    2.2563   -3.4715 C   0  0  0  0  0
   -1.1281    2.6819   -4.2220 H   0  0  0  0  0
   -3.3057    1.8828   -4.9286 H   0  0  0  0  0
   -4.2112    0.7324   -0.8638 H   0  0  0  0  0
   -2.0210    1.5313   -0.1447 H   0  0  0  0  0
  1  2  2  0  0  0
  2  3  1  0  0  0
  2 51  1  0  0  0
  3  4  1  0  0  0
  4  5  1  0  0  0
  4 32  1  0  0  0
  4 50  1  0  0  0
  5  6  1  0  0  0
  5 21  1  0  0  0
  5 49  1  0  0  0
  6  7  1  0  0  0
  6  9  1  0  0  0
  6 19  1  0  0  0
  7  8  1  0  0  0
  9 10  1  0  0  0
  9 14  1  0  0  0
  9 18  1  0  0  0
 10 11  1  0  0  0
 10 12  1  0  0  0
 10 13  1  0  0  0
 14 15  1  0  0  0
 14 16  1  0  0  0
 14 17  1  0  0  0
 19 20  1  0  0  0
 19 47  1  0  0  0
 19 48  1  0  0  0
 20 21  1  0  0  0
 20 45  1  0  0  0
 20 46  1  0  0  0
 21 22  1  0  0  0
 21 41  1  0  0  0
 22 23  1  0  0  0
 22 30  1  0  0  0
 22 40  1  0  0  0
 23 24  1  0  0  0
 24 25  2  0  0  0
 24 26  1  0  0  0
 26 27  1  0  0  0
 26 28  1  0  0  0
 26 29  1  0  0  0
 30 31  2  0  0  0
 30 39  1  0  0  0
 31 32  1  0  0  0
 31 35  1  0  0  0
 32 33  1  0  0  0
 32 34  1  0  0  0
 35 36  1  0  0  0
 35 37  1  0  0  0
 35 38  1  0  0  0
 41 42  1  0  0  0
 41 43  1  0  0  0
 41 44  1  0  0  0
 51 52  2  0  0  0
 51 61  1  0  0  0
 52 53  1  0  0  0
 52 65  1  0  0  0
 53 54  2  0  0  0
 53 64  1  0  0  0
 54 55  1  0  0  0
 54 60  1  0  0  0
 55 56  1  0  0  0
 56 57  1  0  0  0
 56 58  1  0  0  0
 56 59  1  0  0  0
 60 61  2  0  0  0
 60 63  1  0  0  0
 61 62  1  0  0  0
M  END
> <Tumorigenic>
none

> <Score>
35.52533

> <Active/Decoy>
active

> <InChI>
InChI=1S/C25H34O6/c1-15(2)25(28)12-11-24(5)21(30-17(4)26)14-16(3)13-20(22(24)25)31-23(27)18-7-9-19(29-6)10-8-18/h7-10,14-15,20-22,28H,11-13H2,1-6H3/t20-,21+,22+,24-,25-/m0/s1

> <Matching Features>
H:14924486185440016873||HBA:14924321692640012300|HBA:14924486112070016868

> <Mol. Index>
944

> <Pharmacophore Match>
Model -1

> <# Confs.>
25

> <Source Database>
Pharm-Screening-input-NANPDB_After_DataWarror.ldb

> <Pharmacophore-Fit Score>
35.53

> <formula>
C25H34O6

> <Mutagenic>
none

> <Reproductive Effective>
none

> <Irritant>
none

$$$$
omega-hydroxyferulenol
XX    ILIB03122402113D

 58 59  0  0  1  0              1 V2000
    4.6472    1.5514   -1.9913 O   0  0  0  0  0
    3.6302    1.8174   -2.6232 C   0  0  0  0  0
    3.6131    2.8741   -3.5255 O   0  0  0  0  0
    2.4635    3.2118   -4.2588 C   0  0  0  0  0
    1.2861    2.4906   -4.1066 C   0  0  0  0  0
    0.1739    2.8820   -4.8648 C   0  0  0  0  0
    0.2572    3.9661   -5.7435 C   0  0  0  0  0
    1.4519    4.6713   -5.8783 C   0  0  0  0  0
    2.5652    4.2958   -5.1336 C   0  0  0  0  0
    3.4979    4.8429   -5.2363 H   0  0  0  0  0
    1.5127    5.5128   -6.5635 H   0  0  0  0  0
   -0.6115    4.2593   -6.3250 H   0  0  0  0  0
   -0.7740    2.3552   -4.7847 H   0  0  0  0  0
    1.2718    1.3666   -3.1698 C   0  0  0  0  0
    2.3701    1.0332   -2.4644 C   0  0  0  0  0
    2.4425   -0.1197   -1.5209 C   0  0  0  0  0
    2.0874    0.2742   -0.1242 C   0  0  0  0  0
    1.5151   -0.4913    0.8342 C   0  0  0  0  0
    1.0713   -1.9129    0.6411 C   0  0  0  0  0
   -0.3583   -2.0456    0.1486 C   0  0  0  0  0
   -0.8056   -3.4680   -0.0324 C   0  0  0  0  0
   -1.2482   -4.0412   -1.1792 C   0  0  0  0  0
   -1.4268   -3.3252   -2.4876 C   0  0  0  0  0
   -2.8165   -2.7197   -2.6773 C   0  0  0  0  0
   -2.9950   -2.0042   -3.9856 C   0  0  0  0  0
   -3.3066   -0.7080   -4.1786 C   0  0  0  0  0
   -3.5893    0.2715   -3.0857 C   0  0  0  0  0
   -4.9029    0.7981   -3.2216 O   0  0  0  0  0
   -5.5269    0.0554   -3.1542 H   0  0  0  0  0
   -2.8808    1.1050   -3.1341 H   0  0  0  0  0
   -3.5039   -0.1809   -2.0927 H   0  0  0  0  0
   -3.4108   -0.1541   -5.5760 C   0  0  0  0  0
   -4.4266    0.2121   -5.7608 H   0  0  0  0  0
   -3.1845   -0.9043   -6.3397 H   0  0  0  0  0
   -2.7107    0.6759   -5.7115 H   0  0  0  0  0
   -2.8227   -2.6261   -4.8629 H   0  0  0  0  0
   -3.5529   -3.5302   -2.6002 H   0  0  0  0  0
   -3.0420   -2.0304   -1.8539 H   0  0  0  0  0
   -1.2468   -4.0245   -3.3149 H   0  0  0  0  0
   -0.6612   -2.5458   -2.5809 H   0  0  0  0  0
   -1.6203   -5.5007   -1.1946 C   0  0  0  0  0
   -2.6773   -5.6183   -1.4548 H   0  0  0  0  0
   -1.4622   -5.9815   -0.2235 H   0  0  0  0  0
   -1.0172   -6.0404   -1.9312 H   0  0  0  0  0
   -0.7344   -4.0848    0.8493 H   0  0  0  0  0
   -1.0187   -1.5643    0.8931 H   0  0  0  0  0
   -0.5119   -1.4944   -0.7819 H   0  0  0  0  0
    1.1725   -2.4608    1.5762 H   0  0  0  0  0
    1.7529   -2.4086   -0.0755 H   0  0  0  0  0
    1.2620    0.0720    2.2006 C   0  0  0  0  0
    0.1893    0.0632    2.4193 H   0  0  0  0  0
    1.6116    1.1050    2.2993 H   0  0  0  0  0
    1.7774   -0.5237    2.9598 H   0  0  0  0  0
    2.3547    1.2983    0.1339 H   0  0  0  0  0
    1.7878   -0.9237   -1.8794 H   0  0  0  0  0
    3.4578   -0.5352   -1.5107 H   0  0  0  0  0
    0.0610    0.7118   -3.0724 O   0  0  0  0  0
    0.1093    0.0409   -2.3740 H   0  0  0  0  0
  1  2  2  0  0  0
  2  3  1  0  0  0
  2 15  1  0  0  0
  3  4  1  0  0  0
  4  5  2  0  0  0
  4  9  1  0  0  0
  5  6  1  0  0  0
  5 14  1  0  0  0
  6  7  2  0  0  0
  6 13  1  0  0  0
  7  8  1  0  0  0
  7 12  1  0  0  0
  8  9  2  0  0  0
  8 11  1  0  0  0
  9 10  1  0  0  0
 14 15  2  0  0  0
 14 57  1  0  0  0
 15 16  1  0  0  0
 16 17  1  0  0  0
 16 55  1  0  0  0
 16 56  1  0  0  0
 17 18  2  0  0  0
 17 54  1  0  0  0
 18 19  1  0  0  0
 18 50  1  0  0  0
 19 20  1  0  0  0
 19 48  1  0  0  0
 19 49  1  0  0  0
 20 21  1  0  0  0
 20 46  1  0  0  0
 20 47  1  0  0  0
 21 22  2  0  0  0
 21 45  1  0  0  0
 22 23  1  0  0  0
 22 41  1  0  0  0
 23 24  1  0  0  0
 23 39  1  0  0  0
 23 40  1  0  0  0
 24 25  1  0  0  0
 24 37  1  0  0  0
 24 38  1  0  0  0
 25 26  2  0  0  0
 25 36  1  0  0  0
 26 27  1  0  0  0
 26 32  1  0  0  0
 27 28  1  0  0  0
 27 30  1  0  0  0
 27 31  1  0  0  0
 28 29  1  0  0  0
 32 33  1  0  0  0
 32 34  1  0  0  0
 32 35  1  0  0  0
 41 42  1  0  0  0
 41 43  1  0  0  0
 41 44  1  0  0  0
 50 51  1  0  0  0
 50 52  1  0  0  0
 50 53  1  0  0  0
 57 58  1  0  0  0
M  END
> <Tumorigenic>
none

> <Score>
35.534523

> <Active/Decoy>
active

> <InChI>
InChI=1S/C24H30O4/c1-17(9-7-11-19(3)16-25)8-6-10-18(2)14-15-21-23(26)20-12-4-5-13-22(20)28-24(21)27/h4-5,8,11-14,25-26H,6-7,9-10,15-16H2,1-3H3/b17-8+,18-14+,19-11+

> <Matching Features>
H:14924486185440016873||HBA:14924321692640012300|HBA:14924486112070016868

> <Mol. Index>
894

> <Pharmacophore Match>
Model -1

> <# Confs.>
25

> <Source Database>
Pharm-Screening-input-NANPDB_After_DataWarror.ldb

> <Pharmacophore-Fit Score>
35.53

> <formula>
C24H30O4

> <Mutagenic>
none

> <Reproductive Effective>
none

> <Irritant>
none

$$$$
tanzawaic acid F
XX    ILIB03122402113D

 46 47  0  0  1  0              1 V2000
   -3.6438    1.8891   -1.8590 O   0  0  0  0  0
   -3.9732    0.8740   -2.4521 C   0  0  0  0  0
   -5.0896    0.7711   -3.2136 O   0  0  0  0  0
   -5.2575   -0.1011   -3.6304 H   0  0  0  0  0
   -3.2234   -0.3934   -2.4352 C   0  0  0  0  0
   -2.0889   -0.4920   -1.7393 C   0  0  0  0  0
   -1.2498   -1.6583   -1.6750 C   0  0  0  0  0
   -0.1097   -1.8400   -0.9925 C   0  0  0  0  0
    0.5945   -0.8573   -0.1111 C   0  0  2  0  0
    2.1533   -0.9834   -0.0471 C   0  0  2  0  0
    2.6987    0.1923    0.8266 C   0  0  1  0  0
    1.9314    0.4241    2.0977 C   0  0  0  0  0
    0.7115   -0.0752    2.3189 C   0  0  0  0  0
   -0.0282   -0.9292    1.3262 C   0  0  2  0  0
   -0.1311   -2.3458    1.9119 C   0  0  0  0  0
    0.8401   -2.8489    1.9363 H   0  0  0  0  0
   -0.5142   -2.3176    2.9395 H   0  0  0  0  0
   -0.8240   -2.9682    1.3380 H   0  0  0  0  0
   -1.0500   -0.5293    1.2595 H   0  0  0  0  0
    0.2158    0.1481    3.2596 H   0  0  0  0  0
    2.3763    1.0604    2.8565 H   0  0  0  0  0
    4.1927    0.0024    1.1309 C   0  0  0  0  0
    5.0373   -0.0939   -0.1430 C   0  0  2  0  0
    5.2328    1.2481   -0.7991 C   0  0  0  0  0
    4.8868    1.5585   -1.9295 O   0  0  0  0  0
    5.9080    2.0901    0.0273 O   0  0  0  0  0
    6.0623    2.9651   -0.3884 H   0  0  0  0  0
    4.4622   -1.1319   -1.1087 C   0  0  0  0  0
    2.9489   -0.9705   -1.3921 C   0  0  1  0  0
    2.5653   -2.0602   -2.3975 C   0  0  0  0  0
    1.6209   -1.8332   -2.8951 H   0  0  0  0  0
    2.4971   -3.0421   -1.9187 H   0  0  0  0  0
    3.3089   -2.1336   -3.1996 H   0  0  0  0  0
    2.7908   -0.0013   -1.8834 H   0  0  0  0  0
    4.6334   -2.1295   -0.6822 H   0  0  0  0  0
    5.0162   -1.1087   -2.0554 H   0  0  0  0  0
    6.0433   -0.4143    0.1595 H   0  0  0  0  0
    4.3280   -0.9176    1.7164 H   0  0  0  0  0
    4.5602    0.8242    1.7579 H   0  0  0  0  0
    2.5844    1.1210    0.2506 H   0  0  0  0  0
    2.3877   -1.9326    0.4556 H   0  0  0  0  0
    0.3841    0.1512   -0.5011 H   0  0  0  0  0
    0.3740   -2.8122   -1.0796 H   0  0  0  0  0
   -1.6350   -2.5276   -2.2270 H   0  0  0  0  0
   -1.7012    0.3762   -1.1960 H   0  0  0  0  0
   -3.6160   -1.2275   -3.0083 H   0  0  0  0  0
  1  2  2  0  0  0
  2  3  1  0  0  0
  2  5  1  0  0  0
  3  4  1  0  0  0
  5  6  2  0  0  0
  5 46  1  0  0  0
  6  7  1  0  0  0
  6 45  1  0  0  0
  7  8  2  0  0  0
  7 44  1  0  0  0
  8  9  1  0  0  0
  8 43  1  0  0  0
  9 10  1  0  0  0
  9 14  1  0  0  0
  9 42  1  0  0  0
 10 11  1  0  0  0
 10 29  1  0  0  0
 10 41  1  0  0  0
 11 12  1  0  0  0
 11 22  1  0  0  0
 11 40  1  0  0  0
 12 13  2  0  0  0
 12 21  1  0  0  0
 13 14  1  0  0  0
 13 20  1  0  0  0
 14 15  1  0  0  0
 14 19  1  0  0  0
 15 16  1  0  0  0
 15 17  1  0  0  0
 15 18  1  0  0  0
 22 23  1  0  0  0
 22 38  1  0  0  0
 22 39  1  0  0  0
 23 24  1  0  0  0
 23 28  1  0  0  0
 23 37  1  0  0  0
 24 25  2  0  0  0
 24 26  1  0  0  0
 26 27  1  0  0  0
 28 29  1  0  0  0
 28 35  1  0  0  0
 28 36  1  0  0  0
 29 30  1  0  0  0
 29 34  1  0  0  0
 30 31  1  0  0  0
 30 32  1  0  0  0
 30 33  1  0  0  0
M  END
> <Tumorigenic>
none

> <Score>
35.53225

> <Active/Decoy>
active

> <InChI>
InChI=1S/C18H24O4/c1-11-7-8-13-10-14(18(21)22)9-12(2)17(13)15(11)5-3-4-6-16(19)20/h3-8,11-15,17H,9-10H2,1-2H3,(H,19,20)(H,21,22)/b5-3+,6-4+/t11-,12+,13-,14+,15-,17-/m0/s1

> <Matching Features>
H:14924486185440016873||HBA:14924321692640012300|HBA:14924486112070016868

> <Mol. Index>
853

> <Pharmacophore Match>
Model -1

> <# Confs.>
25

> <Source Database>
Pharm-Screening-input-NANPDB_After_DataWarror.ldb

> <Pharmacophore-Fit Score>
35.53

> <formula>
C18H24O4

> <Mutagenic>
none

> <Reproductive Effective>
none

> <Irritant>
none

$$$$
taccalin
XX    ILIB03122402113D

 48 51  0  0  1  0              1 V2000
   -1.0159    0.7325   -1.1545 O   0  3  0  0  0
    0.2178    1.0267   -1.0357 C   0  0  0  0  0
    0.8757    1.8366   -1.9742 C   0  0  0  0  0
    2.1907    2.1087   -1.7757 O   0  0  0  0  0
    2.9750    2.3240   -2.9682 C   0  0  2  0  0
    2.9718    1.1772   -3.8319 O   0  0  0  0  0
    3.7163    1.3948   -5.0282 C   0  0  0  0  0
    5.1842    1.6762   -4.7239 C   0  0  1  0  0
    5.8501    1.9950   -5.9408 O   0  0  0  0  0
    6.7747    2.1999   -5.7202 H   0  0  0  0  0
    5.3085    2.8403   -3.7393 C   0  0  2  0  0
    6.6642    2.9901   -3.3285 O   0  0  0  0  0
    6.9177    2.1833   -2.8487 H   0  0  0  0  0
    4.4116    2.6226   -2.5210 C   0  0  2  0  0
    4.9086    1.5038   -1.7795 O   0  0  0  0  0
    4.3031    1.3615   -1.0318 H   0  0  0  0  0
    4.4514    3.4860   -1.8486 H   0  0  0  0  0
    5.0298    3.7741   -4.2419 H   0  0  0  0  0
    5.6587    0.7791   -4.3095 H   0  0  0  0  0
    3.6321    0.4977   -5.6517 H   0  0  0  0  0
    3.2617    2.2113   -5.6035 H   0  0  0  0  0
    2.5809    3.1932   -3.5161 H   0  0  0  0  0
    0.1298    2.3123   -3.0513 C   0  0  0  0  0
   -1.2105    1.9656   -3.1396 C   0  0  0  0  0
   -1.7153    1.1289   -2.1361 C   0  0  0  0  0
   -3.0568    0.7308   -2.1605 C   0  0  0  0  0
   -3.8913    1.1498   -3.1950 C   0  0  0  0  0
   -5.2018    0.7660   -3.2379 O   0  0  0  0  0
   -5.3859    0.2055   -2.4646 H   0  0  0  0  0
   -3.4076    1.9632   -4.2136 C   0  0  0  0  0
   -2.0691    2.3569   -4.1896 C   0  0  0  0  0
   -1.5880    3.1730   -5.1807 O   0  0  0  0  0
   -2.3029    3.3430   -5.8179 H   0  0  0  0  0
   -4.0653    2.2807   -5.0175 H   0  0  0  0  0
   -3.4419    0.1020   -1.3622 H   0  0  0  0  0
    0.5713    2.9447   -3.8152 H   0  0  0  0  0
    0.8292    0.4211    0.1465 C   0  0  0  0  0
    0.8708   -0.9633    0.3549 C   0  0  0  0  0
    1.4563   -1.5130    1.4998 C   0  0  0  0  0
    2.0074   -0.6735    2.4615 C   0  0  0  0  0
    2.5864   -1.1787    3.5910 O   0  0  0  0  0
    2.5324   -2.1486    3.5570 H   0  0  0  0  0
    1.9808    0.7055    2.2905 C   0  0  0  0  0
    1.3952    1.2485    1.1436 C   0  0  0  0  0
    1.3878    2.3316    1.0351 H   0  0  0  0  0
    2.4094    1.3646    3.0399 H   0  0  0  0  0
    1.4737   -2.5914    1.6244 H   0  0  0  0  0
    0.4495   -1.6476   -0.3782 H   0  0  0  0  0
  1  2  2  0  0  0
  1 25  1  0  0  0
  2  3  1  0  0  0
  2 37  1  0  0  0
  3  4  1  0  0  0
  3 23  2  0  0  0
  4  5  1  0  0  0
  5  6  1  0  0  0
  5 14  1  0  0  0
  5 22  1  0  0  0
  6  7  1  0  0  0
  7  8  1  0  0  0
  7 20  1  0  0  0
  7 21  1  0  0  0
  8  9  1  0  0  0
  8 11  1  0  0  0
  8 19  1  0  0  0
  9 10  1  0  0  0
 11 12  1  0  0  0
 11 14  1  0  0  0
 11 18  1  0  0  0
 12 13  1  0  0  0
 14 15  1  0  0  0
 14 17  1  0  0  0
 15 16  1  0  0  0
 23 24  1  0  0  0
 23 36  1  0  0  0
 24 25  1  0  0  0
 24 31  2  0  0  0
 25 26  2  0  0  0
 26 27  1  0  0  0
 26 35  1  0  0  0
 27 28  1  0  0  0
 27 30  2  0  0  0
 28 29  1  0  0  0
 30 31  1  0  0  0
 30 34  1  0  0  0
 31 32  1  0  0  0
 32 33  1  0  0  0
 37 38  2  0  0  0
 37 44  1  0  0  0
 38 39  1  0  0  0
 38 48  1  0  0  0
 39 40  2  0  0  0
 39 47  1  0  0  0
 40 41  1  0  0  0
 40 43  1  0  0  0
 41 42  1  0  0  0
 43 44  2  0  0  0
 43 46  1  0  0  0
 44 45  1  0  0  0
M  END
> <Tumorigenic>
none

> <Score>
35.5202

> <Active/Decoy>
active

> <InChI>
InChI=1S/C20H19O9/c21-10-3-1-9(2-4-10)19-16(29-20-18(26)17(25)14(24)8-27-20)7-12-13(23)5-11(22)6-15(12)28-19/h1-7,14,17-18,20-26H,8H2/q+1/t14-,17+,18+,20+/m1/s1

> <Matching Features>
H:14924486185440016873||HBA:14924321692640012300|HBA:14924486112070016868

> <Mol. Index>
1280

> <Pharmacophore Match>
Model -1

> <# Confs.>
25

> <Source Database>
Pharm-Screening-input-NANPDB_After_DataWarror.ldb

> <Pharmacophore-Fit Score>
35.52

> <formula>
C20H19O9+

> <Mutagenic>
none

> <Reproductive Effective>
none

> <Irritant>
none

$$$$
3-tropoyloxy-6-acetoxytropane
XX    ILIB03122402113D

 50 52  0  0  1  0              1 V2000
    1.3412    2.3701   -1.3691 O   0  0  0  0  0
    1.2942    1.2562   -0.8761 C   0  0  0  0  0
    0.1694    0.5815   -0.5402 O   0  0  0  0  0
   -1.0787    1.2370   -0.7913 C   0  0  1  0  0
   -2.1869    0.2153   -1.0790 C   0  0  0  0  0
   -3.6047    0.7928   -0.8860 C   0  0  2  0  0
   -3.6768    1.2446    0.5164 N   0  0  0  0  0
   -5.0440    1.4255    0.9935 C   0  0  0  0  0
   -5.6232    2.1576    0.4221 H   0  0  0  0  0
   -5.0354    1.7482    2.0405 H   0  0  0  0  0
   -5.5827    0.4712    0.9650 H   0  0  0  0  0
   -2.9117    2.5041    0.4869 C   0  0  1  0  0
   -3.3468    3.2013   -0.8100 C   0  0  0  0  0
   -3.8825    2.0696   -1.7003 C   0  0  1  0  0
   -3.2387    2.0334   -2.9829 O   0  0  0  0  0
   -3.9497    1.4997   -3.9994 C   0  0  0  0  0
   -5.0849    1.0468   -3.9319 O   0  0  0  0  0
   -3.1411    1.5525   -5.2600 C   0  0  0  0  0
   -2.9732    2.5931   -5.5465 H   0  0  0  0  0
   -3.6865    1.0492   -6.0639 H   0  0  0  0  0
   -2.1911    1.0336   -5.1147 H   0  0  0  0  0
   -4.9659    2.1878   -1.8395 H   0  0  0  0  0
   -2.5366    3.7726   -1.2746 H   0  0  0  0  0
   -4.1650    3.9013   -0.5969 H   0  0  0  0  0
   -1.4270    2.0983    0.4478 C   0  0  0  0  0
   -1.1711    1.5504    1.3653 H   0  0  0  0  0
   -0.7899    2.9913    0.4545 H   0  0  0  0  0
   -3.0868    3.1302    1.3688 H   0  0  0  0  0
   -4.3325    0.0055   -1.1137 H   0  0  0  0  0
   -2.0672   -0.1655   -2.1006 H   0  0  0  0  0
   -2.0581   -0.6594   -0.4267 H   0  0  0  0  0
   -0.9520    1.9101   -1.6425 H   0  0  0  0  0
    2.5313    0.4591   -0.5154 C   0  0  1  0  0
    3.7716    1.2609   -0.8705 C   0  0  0  0  0
    3.7761    1.5448   -2.2656 O   0  0  0  0  0
    2.9547    2.0237   -2.4677 H   0  0  0  0  0
    3.8051    2.2148   -0.3343 H   0  0  0  0  0
    4.6816    0.6967   -0.6452 H   0  0  0  0  0
    2.4846    0.0207    0.9282 C   0  0  0  0  0
    1.9052   -1.2048    1.2909 C   0  0  0  0  0
    1.8700   -1.6050    2.6273 C   0  0  0  0  0
    2.4112   -0.7861    3.6156 C   0  0  0  0  0
    2.9890    0.4331    3.2685 C   0  0  0  0  0
    3.0261    0.8349    1.9324 C   0  0  0  0  0
    3.4823    1.7885    1.6810 H   0  0  0  0  0
    3.4123    1.0721    4.0390 H   0  0  0  0  0
    2.3836   -1.0972    4.6551 H   0  0  0  0  0
    1.4202   -2.5553    2.8968 H   0  0  0  0  0
    1.4788   -1.8561    0.5325 H   0  0  0  0  0
    2.5498   -0.4396   -1.1485 H   0  0  0  0  0
  1  2  2  0  0  0
  2  3  1  0  0  0
  2 33  1  0  0  0
  3  4  1  0  0  0
  4  5  1  0  0  0
  4 25  1  0  0  0
  4 32  1  0  0  0
  5  6  1  0  0  0
  5 30  1  0  0  0
  5 31  1  0  0  0
  6  7  1  0  0  0
  6 14  1  0  0  0
  6 29  1  0  0  0
  7  8  1  0  0  0
  7 12  1  0  0  0
  8  9  1  0  0  0
  8 10  1  0  0  0
  8 11  1  0  0  0
 12 13  1  0  0  0
 12 25  1  0  0  0
 12 28  1  0  0  0
 13 14  1  0  0  0
 13 23  1  0  0  0
 13 24  1  0  0  0
 14 15  1  0  0  0
 14 22  1  0  0  0
 15 16  1  0  0  0
 16 17  2  0  0  0
 16 18  1  0  0  0
 18 19  1  0  0  0
 18 20  1  0  0  0
 18 21  1  0  0  0
 25 26  1  0  0  0
 25 27  1  0  0  0
 33 34  1  0  0  0
 33 39  1  0  0  0
 33 50  1  0  0  0
 34 35  1  0  0  0
 34 37  1  0  0  0
 34 38  1  0  0  0
 35 36  1  0  0  0
 39 40  2  0  0  0
 39 44  1  0  0  0
 40 41  1  0  0  0
 40 49  1  0  0  0
 41 42  2  0  0  0
 41 48  1  0  0  0
 42 43  1  0  0  0
 42 47  1  0  0  0
 43 44  2  0  0  0
 43 46  1  0  0  0
 44 45  1  0  0  0
M  END
> <Tumorigenic>
none

> <Score>
35.518024

> <Active/Decoy>
active

> <InChI>
InChI=1S/C19H25NO5/c1-12(22)24-18-9-14-8-15(10-17(18)20(14)2)25-19(23)16(11-21)13-6-4-3-5-7-13/h3-7,14-18,21H,8-11H2,1-2H3/t14-,15-,16+,17+,18-/m1/s1

> <Matching Features>
H:14924486185440016873||HBA:14924321692640012300|HBA:14924486112070016868

> <Mol. Index>
795

> <Pharmacophore Match>
Model -1

> <# Confs.>
25

> <Source Database>
Pharm-Screening-input-NANPDB_After_DataWarror.ldb

> <Pharmacophore-Fit Score>
35.52

> <formula>
C19H25NO5

> <Mutagenic>
none

> <Reproductive Effective>
none

> <Irritant>
none

$$$$
3-tropoyloxy-6-isobutyryloxytropane
XX    ILIB03122402113D

 56 58  0  0  1  0              1 V2000
    1.1384    2.8692   -2.4077 O   0  0  0  0  0
    1.4293    1.6740   -2.3832 C   0  0  0  0  0
    0.7192    0.6850   -2.9760 O   0  0  0  0  0
   -0.4605    1.0426   -3.7096 C   0  0  2  0  0
   -1.4855   -0.1017   -3.6896 C   0  0  0  0  0
   -2.5407    0.0168   -4.8101 C   0  0  1  0  0
   -1.7887    0.0072   -6.0786 N   0  0  0  0  0
   -2.6165   -0.3169   -7.2366 C   0  0  0  0  0
   -2.0009   -0.3254   -8.1428 H   0  0  0  0  0
   -3.0338   -1.3235   -7.1319 H   0  0  0  0  0
   -3.4451    0.3797   -7.4004 H   0  0  0  0  0
   -1.2352    1.3724   -6.1343 C   0  0  2  0  0
   -2.3774    2.2819   -5.6576 C   0  0  0  0  0
   -3.2897    1.3609   -4.8332 C   0  0  2  0  0
   -3.5197    1.8660   -3.5068 O   0  0  0  0  0
   -4.6766    1.4955   -2.8917 C   0  0  0  0  0
   -5.5441    0.7705   -3.3641 O   0  0  0  0  0
   -4.7416    2.0808   -1.5086 C   0  0  0  0  0
   -4.1135    1.1184   -0.5092 C   0  0  0  0  0
   -3.0751    0.8967   -0.7759 H   0  0  0  0  0
   -4.1183    1.5444    0.4994 H   0  0  0  0  0
   -4.6545    0.1662   -0.4814 H   0  0  0  0  0
   -6.1832    2.4029   -1.1250 C   0  0  0  0  0
   -6.2277    2.8831   -0.1422 H   0  0  0  0  0
   -6.7998    1.4987   -1.0887 H   0  0  0  0  0
   -6.6378    3.0831   -1.8553 H   0  0  0  0  0
   -4.1805    3.0233   -1.5173 H   0  0  0  0  0
   -4.2519    1.2351   -5.3488 H   0  0  0  0  0
   -2.9384    2.6542   -6.5234 H   0  0  0  0  0
   -2.0189    3.1515   -5.0969 H   0  0  0  0  0
   -0.0450    1.3910   -5.1564 C   0  0  0  0  0
    0.7260    0.6887   -5.5011 H   0  0  0  0  0
    0.4340    2.3779   -5.1626 H   0  0  0  0  0
   -0.8795    1.6474   -7.1330 H   0  0  0  0  0
   -3.2339   -0.8282   -4.7223 H   0  0  0  0  0
   -0.9618   -1.0634   -3.7827 H   0  0  0  0  0
   -1.9746   -0.1326   -2.7083 H   0  0  0  0  0
   -0.8901    1.9402   -3.2544 H   0  0  0  0  0
    2.5995    1.1180   -1.6338 C   0  0  1  0  0
    3.7504    2.1020   -1.5392 C   0  0  0  0  0
    4.9830    1.4025   -1.4899 O   0  0  0  0  0
    5.6886    2.0693   -1.4303 H   0  0  0  0  0
    3.6580    2.7287   -0.6459 H   0  0  0  0  0
    3.7546    2.7682   -2.4087 H   0  0  0  0  0
    2.1641    0.5764   -0.2953 C   0  0  0  0  0
    2.8441   -0.5077    0.2781 C   0  0  0  0  0
    2.4469   -1.0223    1.5135 C   0  0  0  0  0
    1.3648   -0.4620    2.1887 C   0  0  0  0  0
    0.6760    0.6115    1.6286 C   0  0  0  0  0
    1.0717    1.1267    0.3929 C   0  0  0  0  0
    0.5183    1.9612   -0.0307 H   0  0  0  0  0
   -0.1702    1.0470    2.1513 H   0  0  0  0  0
    1.0557   -0.8627    3.1498 H   0  0  0  0  0
    2.9820   -1.8612    1.9479 H   0  0  0  0  0
    3.6893   -0.9604   -0.2335 H   0  0  0  0  0
    2.9616    0.2808   -2.2489 H   0  0  0  0  0
  1  2  2  0  0  0
  2  3  1  0  0  0
  2 39  1  0  0  0
  3  4  1  0  0  0
  4  5  1  0  0  0
  4 31  1  0  0  0
  4 38  1  0  0  0
  5  6  1  0  0  0
  5 36  1  0  0  0
  5 37  1  0  0  0
  6  7  1  0  0  0
  6 14  1  0  0  0
  6 35  1  0  0  0
  7  8  1  0  0  0
  7 12  1  0  0  0
  8  9  1  0  0  0
  8 10  1  0  0  0
  8 11  1  0  0  0
 12 13  1  0  0  0
 12 31  1  0  0  0
 12 34  1  0  0  0
 13 14  1  0  0  0
 13 29  1  0  0  0
 13 30  1  0  0  0
 14 15  1  0  0  0
 14 28  1  0  0  0
 15 16  1  0  0  0
 16 17  2  0  0  0
 16 18  1  0  0  0
 18 19  1  0  0  0
 18 23  1  0  0  0
 18 27  1  0  0  0
 19 20  1  0  0  0
 19 21  1  0  0  0
 19 22  1  0  0  0
 23 24  1  0  0  0
 23 25  1  0  0  0
 23 26  1  0  0  0
 31 32  1  0  0  0
 31 33  1  0  0  0
 39 40  1  0  0  0
 39 45  1  0  0  0
 39 56  1  0  0  0
 40 41  1  0  0  0
 40 43  1  0  0  0
 40 44  1  0  0  0
 41 42  1  0  0  0
 45 46  2  0  0  0
 45 50  1  0  0  0
 46 47  1  0  0  0
 46 55  1  0  0  0
 47 48  2  0  0  0
 47 54  1  0  0  0
 48 49  1  0  0  0
 48 53  1  0  0  0
 49 50  2  0  0  0
 49 52  1  0  0  0
 50 51  1  0  0  0
M  END
> <Tumorigenic>
none

> <Score>
35.45625

> <Active/Decoy>
active

> <InChI>
InChI=1S/C21H29NO5/c1-13(2)20(24)27-19-10-15-9-16(11-18(19)22(15)3)26-21(25)17(12-23)14-7-5-4-6-8-14/h4-8,13,15-19,23H,9-12H2,1-3H3/t15-,16-,17-,18+,19-/m0/s1

> <Matching Features>
H:14924486185440016873||HBA:14924321692640012300|HBA:14924486112070016868

> <Mol. Index>
796

> <Pharmacophore Match>
Model -1

> <# Confs.>
25

> <Source Database>
Pharm-Screening-input-NANPDB_After_DataWarror.ldb

> <Pharmacophore-Fit Score>
35.46

> <formula>
C21H29NO5

> <Mutagenic>
none

> <Reproductive Effective>
none

> <Irritant>
none

$$$$
nagilactone F
XX    ILIB03122402113D

 47 50  0  0  1  0              1 V2000
    4.2150    1.4947   -1.9878 O   0  0  0  0  0
    3.0440    1.3137   -1.6732 C   0  0  0  0  0
    2.6797    0.7998   -0.4755 O   0  0  0  0  0
    1.3204    0.9145    0.0122 C   0  0  1  0  0
    0.3383    0.6062   -1.0987 C   0  0  0  0  0
   -0.7986   -0.1009   -0.9561 C   0  0  0  0  0
   -1.7205   -0.4294   -2.0906 C   0  0  1  0  0
   -3.0183    0.1511   -1.9137 O   0  0  0  0  0
   -3.5656    0.4356   -3.1422 C   0  0  0  0  0
   -2.5636    0.1327   -4.2432 C   0  0  2  0  0
   -1.2576    0.0824   -3.4430 C   0  0  1  0  0
   -0.4885    1.4366   -3.3617 C   0  0  1  0  0
    0.6863    1.2208   -2.3840 C   0  0  0  0  0
    1.9522    1.5989   -2.6192 C   0  0  0  0  0
    2.2464    2.0863   -3.5423 H   0  0  0  0  0
   -0.0780    1.7849   -4.8190 C   0  0  0  0  0
   -1.1387    1.4602   -5.8857 C   0  0  0  0  0
   -2.5457    1.1954   -5.3534 C   0  0  0  0  0
   -2.9957    2.1357   -5.0204 H   0  0  0  0  0
   -3.1803    0.8807   -6.1911 H   0  0  0  0  0
   -0.8088    0.5704   -6.4380 H   0  0  0  0  0
   -1.1709    2.2693   -6.6253 H   0  0  0  0  0
    0.8270    1.2327   -5.1045 H   0  0  0  0  0
    0.1892    2.8466   -4.8924 H   0  0  0  0  0
   -1.2768    2.6452   -2.7818 C   0  0  0  0  0
   -1.6874    2.4519   -1.7864 H   0  0  0  0  0
   -0.6175    3.5179   -2.6836 H   0  0  0  0  0
   -2.1069    2.9678   -3.4087 H   0  0  0  0  0
   -0.5705   -0.6582   -3.8809 H   0  0  0  0  0
   -2.9146   -1.2420   -4.8361 C   0  0  0  0  0
   -2.1634   -1.5573   -5.5679 H   0  0  0  0  0
   -3.8880   -1.2137   -5.3398 H   0  0  0  0  0
   -2.9833   -2.0195   -4.0675 H   0  0  0  0  0
   -4.7030    0.8550   -3.3032 O   0  0  0  0  0
   -1.8504   -1.5186   -2.1089 H   0  0  0  0  0
   -1.0831   -0.5053    0.0100 H   0  0  0  0  0
    1.2105    0.1025    1.3072 C   0  0  0  0  0
    1.5340   -1.3930    1.0832 C   0  0  0  0  0
    0.8690   -1.8385    0.3372 H   0  0  0  0  0
    2.5678   -1.5407    0.7520 H   0  0  0  0  0
    1.4007   -1.9514    2.0160 H   0  0  0  0  0
    2.1173    0.6593    2.3971 C   0  0  0  0  0
    1.9786    0.1097    3.3340 H   0  0  0  0  0
    3.1755    0.5947    2.1253 H   0  0  0  0  0
    1.8787    1.7102    2.5915 H   0  0  0  0  0
    0.1797    0.1545    1.6610 H   0  0  0  0  0
    1.1784    1.9819    0.2888 H   0  0  0  0  0
  1  2  2  0  0  0
  2  3  1  0  0  0
  2 14  1  0  0  0
  3  4  1  0  0  0
  4  5  1  0  0  0
  4 37  1  0  0  0
  4 47  1  0  0  0
  5  6  2  0  0  0
  5 13  1  0  0  0
  6  7  1  0  0  0
  6 36  1  0  0  0
  7  8  1  0  0  0
  7 11  1  0  0  0
  7 35  1  0  0  0
  8  9  1  0  0  0
  9 10  1  0  0  0
  9 34  2  0  0  0
 10 11  1  0  0  0
 10 18  1  0  0  0
 10 30  1  0  0  0
 11 12  1  0  0  0
 11 29  1  0  0  0
 12 13  1  0  0  0
 12 16  1  0  0  0
 12 25  1  0  0  0
 13 14  2  0  0  0
 14 15  1  0  0  0
 16 17  1  0  0  0
 16 23  1  0  0  0
 16 24  1  0  0  0
 17 18  1  0  0  0
 17 21  1  0  0  0
 17 22  1  0  0  0
 18 19  1  0  0  0
 18 20  1  0  0  0
 25 26  1  0  0  0
 25 27  1  0  0  0
 25 28  1  0  0  0
 30 31  1  0  0  0
 30 32  1  0  0  0
 30 33  1  0  0  0
 37 38  1  0  0  0
 37 42  1  0  0  0
 37 46  1  0  0  0
 38 39  1  0  0  0
 38 40  1  0  0  0
 38 41  1  0  0  0
 42 43  1  0  0  0
 42 44  1  0  0  0
 42 45  1  0  0  0
M  END
> <Tumorigenic>
none

> <Score>
35.453945

> <Active/Decoy>
active

> <InChI>
InChI=1S/C19H24O4/c1-10(2)15-11-8-13-16-18(3,12(11)9-14(20)23-15)6-5-7-19(16,4)17(21)22-13/h8-10,13,15-16H,5-7H2,1-4H3/t13-,15-,16-,18-,19+/m1/s1

> <Matching Features>
H:14924486185440016873||HBA:14924321692640012300|HBA:14924486112070016868

> <Mol. Index>
681

> <Pharmacophore Match>
Model -1

> <# Confs.>
5

> <Source Database>
Pharm-Screening-input-NANPDB_After_DataWarror.ldb

> <Pharmacophore-Fit Score>
35.45

> <formula>
C19H24O4

> <Mutagenic>
none

> <Reproductive Effective>
none

> <Irritant>
none

$$$$
fissinolide
XX    ILIB03122402113D

 73 77  0  0  1  0              1 V2000
   -0.1600    2.1152    2.5129 O   0  0  0  0  0
   -0.2483    1.3113    1.5901 C   0  0  0  0  0
   -0.6760   -0.1473    1.7481 C   0  0  2  0  0
    0.3100   -1.0562    0.8726 C   0  0  1  0  0
    1.6820   -0.3308    0.5268 C   0  0  0  0  0
    2.5219   -1.1761   -0.4662 C   0  0  0  0  0
    2.9189   -2.0849   -0.0040 H   0  0  0  0  0
    1.9252   -1.4696   -1.3369 H   0  0  0  0  0
    3.3855   -0.6081   -0.8319 H   0  0  0  0  0
    2.5583   -0.1649    1.7923 C   0  0  0  0  0
    3.5592    0.2036    1.5379 H   0  0  0  0  0
    2.1306    0.5405    2.5085 H   0  0  0  0  0
    2.7051   -1.1187    2.3087 H   0  0  0  0  0
    1.4121    1.0533   -0.1880 C   0  0  2  0  0
    2.4634    1.9767    0.1423 O   0  0  0  0  0
    3.5489    2.0015   -0.6789 C   0  0  0  0  0
    3.7223    1.3121   -1.6759 O   0  0  0  0  0
    4.5220    3.0360   -0.1982 C   0  0  0  0  0
    5.4928    2.8672   -0.6710 H   0  0  0  0  0
    4.1600    4.0322   -0.4639 H   0  0  0  0  0
    4.6561    2.9516    0.8834 H   0  0  0  0  0
    0.0565    1.6946    0.1687 C   0  0  1  0  0
   -1.0722    1.2175   -0.7751 C   0  0  0  0  0
   -2.3195    0.6609   -0.1120 C   0  0  0  0  0
   -2.1375   -0.1617    1.1697 C   0  0  2  0  0
   -3.2151    0.2221    2.2058 C   0  0  0  0  0
   -4.5897    0.6086    1.6473 C   0  0  0  0  0
   -4.8061    0.3683    0.1361 C   0  0  1  0  0
   -6.0168    1.2191   -0.3711 C   0  0  1  0  0
   -6.1724    1.0206   -1.7974 O   0  0  0  0  0
   -5.0863    1.1603   -2.5979 C   0  0  0  0  0
   -3.8180    1.5985   -1.9049 C   0  0  0  0  0
   -3.5646    0.8552   -0.6159 C   0  0  0  0  0
   -3.0060    1.4218   -2.6189 H   0  0  0  0  0
   -3.8884    2.6757   -1.7214 H   0  0  0  0  0
   -5.1474    0.9927   -3.8115 O   0  0  0  0  0
   -7.3052    0.9501    0.3115 C   0  0  0  0  0
   -7.7716    1.5262    1.4786 C   0  0  0  0  0
   -8.9958    1.0378    1.8047 O   0  0  0  0  0
   -9.3271    0.1377    0.8446 C   0  0  0  0  0
   -8.3269    0.0457   -0.0936 C   0  0  0  0  0
   -8.3289   -0.5928   -0.9661 H   0  0  0  0  0
  -10.2854   -0.3440    0.9651 H   0  0  0  0  0
   -7.3677    2.2632    2.1571 H   0  0  0  0  0
   -5.8084    2.2905   -0.2274 H   0  0  0  0  0
   -5.0402   -1.1342   -0.1502 C   0  0  0  0  0
   -4.1865   -1.7583    0.1195 H   0  0  0  0  0
   -5.2396   -1.3240   -1.2104 H   0  0  0  0  0
   -5.8921   -1.5199    0.4201 H   0  0  0  0  0
   -5.3627    0.0951    2.2335 H   0  0  0  0  0
   -4.7288    1.6786    1.8580 H   0  0  0  0  0
   -3.3504   -0.6156    2.9022 H   0  0  0  0  0
   -2.8697    1.0668    2.8147 H   0  0  0  0  0
   -2.3302   -1.2033    0.8936 H   0  0  0  0  0
   -0.7038    0.4597   -1.4781 H   0  0  0  0  0
   -1.3219    2.0823   -1.4006 H   0  0  0  0  0
    0.1151    2.7897    0.1220 H   0  0  0  0  0
    1.4399    0.8999   -1.2766 H   0  0  0  0  0
    0.4947   -2.4746    1.3746 C   0  0  0  0  0
   -0.8174   -3.2175    1.4579 C   0  0  0  0  0
   -1.7727   -2.8526    2.1310 O   0  0  0  0  0
   -0.7553   -4.3457    0.6972 O   0  0  0  0  0
   -1.9359   -5.1544    0.7103 C   0  0  0  0  0
   -2.7919   -4.5852    0.3346 H   0  0  0  0  0
   -1.7693   -6.0121    0.0523 H   0  0  0  0  0
   -2.1300   -5.5206    1.7230 H   0  0  0  0  0
    1.1798   -3.0236    0.7388 H   0  0  0  0  0
    0.9246   -2.4432    2.3971 H   0  0  0  0  0
   -0.1824   -1.1972   -0.1129 H   0  0  0  0  0
   -0.6122   -0.5281    3.2452 C   0  0  0  0  0
   -1.0949   -1.4909    3.4369 H   0  0  0  0  0
    0.4190   -0.5871    3.6064 H   0  0  0  0  0
   -1.1052    0.2103    3.8868 H   0  0  0  0  0
  1  2  2  0  0  0
  2  3  1  0  0  0
  2 22  1  0  0  0
  3  4  1  0  0  0
  3 25  1  0  0  0
  3 70  1  0  0  0
  4  5  1  0  0  0
  4 59  1  0  0  0
  4 69  1  0  0  0
  5  6  1  0  0  0
  5 10  1  0  0  0
  5 14  1  0  0  0
  6  7  1  0  0  0
  6  8  1  0  0  0
  6  9  1  0  0  0
 10 11  1  0  0  0
 10 12  1  0  0  0
 10 13  1  0  0  0
 14 15  1  0  0  0
 14 22  1  0  0  0
 14 58  1  0  0  0
 15 16  1  0  0  0
 16 17  2  0  0  0
 16 18  1  0  0  0
 18 19  1  0  0  0
 18 20  1  0  0  0
 18 21  1  0  0  0
 22 23  1  0  0  0
 22 57  1  0  0  0
 23 24  1  0  0  0
 23 55  1  0  0  0
 23 56  1  0  0  0
 24 25  1  0  0  0
 24 33  2  0  0  0
 25 26  1  0  0  0
 25 54  1  0  0  0
 26 27  1  0  0  0
 26 52  1  0  0  0
 26 53  1  0  0  0
 27 28  1  0  0  0
 27 50  1  0  0  0
 27 51  1  0  0  0
 28 29  1  0  0  0
 28 33  1  0  0  0
 28 46  1  0  0  0
 29 30  1  0  0  0
 29 37  1  0  0  0
 29 45  1  0  0  0
 30 31  1  0  0  0
 31 32  1  0  0  0
 31 36  2  0  0  0
 32 33  1  0  0  0
 32 34  1  0  0  0
 32 35  1  0  0  0
 37 38  2  0  0  0
 37 41  1  0  0  0
 38 39  1  0  0  0
 38 44  1  0  0  0
 39 40  1  0  0  0
 40 41  2  0  0  0
 40 43  1  0  0  0
 41 42  1  0  0  0
 46 47  1  0  0  0
 46 48  1  0  0  0
 46 49  1  0  0  0
 59 60  1  0  0  0
 59 67  1  0  0  0
 59 68  1  0  0  0
 60 61  2  0  0  0
 60 62  1  0  0  0
 62 63  1  0  0  0
 63 64  1  0  0  0
 63 65  1  0  0  0
 63 66  1  0  0  0
 70 71  1  0  0  0
 70 72  1  0  0  0
 70 73  1  0  0  0
M  END
> <Tumorigenic>
none

> <Score>
35.414375

> <Active/Decoy>
active

> <InChI>
InChI=1S/C29H36O8/c1-15(30)36-26-18-11-17-19(29(5,24(18)33)21(27(26,2)3)13-22(31)34-6)7-9-28(4)20(17)12-23(32)37-25(28)16-8-10-35-14-16/h8,10,14,18-19,21,25-26H,7,9,11-13H2,1-6H3/t18-,19-,21+,25-,26+,28+,29-/m0/s1

> <Matching Features>
H:14924486185440016873||HBA:14924321692640012300|HBA:14924486112070016868

> <Mol. Index>
617

> <Pharmacophore Match>
Model -1

> <# Confs.>
16

> <Source Database>
Pharm-Screening-input-NANPDB_After_DataWarror.ldb

> <Pharmacophore-Fit Score>
35.41

> <formula>
C29H36O8

> <Mutagenic>
none

> <Reproductive Effective>
none

> <Irritant>
none

$$$$
silybin B
XX    ILIB03122402113D

 57 61  0  0  1  0              1 V2000
    6.5317    2.2355    2.2112 O   0  0  0  0  0
    5.9186    1.9438    1.1905 C   0  0  0  0  0
    5.2983    2.9803    0.3329 C   0  0  0  0  0
    4.6935    2.5731   -0.8636 C   0  0  0  0  0
    4.5975    1.2690   -1.2703 O   0  0  0  0  0
    4.6231    0.2944   -0.2157 C   0  0  1  0  0
    5.8191    0.5160    0.7151 C   0  0  1  0  0
    7.0358    0.2338    0.0359 O   0  0  0  0  0
    7.0382    0.7328   -0.7991 H   0  0  0  0  0
    5.7644   -0.1459    1.5867 H   0  0  0  0  0
    3.2623    0.1821    0.4322 C   0  0  0  0  0
    2.1037    0.4276   -0.3188 C   0  0  0  0  0
    0.8414    0.3278    0.2716 C   0  0  0  0  0
   -0.2383    0.6156   -0.5213 O   0  0  0  0  0
   -1.4467    0.8148    0.2242 C   0  0  2  0  0
   -1.5855   -0.2857    1.3090 C   0  0  1  0  0
   -0.4839   -0.1851    2.2334 O   0  0  0  0  0
    0.7225   -0.0459    1.6071 C   0  0  0  0  0
    1.8651   -0.2837    2.3688 C   0  0  0  0  0
    3.1264   -0.1739    1.7828 C   0  0  0  0  0
    4.0066   -0.3746    2.3895 H   0  0  0  0  0
    1.7809   -0.5665    3.4137 H   0  0  0  0  0
   -2.8475   -0.1420    2.1400 C   0  0  0  0  0
   -2.8482    1.1101    2.8059 O   0  0  0  0  0
   -3.6712    1.1579    3.3229 H   0  0  0  0  0
   -2.9224   -0.9443    2.8826 H   0  0  0  0  0
   -3.7341   -0.2046    1.4996 H   0  0  0  0  0
   -1.5443   -1.2926    0.8711 H   0  0  0  0  0
   -2.5796    0.8520   -0.7541 C   0  0  0  0  0
   -3.3949    1.9695   -0.8992 C   0  0  0  0  0
   -4.4353    1.9931   -1.8363 C   0  0  0  0  0
   -5.2850    3.0421   -2.0402 O   0  0  0  0  0
   -5.0635    4.1781   -1.2093 C   0  0  0  0  0
   -5.2040    3.9268   -0.1532 H   0  0  0  0  0
   -5.8056    4.9354   -1.4749 H   0  0  0  0  0
   -4.0709    4.6074   -1.3827 H   0  0  0  0  0
   -4.6389    0.8704   -2.6430 C   0  0  0  0  0
   -5.6401    0.8392   -3.5758 O   0  0  0  0  0
   -6.1215    1.6841   -3.5309 H   0  0  0  0  0
   -3.8309   -0.2574   -2.5267 C   0  0  0  0  0
   -2.7991   -0.2723   -1.5899 C   0  0  0  0  0
   -2.1741   -1.1578   -1.5094 H   0  0  0  0  0
   -3.9975   -1.1248   -3.1591 H   0  0  0  0  0
   -3.1989    2.8273   -0.2605 H   0  0  0  0  0
   -1.3630    1.7928    0.7188 H   0  0  0  0  0
    2.1841    0.7093   -1.3667 H   0  0  0  0  0
    4.7976   -0.6650   -0.7212 H   0  0  0  0  0
    4.1639    3.5202   -1.7448 C   0  0  0  0  0
    4.2152    4.8716   -1.4159 C   0  0  0  0  0
    3.6972    5.8197   -2.2528 O   0  0  0  0  0
    3.3309    5.3745   -3.0360 H   0  0  0  0  0
    4.7954    5.2910   -0.2237 C   0  0  0  0  0
    5.3372    4.3455    0.6483 C   0  0  0  0  0
    5.8953    4.8420    1.7955 O   0  0  0  0  0
    6.2044    4.1067    2.3471 H   0  0  0  0  0
    4.8291    6.3493    0.0241 H   0  0  0  0  0
    3.7051    3.1993   -2.6762 H   0  0  0  0  0
  1  2  2  0  0  0
  2  3  1  0  0  0
  2  7  1  0  0  0
  3  4  2  0  0  0
  3 53  1  0  0  0
  4  5  1  0  0  0
  4 48  1  0  0  0
  5  6  1  0  0  0
  6  7  1  0  0  0
  6 11  1  0  0  0
  6 47  1  0  0  0
  7  8  1  0  0  0
  7 10  1  0  0  0
  8  9  1  0  0  0
 11 12  2  0  0  0
 11 20  1  0  0  0
 12 13  1  0  0  0
 12 46  1  0  0  0
 13 14  1  0  0  0
 13 18  2  0  0  0
 14 15  1  0  0  0
 15 16  1  0  0  0
 15 29  1  0  0  0
 15 45  1  0  0  0
 16 17  1  0  0  0
 16 23  1  0  0  0
 16 28  1  0  0  0
 17 18  1  0  0  0
 18 19  1  0  0  0
 19 20  2  0  0  0
 19 22  1  0  0  0
 20 21  1  0  0  0
 23 24  1  0  0  0
 23 26  1  0  0  0
 23 27  1  0  0  0
 24 25  1  0  0  0
 29 30  2  0  0  0
 29 41  1  0  0  0
 30 31  1  0  0  0
 30 44  1  0  0  0
 31 32  1  0  0  0
 31 37  2  0  0  0
 32 33  1  0  0  0
 33 34  1  0  0  0
 33 35  1  0  0  0
 33 36  1  0  0  0
 37 38  1  0  0  0
 37 40  1  0  0  0
 38 39  1  0  0  0
 40 41  2  0  0  0
 40 43  1  0  0  0
 41 42  1  0  0  0
 48 49  2  0  0  0
 48 57  1  0  0  0
 49 50  1  0  0  0
 49 52  1  0  0  0
 50 51  1  0  0  0
 52 53  2  0  0  0
 52 56  1  0  0  0
 53 54  1  0  0  0
 54 55  1  0  0  0
M  END
> <Tumorigenic>
none

> <Score>
35.39838

> <Active/Decoy>
active

> <InChI>
InChI=1S/C25H22O10/c1-32-17-6-11(2-4-14(17)28)24-20(10-26)33-16-5-3-12(7-18(16)34-24)25-23(31)22(30)21-15(29)8-13(27)9-19(21)35-25/h2-9,20,23-29,31H,10H2,1H3/t20-,23-,24-,25+/m0/s1

> <Matching Features>
H:14924486185440016873||HBA:14924321692640012300|HBA:14924486112070016868

> <Mol. Index>
247

> <Pharmacophore Match>
Model -1

> <# Confs.>
25

> <Source Database>
Pharm-Screening-input-NANPDB_After_DataWarror.ldb

> <Pharmacophore-Fit Score>
35.4

> <formula>
C25H22O10

> <Mutagenic>
none

> <Reproductive Effective>
none

> <Irritant>
none

$$$$
silybin A
XX    ILIB03122402113D

 57 61  0  0  1  0              1 V2000
    6.2493    0.5436    3.2979 O   0  0  0  0  0
    5.5963   -0.0616    2.4537 C   0  0  0  0  0
    5.3641    0.4967    1.1006 C   0  0  0  0  0
    4.6852   -0.2944    0.1675 C   0  0  0  0  0
    4.1807   -1.5395    0.4367 O   0  0  0  0  0
    3.8664   -1.7861    1.8175 C   0  0  1  0  0
    5.0488   -1.4403    2.7261 C   0  0  1  0  0
    6.1218   -2.3474    2.5111 O   0  0  0  0  0
    6.3038   -2.3784    1.5547 H   0  0  0  0  0
    4.7641   -1.5087    3.7816 H   0  0  0  0  0
    2.5288   -1.1766    2.1711 C   0  0  0  0  0
    1.5294   -1.0605    1.1941 C   0  0  0  0  0
    0.2841   -0.5165    1.5152 C   0  0  0  0  0
   -0.6451   -0.4494    0.5153 O   0  0  0  0  0
   -1.9768   -0.2166    0.9918 C   0  0  1  0  0
   -1.9469    0.9246    2.0421 C   0  0  2  0  0
   -1.1542    0.5092    3.1721 O   0  0  0  0  0
    0.0340   -0.0565    2.8045 C   0  0  0  0  0
    1.0120   -0.1792    3.7900 C   0  0  0  0  0
    2.2519   -0.7365    3.4744 C   0  0  0  0  0
    3.0031   -0.8251    4.2563 H   0  0  0  0  0
    0.8209    0.1638    4.8033 H   0  0  0  0  0
   -3.3212    1.2618    2.5920 C   0  0  0  0  0
   -3.8795    0.1144    3.2246 O   0  0  0  0  0
   -3.2600   -0.1646    3.9200 H   0  0  0  0  0
   -3.2756    2.0644    3.3352 H   0  0  0  0  0
   -4.0032    1.5613    1.7905 H   0  0  0  0  0
   -1.4774    1.8325    1.6391 H   0  0  0  0  0
   -2.8130    0.0826   -0.2110 C   0  0  0  0  0
   -3.9271   -0.7381   -0.5069 C   0  0  0  0  0
   -4.7163   -0.4831   -1.6341 C   0  0  0  0  0
   -5.8095   -1.2109   -2.0099 O   0  0  0  0  0
   -6.1334   -2.3078   -1.1600 C   0  0  0  0  0
   -5.3229   -3.0455   -1.1400 H   0  0  0  0  0
   -6.3784   -1.9664   -0.1484 H   0  0  0  0  0
   -7.0212   -2.7980   -1.5709 H   0  0  0  0  0
   -4.3826    0.5896   -2.4614 C   0  0  0  0  0
   -5.1296    0.9005   -3.5649 O   0  0  0  0  0
   -5.8719    0.2731   -3.6099 H   0  0  0  0  0
   -3.2842    1.4045   -2.1802 C   0  0  0  0  0
   -2.5018    1.1415   -1.0587 C   0  0  0  0  0
   -1.6431    1.7743   -0.8497 H   0  0  0  0  0
   -3.0321    2.2385   -2.8299 H   0  0  0  0  0
   -4.1518   -1.5652    0.1617 H   0  0  0  0  0
   -2.3280   -1.1364    1.4807 H   0  0  0  0  0
    1.7174   -1.4058    0.1795 H   0  0  0  0  0
    3.7316   -2.8745    1.8852 H   0  0  0  0  0
    4.5100    0.1553   -1.1448 C   0  0  0  0  0
    4.9915    1.4082   -1.5137 C   0  0  0  0  0
    4.8270    1.8788   -2.7860 O   0  0  0  0  0
    4.3528    1.2064   -3.3057 H   0  0  0  0  0
    5.6497    2.2154   -0.5922 C   0  0  0  0  0
    5.8388    1.7576    0.7141 C   0  0  0  0  0
    6.5017    2.6098    1.5526 O   0  0  0  0  0
    6.5438    2.2171    2.4419 H   0  0  0  0  0
    6.0214    3.1923   -0.8890 H   0  0  0  0  0
    3.9931   -0.4687   -1.8695 H   0  0  0  0  0
  1  2  2  0  0  0
  2  3  1  0  0  0
  2  7  1  0  0  0
  3  4  2  0  0  0
  3 53  1  0  0  0
  4  5  1  0  0  0
  4 48  1  0  0  0
  5  6  1  0  0  0
  6  7  1  0  0  0
  6 11  1  0  0  0
  6 47  1  0  0  0
  7  8  1  0  0  0
  7 10  1  0  0  0
  8  9  1  0  0  0
 11 12  2  0  0  0
 11 20  1  0  0  0
 12 13  1  0  0  0
 12 46  1  0  0  0
 13 14  1  0  0  0
 13 18  2  0  0  0
 14 15  1  0  0  0
 15 16  1  0  0  0
 15 29  1  0  0  0
 15 45  1  0  0  0
 16 17  1  0  0  0
 16 23  1  0  0  0
 16 28  1  0  0  0
 17 18  1  0  0  0
 18 19  1  0  0  0
 19 20  2  0  0  0
 19 22  1  0  0  0
 20 21  1  0  0  0
 23 24  1  0  0  0
 23 26  1  0  0  0
 23 27  1  0  0  0
 24 25  1  0  0  0
 29 30  2  0  0  0
 29 41  1  0  0  0
 30 31  1  0  0  0
 30 44  1  0  0  0
 31 32  1  0  0  0
 31 37  2  0  0  0
 32 33  1  0  0  0
 33 34  1  0  0  0
 33 35  1  0  0  0
 33 36  1  0  0  0
 37 38  1  0  0  0
 37 40  1  0  0  0
 38 39  1  0  0  0
 40 41  2  0  0  0
 40 43  1  0  0  0
 41 42  1  0  0  0
 48 49  2  0  0  0
 48 57  1  0  0  0
 49 50  1  0  0  0
 49 52  1  0  0  0
 50 51  1  0  0  0
 52 53  2  0  0  0
 52 56  1  0  0  0
 53 54  1  0  0  0
 54 55  1  0  0  0
M  END
> <Tumorigenic>
none

> <Score>
35.386456

> <Active/Decoy>
active

> <InChI>
InChI=1S/C25H22O10/c1-32-17-6-11(2-4-14(17)28)24-20(10-26)33-16-5-3-12(7-18(16)34-24)25-23(31)22(30)21-15(29)8-13(27)9-19(21)35-25/h2-9,20,23-29,31H,10H2,1H3/t20-,23+,24-,25-/m1/s1

> <Matching Features>
H:14924486185440016873||HBA:14924321692640012300|HBA:14924486112070016868

> <Mol. Index>
246

> <Pharmacophore Match>
Model -1

> <# Confs.>
25

> <Source Database>
Pharm-Screening-input-NANPDB_After_DataWarror.ldb

> <Pharmacophore-Fit Score>
35.39

> <formula>
C25H22O10

> <Mutagenic>
none

> <Reproductive Effective>
none

> <Irritant>
none

$$$$
20(S),24(R)-epoxydammarane-3alpha,17alpha,25-triol
XX    ILIB03122402113D

 83 87  0  0  1  0              1 V2000
    4.8825    0.3446    0.8334 O   0  0  0  0  0
    3.4975    0.7283    0.7572 C   0  0  2  0  0
    3.0085    0.4706   -0.6776 C   0  0  2  0  0
    3.8207    1.2759   -1.5485 O   0  0  0  0  0
    3.6131    2.2155   -1.3678 H   0  0  0  0  0
    1.5033    0.7521   -1.0450 C   0  0  1  0  0
    1.2447   -0.0723   -2.3755 C   0  0  2  0  0
   -0.1730   -0.8281   -2.3950 C   0  0  1  0  0
   -1.2543    0.1409   -1.8143 C   0  0  1  0  0
   -2.7285   -0.3608   -1.9774 C   0  0  2  0  0
   -3.0445   -0.7738   -3.4417 C   0  0  2  0  0
   -4.5281   -1.2531   -3.6328 C   0  0  0  0  0
   -5.4972   -0.1603   -3.0948 C   0  0  2  0  0
   -5.4209    1.0014   -3.9259 O   0  0  0  0  0
   -6.0665    1.6458   -3.5913 H   0  0  0  0  0
   -5.1842    0.2536   -1.6600 C   0  0  0  0  0
   -3.7355    0.7046   -1.4969 C   0  0  0  0  0
   -3.5772    1.6377   -2.0491 H   0  0  0  0  0
   -3.5766    0.9350   -0.4381 H   0  0  0  0  0
   -5.8365    1.0835   -1.3638 H   0  0  0  0  0
   -5.3918   -0.5745   -0.9717 H   0  0  0  0  0
   -6.5316   -0.5186   -3.1509 H   0  0  0  0  0
   -4.8086   -2.5888   -2.9060 C   0  0  0  0  0
   -5.8665   -2.8637   -2.9963 H   0  0  0  0  0
   -4.2309   -3.4125   -3.3380 H   0  0  0  0  0
   -4.5735   -2.5474   -1.8403 H   0  0  0  0  0
   -4.8306   -1.4788   -5.1343 C   0  0  0  0  0
   -4.5314   -0.6157   -5.7408 H   0  0  0  0  0
   -4.3105   -2.3575   -5.5284 H   0  0  0  0  0
   -5.9022   -1.6442   -5.2982 H   0  0  0  0  0
   -2.0009   -1.7827   -3.9511 C   0  0  0  0  0
   -0.5895   -1.2044   -3.8474 C   0  0  0  0  0
    0.1251   -1.9186   -4.2745 H   0  0  0  0  0
   -0.5748   -0.3244   -4.4981 H   0  0  0  0  0
   -2.0644   -2.7284   -3.4059 H   0  0  0  0  0
   -2.1831   -2.0181   -5.0063 H   0  0  0  0  0
   -2.9240    0.1313   -4.0576 H   0  0  0  0  0
   -2.8581   -1.2356   -1.3324 H   0  0  0  0  0
   -0.9575    0.5312   -0.3538 C   0  0  0  0  0
    0.5035    0.4589    0.0724 C   0  0  0  0  0
    0.6441    1.1748    0.8911 H   0  0  0  0  0
    0.6924   -0.5200    0.5184 H   0  0  0  0  0
   -1.3109    1.5583   -0.1946 H   0  0  0  0  0
   -1.5366   -0.0952    0.3373 H   0  0  0  0  0
   -1.1974    1.0712   -2.3963 H   0  0  0  0  0
   -0.1361   -2.1643   -1.5921 C   0  0  0  0  0
    0.4355   -2.1055   -0.6682 H   0  0  0  0  0
    0.3165   -2.9707   -2.1803 H   0  0  0  0  0
   -1.1341   -2.5153   -1.3166 H   0  0  0  0  0
    2.4625   -1.0381   -2.4853 C   0  0  0  0  0
    3.1868   -0.9771   -1.1422 C   0  0  0  0  0
    4.2417   -1.2417   -1.2718 H   0  0  0  0  0
    2.7373   -1.6888   -0.4424 H   0  0  0  0  0
    2.2008   -2.0649   -2.7486 H   0  0  0  0  0
    3.1568   -0.7060   -3.2681 H   0  0  0  0  0
    1.3672    0.9338   -3.5617 C   0  0  0  0  0
    1.4316    0.4183   -4.5262 H   0  0  0  0  0
    2.2740    1.5435   -3.4884 H   0  0  0  0  0
    0.5247    1.6307   -3.5965 H   0  0  0  0  0
    1.3940    1.8227   -1.2704 H   0  0  0  0  0
    3.4305    2.2115    1.1725 C   0  0  0  0  0
    4.8609    2.6837    1.0377 C   0  0  0  0  0
    5.6356    1.4279    1.3968 C   0  0  2  0  0
    7.0955    1.3974    0.9058 C   0  0  0  0  0
    7.1257    1.5118   -0.5201 O   0  0  0  0  0
    6.7316    0.7094   -0.9000 H   0  0  0  0  0
    7.8902    2.5842    1.4589 C   0  0  0  0  0
    7.4811    3.5378    1.1079 H   0  0  0  0  0
    7.8966    2.5889    2.5526 H   0  0  0  0  0
    8.9278    2.5548    1.1074 H   0  0  0  0  0
    7.7857    0.0857    1.2943 C   0  0  0  0  0
    7.7927   -0.0587    2.3790 H   0  0  0  0  0
    8.8221    0.0723    0.9362 H   0  0  0  0  0
    7.2947   -0.7769    0.8317 H   0  0  0  0  0
    5.6170    1.3097    2.4897 H   0  0  0  0  0
    5.0932    3.5280    1.6933 H   0  0  0  0  0
    5.0490    2.9970    0.0063 H   0  0  0  0  0
    3.1208    2.3152    2.2201 H   0  0  0  0  0
    2.7370    2.8130    0.5788 H   0  0  0  0  0
    2.7331   -0.1376    1.7797 C   0  0  0  0  0
    3.1547   -0.0128    2.7846 H   0  0  0  0  0
    2.8318   -1.2037    1.5471 H   0  0  0  0  0
    1.6689    0.1154    1.8206 H   0  0  0  0  0
  1  2  1  0  0  0
  1 63  1  0  0  0
  2  3  1  0  0  0
  2 61  1  0  0  0
  2 80  1  0  0  0
  3  4  1  0  0  0
  3  6  1  0  0  0
  3 51  1  0  0  0
  4  5  1  0  0  0
  6  7  1  0  0  0
  6 40  1  0  0  0
  6 60  1  0  0  0
  7  8  1  0  0  0
  7 50  1  0  0  0
  7 56  1  0  0  0
  8  9  1  0  0  0
  8 32  1  0  0  0
  8 46  1  0  0  0
  9 10  1  0  0  0
  9 39  1  0  0  0
  9 45  1  0  0  0
 10 11  1  0  0  0
 10 17  1  0  0  0
 10 38  1  0  0  0
 11 12  1  0  0  0
 11 31  1  0  0  0
 11 37  1  0  0  0
 12 13  1  0  0  0
 12 23  1  0  0  0
 12 27  1  0  0  0
 13 14  1  0  0  0
 13 16  1  0  0  0
 13 22  1  0  0  0
 14 15  1  0  0  0
 16 17  1  0  0  0
 16 20  1  0  0  0
 16 21  1  0  0  0
 17 18  1  0  0  0
 17 19  1  0  0  0
 23 24  1  0  0  0
 23 25  1  0  0  0
 23 26  1  0  0  0
 27 28  1  0  0  0
 27 29  1  0  0  0
 27 30  1  0  0  0
 31 32  1  0  0  0
 31 35  1  0  0  0
 31 36  1  0  0  0
 32 33  1  0  0  0
 32 34  1  0  0  0
 39 40  1  0  0  0
 39 43  1  0  0  0
 39 44  1  0  0  0
 40 41  1  0  0  0
 40 42  1  0  0  0
 46 47  1  0  0  0
 46 48  1  0  0  0
 46 49  1  0  0  0
 50 51  1  0  0  0
 50 54  1  0  0  0
 50 55  1  0  0  0
 51 52  1  0  0  0
 51 53  1  0  0  0
 56 57  1  0  0  0
 56 58  1  0  0  0
 56 59  1  0  0  0
 61 62  1  0  0  0
 61 78  1  0  0  0
 61 79  1  0  0  0
 62 63  1  0  0  0
 62 76  1  0  0  0
 62 77  1  0  0  0
 63 64  1  0  0  0
 63 75  1  0  0  0
 64 65  1  0  0  0
 64 67  1  0  0  0
 64 71  1  0  0  0
 65 66  1  0  0  0
 67 68  1  0  0  0
 67 69  1  0  0  0
 67 70  1  0  0  0
 71 72  1  0  0  0
 71 73  1  0  0  0
 71 74  1  0  0  0
 80 81  1  0  0  0
 80 82  1  0  0  0
 80 83  1  0  0  0
M  END
> <Tumorigenic>
none

> <Score>
35.388775

> <Active/Decoy>
active

> <InChI>
InChI=1S/C29H49O4/c1-24(2)19-12-14-26(5)20(18(19)8-11-22(24)30)9-10-21-27(26,6)16-17-29(21,32)28(7)15-13-23(33-28)25(3,4)31/h19-23,30-32H,8-17H2,1-7H3/t19-,20-,21-,22-,23-,26-,27-,28+,29-/m1/s1

> <Matching Features>
H:14924486185440016873||HBA:14924321692640012300|HBA:14924486112070016868

> <Mol. Index>
177

> <Pharmacophore Match>
Model -1

> <# Confs.>
7

> <Source Database>
Pharm-Screening-input-NANPDB_After_DataWarror.ldb

> <Pharmacophore-Fit Score>
35.39

> <formula>
C29H49O4

> <Mutagenic>
none

> <Reproductive Effective>
none

> <Irritant>
none

$$$$
(IR*,2R*,3E,7R,11R*,12S*)-3,8(17)-dolabelladiene-2.7,16,l8-tetrol-18- O-beta-D-glucopyranoside
XX    ILIB03122402113D

 85 87  0  0  1  0              1 V2000
   -3.6791   -1.5290   -3.8352 O   0  0  0  0  0
   -4.3040   -0.2887   -3.5245 C   0  0  2  0  0
   -4.6506   -0.1538   -2.1414 O   0  0  0  0  0
   -3.5408   -0.2415   -1.2624 C   0  0  0  0  0
   -3.9804   -0.0942    0.1823 C   0  0  0  0  0
   -2.7406   -0.1951    1.1168 C   0  0  1  0  0
   -1.5309    0.8351    1.0002 C   0  0  1  0  0
   -0.8388    0.7214    2.4473 C   0  0  2  0  0
    0.1311   -0.5111    2.7010 C   0  0  1  0  0
   -0.4862   -1.7520    2.4048 O   0  0  0  0  0
   -1.1094   -1.9573    3.1207 H   0  0  0  0  0
    1.5137   -0.4109    2.0875 C   0  0  0  0  0
    2.2169   -1.1941    1.2413 C   0  0  0  0  0
    3.6273   -0.7681    0.8615 C   0  0  0  0  0
    3.8475   -0.3482   -0.6006 C   0  0  0  0  0
    3.0728    0.8993   -1.0645 C   0  0  1  0  0
    3.7497    1.4151   -2.2175 O   0  0  0  0  0
    3.3112    2.2449   -2.4699 H   0  0  0  0  0
    1.6167    0.6497   -1.4257 C   0  0  0  0  0
    0.5733    1.3057   -0.5394 C   0  0  0  0  0
   -0.6292    0.4086   -0.2012 C   0  0  0  0  0
   -0.3022   -0.6247   -0.0568 H   0  0  0  0  0
   -1.2454    0.3784   -1.1045 H   0  0  0  0  0
    0.2296    2.2204   -1.0369 H   0  0  0  0  0
    1.0576    1.6314    0.3771 H   0  0  0  0  0
    1.2826   -0.0793   -2.5058 C   0  0  0  0  0
    2.0407   -0.5259   -3.1404 H   0  0  0  0  0
    0.2500   -0.2407   -2.7910 H   0  0  0  0  0
    3.1573    1.6788   -0.2993 H   0  0  0  0  0
    3.6542   -1.1923   -1.2727 H   0  0  0  0  0
    4.9206   -0.1455   -0.7187 H   0  0  0  0  0
    4.3072   -1.6001    1.0863 H   0  0  0  0  0
    3.9693    0.0543    1.5045 H   0  0  0  0  0
    1.7636   -2.4804    0.6296 C   0  0  0  0  0
    1.4670   -3.4323    1.6435 O   0  0  0  0  0
    0.7493   -3.0679    2.1888 H   0  0  0  0  0
    2.5534   -2.8947   -0.0055 H   0  0  0  0  0
    0.8702   -2.3512    0.0086 H   0  0  0  0  0
    2.0441    0.4718    2.4482 H   0  0  0  0  0
    0.3279   -0.5434    3.7824 H   0  0  0  0  0
   -2.0809    0.5651    3.3711 C   0  0  0  0  0
   -3.1515   -0.1858    2.5993 C   0  0  0  0  0
   -3.2404   -1.2154    2.9651 H   0  0  0  0  0
   -4.1230    0.2865    2.7777 H   0  0  0  0  0
   -1.8461    0.0620    4.3151 H   0  0  0  0  0
   -2.4891    1.5458    3.6470 H   0  0  0  0  0
   -0.1218    2.0132    2.9252 C   0  0  0  0  0
   -0.8049    2.8662    2.9966 H   0  0  0  0  0
    0.2956    1.8705    3.9284 H   0  0  0  0  0
    0.6954    2.3158    2.2704 H   0  0  0  0  0
   -2.0413    2.2704    0.7304 C   0  0  0  0  0
   -2.5209    2.3475   -0.2504 H   0  0  0  0  0
   -1.2232    2.9982    0.7218 H   0  0  0  0  0
   -2.7602    2.5998    1.4864 H   0  0  0  0  0
   -2.3185   -1.1838    0.9187 H   0  0  0  0  0
   -4.7076    1.2622    0.3569 C   0  0  0  0  0
   -5.0369    1.4105    1.3917 H   0  0  0  0  0
   -5.6008    1.3198   -0.2749 H   0  0  0  0  0
   -4.0620    2.1034    0.0874 H   0  0  0  0  0
   -4.9774   -1.2164    0.5183 C   0  0  0  0  0
   -5.8594   -1.1822   -0.1309 H   0  0  0  0  0
   -5.3363   -1.1440    1.5500 H   0  0  0  0  0
   -4.5114   -2.1997    0.3933 H   0  0  0  0  0
   -2.9937   -1.1802   -1.4113 H   0  0  0  0  0
   -2.8502    0.5814   -1.5299 H   0  0  0  0  0
   -5.5549   -0.1017   -4.3880 C   0  0  2  0  0
   -6.2150    1.1155   -4.0573 O   0  0  0  0  0
   -5.5724    1.8369   -4.1663 H   0  0  0  0  0
   -6.5243   -1.2657   -4.2006 C   0  0  1  0  0
   -7.5674   -1.1712   -5.1717 O   0  0  0  0  0
   -7.9930   -0.3054   -5.0555 H   0  0  0  0  0
   -5.7977   -2.5959   -4.4058 C   0  0  2  0  0
   -6.6614   -3.6657   -4.0303 O   0  0  0  0  0
   -7.4691   -3.5863   -4.5628 H   0  0  0  0  0
   -4.5150   -2.6641   -3.5706 C   0  0  1  0  0
   -3.7063   -3.9064   -3.8968 C   0  0  0  0  0
   -2.5431   -3.9520   -3.0866 O   0  0  0  0  0
   -2.0586   -4.7605   -3.3287 H   0  0  0  0  0
   -3.4104   -3.9170   -4.9515 H   0  0  0  0  0
   -4.3019   -4.8078   -3.7147 H   0  0  0  0  0
   -4.7528   -2.6876   -2.4991 H   0  0  0  0  0
   -5.5611   -2.7218   -5.4704 H   0  0  0  0  0
   -7.0087   -1.2309   -3.2169 H   0  0  0  0  0
   -5.2723   -0.0465   -5.4469 H   0  0  0  0  0
   -3.5935    0.5216   -3.7758 H   0  0  0  0  0
  1  2  1  0  0  0
  1 75  1  0  0  0
  2  3  1  0  0  0
  2 66  1  0  0  0
  2 85  1  0  0  0
  3  4  1  0  0  0
  4  5  1  0  0  0
  4 64  1  0  0  0
  4 65  1  0  0  0
  5  6  1  0  0  0
  5 56  1  0  0  0
  5 60  1  0  0  0
  6  7  1  0  0  0
  6 42  1  0  0  0
  6 55  1  0  0  0
  7  8  1  0  0  0
  7 21  1  0  0  0
  7 51  1  0  0  0
  8  9  1  0  0  0
  8 41  1  0  0  0
  8 47  1  0  0  0
  9 10  1  0  0  0
  9 12  1  0  0  0
  9 40  1  0  0  0
 10 11  1  0  0  0
 12 13  2  0  0  0
 12 39  1  0  0  0
 13 14  1  0  0  0
 13 34  1  0  0  0
 14 15  1  0  0  0
 14 32  1  0  0  0
 14 33  1  0  0  0
 15 16  1  0  0  0
 15 30  1  0  0  0
 15 31  1  0  0  0
 16 17  1  0  0  0
 16 19  1  0  0  0
 16 29  1  0  0  0
 17 18  1  0  0  0
 19 20  1  0  0  0
 19 26  2  0  0  0
 20 21  1  0  0  0
 20 24  1  0  0  0
 20 25  1  0  0  0
 21 22  1  0  0  0
 21 23  1  0  0  0
 26 27  1  0  0  0
 26 28  1  0  0  0
 34 35  1  0  0  0
 34 37  1  0  0  0
 34 38  1  0  0  0
 35 36  1  0  0  0
 41 42  1  0  0  0
 41 45  1  0  0  0
 41 46  1  0  0  0
 42 43  1  0  0  0
 42 44  1  0  0  0
 47 48  1  0  0  0
 47 49  1  0  0  0
 47 50  1  0  0  0
 51 52  1  0  0  0
 51 53  1  0  0  0
 51 54  1  0  0  0
 56 57  1  0  0  0
 56 58  1  0  0  0
 56 59  1  0  0  0
 60 61  1  0  0  0
 60 62  1  0  0  0
 60 63  1  0  0  0
 66 67  1  0  0  0
 66 69  1  0  0  0
 66 84  1  0  0  0
 67 68  1  0  0  0
 69 70  1  0  0  0
 69 72  1  0  0  0
 69 83  1  0  0  0
 70 71  1  0  0  0
 72 73  1  0  0  0
 72 75  1  0  0  0
 72 82  1  0  0  0
 73 74  1  0  0  0
 75 76  1  0  0  0
 75 81  1  0  0  0
 76 77  1  0  0  0
 76 79  1  0  0  0
 76 80  1  0  0  0
 77 78  1  0  0  0
M  END
> <Tumorigenic>
none

> <Score>
35.380928

> <Active/Decoy>
active

> <InChI>
InChI=1S/C28H48O9/c1-16-8-10-27(4)20(9-11-28(27,5)21(32)12-17(13-29)6-7-18(16)31)26(2,3)15-36-25-24(35)23(34)22(33)19(14-30)37-25/h12,18-25,29-35H,1,6-11,13-15H2,2-5H3/b17-12-/t18-,19-,20+,21+,22-,23+,24-,25+,27+,28+/m1/s1

> <Matching Features>
H:14924486185440016873||HBA:14924321692640012300|HBA:14924486112070016868

> <Mol. Index>
524

> <Pharmacophore Match>
Model -1

> <# Confs.>
25

> <Source Database>
Pharm-Screening-input-NANPDB_After_DataWarror.ldb

> <Pharmacophore-Fit Score>
35.38

> <formula>
C28H48O9

> <Mutagenic>
none

> <Reproductive Effective>
none

> <Irritant>
none

$$$$
5alpha-[2-(beta-D-glucopyranosyloxy)ethyl]-4alpha-hydroxymethyl-3-methylcyclopent-2-en-1-one
XX    ILIB03122402113D

 47 48  0  0  1  0              1 V2000
    3.6242    1.4405   -2.0442 O   0  0  0  0  0
    3.1468    0.6731   -1.2212 C   0  0  0  0  0
    3.2185    0.9135    0.2252 C   0  0  0  0  0
    2.6844   -0.1627    0.8105 C   0  0  0  0  0
    2.5887   -0.3505    2.2857 C   0  0  0  0  0
    3.0797   -1.2828    2.5855 H   0  0  0  0  0
    3.0714    0.4685    2.8295 H   0  0  0  0  0
    1.5431   -0.3879    2.6040 H   0  0  0  0  0
    2.2482   -1.2472   -0.1471 C   0  0  1  0  0
    0.9139   -1.8908    0.1831 C   0  0  0  0  0
    1.1131   -3.0064    1.0359 O   0  0  0  0  0
    0.2361   -3.3849    1.2203 H   0  0  0  0  0
    0.4014   -2.2212   -0.7271 H   0  0  0  0  0
    0.2586   -1.1713    0.6857 H   0  0  0  0  0
    2.3798   -0.6047   -1.5394 C   0  0  1  0  0
    1.1130   -0.2488   -2.3365 C   0  0  0  0  0
    0.1027    0.6817   -1.6335 C   0  0  0  0  0
   -1.0123    0.9206   -2.4717 O   0  0  0  0  0
   -1.7243   -0.2519   -2.8379 C   0  0  1  0  0
   -2.2484   -0.9638   -1.7107 O   0  0  0  0  0
   -3.1906   -0.2018   -0.9429 C   0  0  1  0  0
   -4.3919    0.1979   -1.8055 C   0  0  1  0  0
   -5.2444    1.0557   -1.0537 O   0  0  0  0  0
   -5.9880    1.3047   -1.6299 H   0  0  0  0  0
   -3.9466    0.9184   -3.0781 C   0  0  2  0  0
   -5.0804    1.0494   -3.9372 O   0  0  0  0  0
   -4.7757    1.4721   -4.7582 H   0  0  0  0  0
   -2.8664    0.1095   -3.7913 C   0  0  1  0  0
   -2.3689    0.8613   -4.8924 O   0  0  0  0  0
   -1.6716    0.3339   -5.3174 H   0  0  0  0  0
   -3.3191   -0.8047   -4.1925 H   0  0  0  0  0
   -3.6053    1.9364   -2.8544 H   0  0  0  0  0
   -4.9751   -0.6928   -2.0741 H   0  0  0  0  0
   -3.6131   -1.0611    0.2344 C   0  0  0  0  0
   -2.4823   -1.3885    1.0256 O   0  0  0  0  0
   -2.7993   -1.9363    1.7637 H   0  0  0  0  0
   -4.0919   -1.9853   -0.1066 H   0  0  0  0  0
   -4.3388   -0.5258    0.8559 H   0  0  0  0  0
   -2.6861    0.6892   -0.5465 H   0  0  0  0  0
   -1.0321   -0.9201   -3.3648 H   0  0  0  0  0
    0.5912    1.6272   -1.3422 H   0  0  0  0  0
   -0.2655    0.2041   -0.7267 H   0  0  0  0  0
    0.6111   -1.1705   -2.6218 H   0  0  0  0  0
    1.4354    0.2357   -3.2706 H   0  0  0  0  0
    3.0320   -1.2266   -2.1669 H   0  0  0  0  0
    3.0058   -2.0442   -0.0938 H   0  0  0  0  0
    3.6332    1.7918    0.6872 H   0  0  0  0  0
  1  2  2  0  0  0
  2  3  1  0  0  0
  2 15  1  0  0  0
  3  4  2  0  0  0
  3 47  1  0  0  0
  4  5  1  0  0  0
  4  9  1  0  0  0
  5  6  1  0  0  0
  5  7  1  0  0  0
  5  8  1  0  0  0
  9 10  1  0  0  0
  9 15  1  0  0  0
  9 46  1  0  0  0
 10 11  1  0  0  0
 10 13  1  0  0  0
 10 14  1  0  0  0
 11 12  1  0  0  0
 15 16  1  0  0  0
 15 45  1  0  0  0
 16 17  1  0  0  0
 16 43  1  0  0  0
 16 44  1  0  0  0
 17 18  1  0  0  0
 17 41  1  0  0  0
 17 42  1  0  0  0
 18 19  1  0  0  0
 19 20  1  0  0  0
 19 28  1  0  0  0
 19 40  1  0  0  0
 20 21  1  0  0  0
 21 22  1  0  0  0
 21 34  1  0  0  0
 21 39  1  0  0  0
 22 23  1  0  0  0
 22 25  1  0  0  0
 22 33  1  0  0  0
 23 24  1  0  0  0
 25 26  1  0  0  0
 25 28  1  0  0  0
 25 32  1  0  0  0
 26 27  1  0  0  0
 28 29  1  0  0  0
 28 31  1  0  0  0
 29 30  1  0  0  0
 34 35  1  0  0  0
 34 37  1  0  0  0
 34 38  1  0  0  0
 35 36  1  0  0  0
M  END
> <Tumorigenic>
none

> <Score>
35.347866

> <Active/Decoy>
active

> <InChI>
InChI=1S/C15H24O8/c1-7-4-10(18)8(9(7)5-16)2-3-22-15-14(21)13(20)12(19)11(6-17)23-15/h4,8-9,11-17,19-21H,2-3,5-6H2,1H3/t8-,9-,11-,12-,13+,14-,15+/m1/s1

> <Matching Features>
H:14924486185440016873||HBA:14924321692640012300|HBA:14924486112070016868

> <Mol. Index>
1328

> <Pharmacophore Match>
Model -1

> <# Confs.>
25

> <Source Database>
Pharm-Screening-input-NANPDB_After_DataWarror.ldb

> <Pharmacophore-Fit Score>
35.35

> <formula>
C15H24O8

> <Mutagenic>
none

> <Reproductive Effective>
none

> <Irritant>
none

$$$$
1,13-bis-O-desacetyl-1-oxo-afraglaucolide
XX    ILIB03122402113D

 45 47  0  0  1  0              1 V2000
   -3.0763    3.7109   -0.5177 O   0  0  0  0  0
   -2.4896    2.7084   -0.8872 C   0  0  0  0  0
   -1.1739    2.4324   -0.6542 O   0  0  0  0  0
   -0.8183    1.1972   -1.2828 C   0  0  2  0  0
   -2.1038    0.7256   -1.8519 C   0  0  0  0  0
   -3.0901    1.5948   -1.6367 C   0  0  0  0  0
   -4.5344    1.5560   -2.0143 C   0  0  0  0  0
   -4.6861    0.8274   -3.2254 O   0  0  0  0  0
   -5.6371    0.8074   -3.4307 H   0  0  0  0  0
   -5.1183    1.0606   -1.2311 H   0  0  0  0  0
   -4.9412    2.5616   -2.1645 H   0  0  0  0  0
   -2.1400   -0.6227   -2.4825 C   0  0  0  0  0
   -1.5613   -1.6487   -1.5053 C   0  0  0  0  0
   -0.1897   -1.2432   -0.9156 C   0  0  1  0  0
    0.9434   -1.3409   -1.9577 C   0  0  2  0  0
    1.0476   -2.6761   -2.4480 O   0  0  0  0  0
    1.2348   -3.2584   -1.6921 H   0  0  0  0  0
    2.2939   -0.9318   -1.3750 C   0  0  0  0  0
    2.2607    0.4659   -0.7239 C   0  0  2  0  0
    3.5192    0.7190   -0.0991 O   0  0  0  0  0
    4.4849    1.2527   -0.8836 C   0  0  0  0  0
    4.3813    1.5463   -2.0668 O   0  0  0  0  0
    5.7271    1.4659   -0.0736 C   0  0  0  0  0
    6.5418    1.7775   -0.7339 H   0  0  0  0  0
    6.0208    0.5326    0.4137 H   0  0  0  0  0
    5.5544    2.2483    0.6692 H   0  0  0  0  0
    1.1350    0.5875    0.3232 C   0  0  1  0  0
    1.0755    1.9489    0.7441 O   0  0  0  0  0
    1.9611    2.2069    1.0520 H   0  0  0  0  0
   -0.2481    0.1719   -0.2712 C   0  0  1  0  0
   -0.9581    0.1403    0.5693 H   0  0  0  0  0
    1.4369   -0.2339    1.5975 C   0  0  0  0  0
    1.5622   -1.3014    1.4004 H   0  0  0  0  0
    0.6279   -0.1153    2.3276 H   0  0  0  0  0
    2.3420    0.1288    2.0972 H   0  0  0  0  0
    2.1032    1.2188   -1.5075 H   0  0  0  0  0
    2.6347   -1.6811   -0.6528 H   0  0  0  0  0
    3.0558   -0.9615   -2.1650 H   0  0  0  0  0
    0.7278   -0.7059   -2.8228 H   0  0  0  0  0
    0.0197   -1.9806   -0.1283 H   0  0  0  0  0
   -2.2677   -1.7768   -0.6732 H   0  0  0  0  0
   -1.4947   -2.6248   -1.9984 H   0  0  0  0  0
   -1.5564   -0.6079   -3.4095 H   0  0  0  0  0
   -3.1580   -0.9187   -2.7532 H   0  0  0  0  0
   -0.1052    1.4185   -2.0836 H   0  0  0  0  0
  1  2  2  0  0  0
  2  3  1  0  0  0
  2  6  1  0  0  0
  3  4  1  0  0  0
  4  5  1  0  0  0
  4 30  1  0  0  0
  4 45  1  0  0  0
  5  6  2  0  0  0
  5 12  1  0  0  0
  6  7  1  0  0  0
  7  8  1  0  0  0
  7 10  1  0  0  0
  7 11  1  0  0  0
  8  9  1  0  0  0
 12 13  1  0  0  0
 12 43  1  0  0  0
 12 44  1  0  0  0
 13 14  1  0  0  0
 13 41  1  0  0  0
 13 42  1  0  0  0
 14 15  1  0  0  0
 14 30  1  0  0  0
 14 40  1  0  0  0
 15 16  1  0  0  0
 15 18  1  0  0  0
 15 39  1  0  0  0
 16 17  1  0  0  0
 18 19  1  0  0  0
 18 37  1  0  0  0
 18 38  1  0  0  0
 19 20  1  0  0  0
 19 27  1  0  0  0
 19 36  1  0  0  0
 20 21  1  0  0  0
 21 22  2  0  0  0
 21 23  1  0  0  0
 23 24  1  0  0  0
 23 25  1  0  0  0
 23 26  1  0  0  0
 27 28  1  0  0  0
 27 30  1  0  0  0
 27 32  1  0  0  0
 28 29  1  0  0  0
 30 31  1  0  0  0
 32 33  1  0  0  0
 32 34  1  0  0  0
 32 35  1  0  0  0
M  END
> <Tumorigenic>
none

> <Score>
35.349514

> <Active/Decoy>
active

> <InChI>
InChI=1S/C16H22O7/c1-7(18)22-12-5-11(19)9-4-3-8-10(6-17)15(20)23-14(8)13(9)16(12,2)21/h9,11-14,17,19,21H,3-6H2,1-2H3/t9-,11+,12-,13+,14+,16+/m0/s1

> <Matching Features>
H:14924486185440016873||HBA:14924321692640012300|HBA:14924486112070016868

> <Mol. Index>
399

> <Pharmacophore Match>
Model -1

> <# Confs.>
9

> <Source Database>
Pharm-Screening-input-NANPDB_After_DataWarror.ldb

> <Pharmacophore-Fit Score>
35.35

> <formula>
C16H22O7

> <Mutagenic>
none

> <Reproductive Effective>
none

> <Irritant>
none

$$$$
apigenin 7-O-alpha-L-rhamnopyranoside
XX    ILIB03122402113D

 50 53  0  0  1  0              1 V2000
   -2.4280    6.7534    1.2475 O   0  0  0  0  0
   -2.1079    5.7609    0.6079 C   0  0  0  0  0
   -0.7182    5.2718    0.5267 C   0  0  0  0  0
   -0.4662    4.1312   -0.2357 C   0  0  0  0  0
   -1.4450    3.4548   -0.9196 O   0  0  0  0  0
   -2.7501    3.9143   -0.8523 C   0  0  0  0  0
   -3.1210    4.9955   -0.1480 C   0  0  0  0  0
   -4.1424    5.3592   -0.0993 H   0  0  0  0  0
   -3.7097    3.1126   -1.6371 C   0  0  0  0  0
   -3.5031    1.7360   -1.8347 C   0  0  0  0  0
   -4.4046    0.9668   -2.5757 C   0  0  0  0  0
   -5.5306    1.5697   -3.1254 C   0  0  0  0  0
   -6.4304    0.8448   -3.8550 O   0  0  0  0  0
   -6.1250   -0.0778   -3.8956 H   0  0  0  0  0
   -5.7639    2.9272   -2.9445 C   0  0  0  0  0
   -4.8596    3.6924   -2.2046 C   0  0  0  0  0
   -5.0760    4.7513   -2.0791 H   0  0  0  0  0
   -6.6453    3.3987   -3.3726 H   0  0  0  0  0
   -4.2156   -0.0937   -2.7122 H   0  0  0  0  0
   -2.6319    1.2359   -1.4183 H   0  0  0  0  0
    0.8327    3.6220   -0.3513 C   0  0  0  0  0
    1.8947    4.2314    0.3180 C   0  0  0  0  0
    3.1955    3.8436    0.2951 O   0  0  0  0  0
    3.4781    2.6727   -0.4872 C   0  0  2  0  0
    2.7776    1.5025   -0.0517 O   0  0  0  0  0
    3.1230    1.0792    1.2700 C   0  0  2  0  0
    4.6165    0.7497    1.3703 C   0  0  2  0  0
    4.9403    0.4477    2.7240 O   0  0  0  0  0
    5.8964    0.2766    2.7620 H   0  0  0  0  0
    5.4468    1.9457    0.9044 C   0  0  1  0  0
    6.8277    1.5939    0.8628 O   0  0  0  0  0
    6.9351    0.8950    0.1954 H   0  0  0  0  0
    4.9919    2.4279   -0.4730 C   0  0  1  0  0
    5.3060    1.4256   -1.4421 O   0  0  0  0  0
    5.0517    1.7716   -2.3139 H   0  0  0  0  0
    5.5492    3.3322   -0.7439 H   0  0  0  0  0
    5.3587    2.7583    1.6344 H   0  0  0  0  0
    4.8577   -0.1335    0.7662 H   0  0  0  0  0
    2.2569   -0.1323    1.6016 C   0  0  0  0  0
    2.4270   -0.4837    2.6225 H   0  0  0  0  0
    1.1957    0.1186    1.4944 H   0  0  0  0  0
    2.4547   -0.9570    0.9081 H   0  0  0  0  0
    2.8611    1.8717    1.9826 H   0  0  0  0  0
    3.1756    2.8455   -1.5365 H   0  0  0  0  0
    1.6372    5.3788    1.0935 C   0  0  0  0  0
    0.3393    5.8872    1.2032 C   0  0  0  0  0
    0.1228    7.0060    1.9589 O   0  0  0  0  0
    0.9699    7.3019    2.3341 H   0  0  0  0  0
    2.4602    5.8728    1.6053 H   0  0  0  0  0
    0.9836    2.7192   -0.9374 H   0  0  0  0  0
  1  2  2  0  0  0
  2  3  1  0  0  0
  2  7  1  0  0  0
  3  4  2  0  0  0
  3 46  1  0  0  0
  4  5  1  0  0  0
  4 21  1  0  0  0
  5  6  1  0  0  0
  6  7  2  0  0  0
  6  9  1  0  0  0
  7  8  1  0  0  0
  9 10  2  0  0  0
  9 16  1  0  0  0
 10 11  1  0  0  0
 10 20  1  0  0  0
 11 12  2  0  0  0
 11 19  1  0  0  0
 12 13  1  0  0  0
 12 15  1  0  0  0
 13 14  1  0  0  0
 15 16  2  0  0  0
 15 18  1  0  0  0
 16 17  1  0  0  0
 21 22  2  0  0  0
 21 50  1  0  0  0
 22 23  1  0  0  0
 22 45  1  0  0  0
 23 24  1  0  0  0
 24 25  1  0  0  0
 24 33  1  0  0  0
 24 44  1  0  0  0
 25 26  1  0  0  0
 26 27  1  0  0  0
 26 39  1  0  0  0
 26 43  1  0  0  0
 27 28  1  0  0  0
 27 30  1  0  0  0
 27 38  1  0  0  0
 28 29  1  0  0  0
 30 31  1  0  0  0
 30 33  1  0  0  0
 30 37  1  0  0  0
 31 32  1  0  0  0
 33 34  1  0  0  0
 33 36  1  0  0  0
 34 35  1  0  0  0
 39 40  1  0  0  0
 39 41  1  0  0  0
 39 42  1  0  0  0
 45 46  2  0  0  0
 45 49  1  0  0  0
 46 47  1  0  0  0
 47 48  1  0  0  0
M  END
> <Tumorigenic>
none

> <Score>
35.348824

> <Active/Decoy>
active

> <InChI>
InChI=1S/C21H20O9/c1-9-18(25)19(26)20(27)21(28-9)29-12-6-13(23)17-14(24)8-15(30-16(17)7-12)10-2-4-11(22)5-3-10/h2-9,18-23,25-27H,1H3/t9-,18-,19+,20+,21-/m0/s1

> <Matching Features>
H:14924486185440016873||HBA:14924321692640012300|HBA:14924486112070016868

> <Mol. Index>
19

> <Pharmacophore Match>
Model -1

> <# Confs.>
25

> <Source Database>
Pharm-Screening-input-NANPDB_After_DataWarror.ldb

> <Pharmacophore-Fit Score>
35.35

> <formula>
C21H20O9

> <Mutagenic>
none

> <Reproductive Effective>
none

> <Irritant>
none

$$$$
1beta-acetoxyeudesman-4(15),7(11)-dien-8alpha,12-olide
XX    ILIB03122402113D

 43 45  0  0  1  0              1 V2000
   -4.6448    0.8733   -3.3315 O   0  0  0  0  0
   -3.6276    0.5618   -2.7342 C   0  0  0  0  0
   -2.5640   -0.1056   -3.2749 O   0  0  0  0  0
   -1.6156   -0.3819   -2.2462 C   0  0  2  0  0
   -2.1377    0.3476   -1.0769 C   0  0  0  0  0
   -3.3306    0.8839   -1.3298 C   0  0  0  0  0
   -4.2034    1.7392   -0.4964 C   0  0  0  0  0
   -5.1749    1.2580   -0.3446 H   0  0  0  0  0
   -3.7678    1.9291    0.4889 H   0  0  0  0  0
   -4.3698    2.7061   -0.9808 H   0  0  0  0  0
   -1.2629    0.5483    0.1110 C   0  0  0  0  0
    0.0969   -0.1910   -0.0094 C   0  0  1  0  0
    0.7946   -0.1556   -1.4481 C   0  0  2  0  0
    1.9637    0.8872   -1.5159 C   0  0  2  0  0
    3.1941    0.3071   -1.0820 O   0  0  0  0  0
    4.3231    0.8082   -1.6529 C   0  0  0  0  0
    4.3841    1.7057   -2.4821 O   0  0  0  0  0
    5.5182    0.0965   -1.0959 C   0  0  0  0  0
    5.6137    0.3162   -0.0296 H   0  0  0  0  0
    6.4197    0.4431   -1.6087 H   0  0  0  0  0
    5.4223   -0.9792   -1.2620 H   0  0  0  0  0
    1.6769    2.1035   -0.6068 C   0  0  0  0  0
    1.5988    1.7023    0.8725 C   0  0  0  0  0
    1.0355    0.3158    1.0696 C   0  0  0  0  0
    1.3926   -0.4400    2.1191 C   0  0  0  0  0
    2.0784   -0.0671    2.8727 H   0  0  0  0  0
    1.0048   -1.4439    2.2514 H   0  0  0  0  0
    0.9821    2.4340    1.4086 H   0  0  0  0  0
    2.6052    1.7576    1.3070 H   0  0  0  0  0
    0.7430    2.5881   -0.9149 H   0  0  0  0  0
    2.4665    2.8569   -0.7170 H   0  0  0  0  0
    2.0717    1.2394   -2.5509 H   0  0  0  0  0
   -0.2354    0.1682   -2.5686 C   0  0  0  0  0
   -0.3084    1.2544   -2.7237 H   0  0  0  0  0
    0.1073   -0.2260   -3.5343 H   0  0  0  0  0
    1.3650   -1.5671   -1.7276 C   0  0  0  0  0
    0.5684   -2.3140   -1.8047 H   0  0  0  0  0
    1.9202   -1.5811   -2.6722 H   0  0  0  0  0
    2.0413   -1.9015   -0.9333 H   0  0  0  0  0
   -0.1374   -1.2454    0.2033 H   0  0  0  0  0
   -1.7814    0.1921    1.0103 H   0  0  0  0  0
   -1.1081    1.6252    0.2422 H   0  0  0  0  0
   -1.5963   -1.4642   -2.0791 H   0  0  0  0  0
  1  2  2  0  0  0
  2  3  1  0  0  0
  2  6  1  0  0  0
  3  4  1  0  0  0
  4  5  1  0  0  0
  4 33  1  0  0  0
  4 43  1  0  0  0
  5  6  2  0  0  0
  5 11  1  0  0  0
  6  7  1  0  0  0
  7  8  1  0  0  0
  7  9  1  0  0  0
  7 10  1  0  0  0
 11 12  1  0  0  0
 11 41  1  0  0  0
 11 42  1  0  0  0
 12 13  1  0  0  0
 12 24  1  0  0  0
 12 40  1  0  0  0
 13 14  1  0  0  0
 13 33  1  0  0  0
 13 36  1  0  0  0
 14 15  1  0  0  0
 14 22  1  0  0  0
 14 32  1  0  0  0
 15 16  1  0  0  0
 16 17  2  0  0  0
 16 18  1  0  0  0
 18 19  1  0  0  0
 18 20  1  0  0  0
 18 21  1  0  0  0
 22 23  1  0  0  0
 22 30  1  0  0  0
 22 31  1  0  0  0
 23 24  1  0  0  0
 23 28  1  0  0  0
 23 29  1  0  0  0
 24 25  2  0  0  0
 25 26  1  0  0  0
 25 27  1  0  0  0
 33 34  1  0  0  0
 33 35  1  0  0  0
 36 37  1  0  0  0
 36 38  1  0  0  0
 36 39  1  0  0  0
M  END
> <Tumorigenic>
none

> <Score>
35.335632

> <Active/Decoy>
active

> <InChI>
InChI=1S/C17H22O4/c1-9-5-6-15(20-11(3)18)17(4)8-14-12(7-13(9)17)10(2)16(19)21-14/h13-15H,1,5-8H2,2-4H3/t13-,14+,15-,17-/m1/s1

> <Matching Features>
H:14924486185440016873||HBA:14924321692640012300|HBA:14924486112070016868

> <Mol. Index>
953

> <Pharmacophore Match>
Model -1

> <# Confs.>
5

> <Source Database>
Pharm-Screening-input-NANPDB_After_DataWarror.ldb

> <Pharmacophore-Fit Score>
35.34

> <formula>
C17H22O4

> <Mutagenic>
none

> <Reproductive Effective>
none

> <Irritant>
none

$$$$
kaempferol 3-O-rhamnoside
XX    ILIB03122402113D

 51 54  0  0  1  0              1 V2000
    4.1314    1.5488   -2.1570 O   0  0  0  0  0
    3.1442    2.2714   -2.1556 C   0  0  0  0  0
    1.7830    1.7039   -2.3395 C   0  0  0  0  0
    1.6319    0.3527   -2.4486 O   0  0  0  0  0
    2.6168   -0.4375   -1.7830 C   0  0  1  0  0
    2.6355   -0.2339   -0.3608 O   0  0  0  0  0
    1.4222   -0.6077    0.2974 C   0  0  1  0  0
    1.1090   -2.0918    0.0793 C   0  0  1  0  0
   -0.1654   -2.3903    0.6431 O   0  0  0  0  0
   -0.3503   -3.3269    0.4640 H   0  0  0  0  0
    1.0882   -2.4103   -1.4167 C   0  0  2  0  0
    0.9421   -3.8141   -1.6145 O   0  0  0  0  0
    1.7214   -4.2490   -1.2288 H   0  0  0  0  0
    2.3642   -1.9160   -2.0996 C   0  0  2  0  0
    3.4709   -2.6844   -1.6241 O   0  0  0  0  0
    4.2662   -2.3703   -2.0880 H   0  0  0  0  0
    2.2866   -2.0858   -3.1797 H   0  0  0  0  0
    0.2112   -1.9398   -1.8777 H   0  0  0  0  0
    1.8499   -2.7219    0.5861 H   0  0  0  0  0
    1.5890   -0.2847    1.7783 C   0  0  0  0  0
    2.4187   -0.8550    2.2128 H   0  0  0  0  0
    1.8320    0.7748    1.9110 H   0  0  0  0  0
    0.6790   -0.5044    2.3452 H   0  0  0  0  0
    0.6004    0.0126   -0.0816 H   0  0  0  0  0
    3.6197   -0.1759   -2.1486 H   0  0  0  0  0
    0.7352    2.5634   -2.4300 C   0  0  0  0  0
    0.8451    3.9386   -2.2975 O   0  0  0  0  0
    2.0753    4.4880   -2.0473 C   0  0  0  0  0
    3.2433    3.7318   -1.9530 C   0  0  0  0  0
    4.4590    4.3762   -1.6918 C   0  0  0  0  0
    5.6190    3.6571   -1.5859 O   0  0  0  0  0
    6.3522    4.2681   -1.3978 H   0  0  0  0  0
    4.5044    5.7639   -1.5307 C   0  0  0  0  0
    3.3299    6.5018   -1.6331 C   0  0  0  0  0
    2.1134    5.8748   -1.8901 C   0  0  0  0  0
    1.1994    6.4569   -1.9692 H   0  0  0  0  0
    3.4032    7.8574   -1.4747 O   0  0  0  0  0
    2.5109    8.2304   -1.5752 H   0  0  0  0  0
    5.4465    6.2653   -1.3283 H   0  0  0  0  0
   -0.6527    2.1198   -2.6612 C   0  0  0  0  0
   -0.9925    1.3941   -3.8169 C   0  0  0  0  0
   -2.3052    0.9713   -4.0478 C   0  0  0  0  0
   -3.2954    1.2723   -3.1206 C   0  0  0  0  0
   -4.5879    0.8750   -3.3169 O   0  0  0  0  0
   -4.6420    0.3993   -4.1634 H   0  0  0  0  0
   -2.9916    1.9891   -1.9698 C   0  0  0  0  0
   -1.6796    2.4107   -1.7435 C   0  0  0  0  0
   -1.4781    2.9730   -0.8346 H   0  0  0  0  0
   -3.7645    2.2258   -1.2445 H   0  0  0  0  0
   -2.5349    0.4106   -4.9483 H   0  0  0  0  0
   -0.2396    1.1390   -4.5603 H   0  0  0  0  0
  1  2  2  0  0  0
  2  3  1  0  0  0
  2 29  1  0  0  0
  3  4  1  0  0  0
  3 26  2  0  0  0
  4  5  1  0  0  0
  5  6  1  0  0  0
  5 14  1  0  0  0
  5 25  1  0  0  0
  6  7  1  0  0  0
  7  8  1  0  0  0
  7 20  1  0  0  0
  7 24  1  0  0  0
  8  9  1  0  0  0
  8 11  1  0  0  0
  8 19  1  0  0  0
  9 10  1  0  0  0
 11 12  1  0  0  0
 11 14  1  0  0  0
 11 18  1  0  0  0
 12 13  1  0  0  0
 14 15  1  0  0  0
 14 17  1  0  0  0
 15 16  1  0  0  0
 20 21  1  0  0  0
 20 22  1  0  0  0
 20 23  1  0  0  0
 26 27  1  0  0  0
 26 40  1  0  0  0
 27 28  1  0  0  0
 28 29  2  0  0  0
 28 35  1  0  0  0
 29 30  1  0  0  0
 30 31  1  0  0  0
 30 33  2  0  0  0
 31 32  1  0  0  0
 33 34  1  0  0  0
 33 39  1  0  0  0
 34 35  2  0  0  0
 34 37  1  0  0  0
 35 36  1  0  0  0
 37 38  1  0  0  0
 40 41  2  0  0  0
 40 47  1  0  0  0
 41 42  1  0  0  0
 41 51  1  0  0  0
 42 43  2  0  0  0
 42 50  1  0  0  0
 43 44  1  0  0  0
 43 46  1  0  0  0
 44 45  1  0  0  0
 46 47  2  0  0  0
 46 49  1  0  0  0
 47 48  1  0  0  0
M  END
> <Tumorigenic>
none

> <Score>
35.341125

> <Active/Decoy>
active

> <InChI>
InChI=1S/C21H20O10/c1-8-15(25)17(27)18(28)21(29-8)31-20-16(26)14-12(24)6-11(23)7-13(14)30-19(20)9-2-4-10(22)5-3-9/h2-8,15,17-18,21-25,27-28H,1H3/t8-,15-,17+,18+,21-/m1/s1

> <Matching Features>
H:14924486185440016873||HBA:14924321692640012300|HBA:14924486112070016868

> <Mol. Index>
79

> <Pharmacophore Match>
Model -1

> <# Confs.>
25

> <Source Database>
Pharm-Screening-input-NANPDB_After_DataWarror.ldb

> <Pharmacophore-Fit Score>
35.34

> <formula>
C21H20O10

> <Mutagenic>
none

> <Reproductive Effective>
none

> <Irritant>
none

$$$$
4beta,8beta-dihydroxy-6alpha-(4-hydroxy-3-methoxybenzoyl)-dauc-9-ene
XX    ILIB03122402113D

 61 63  0  0  1  0              1 V2000
   -0.0188    0.2343   -3.1475 O   0  0  0  0  0
   -0.5435    0.8092   -2.2148 C   0  0  0  0  0
   -0.0397    0.9802   -0.9760 O   0  0  0  0  0
    1.2583    0.4310   -0.7229 C   0  0  2  0  0
    1.1341   -0.6000    0.4136 C   0  0  1  0  0
    0.3712   -1.9159    0.0326 C   0  0  2  0  0
    0.9206   -2.4862   -1.1610 O   0  0  0  0  0
    0.6696   -1.9274   -1.9149 H   0  0  0  0  0
   -1.1636   -1.8794   -0.0877 C   0  0  0  0  0
   -1.7863   -3.2657   -0.2745 C   0  0  0  0  0
   -1.5852   -3.9194    0.5809 H   0  0  0  0  0
   -2.8732   -3.1852   -0.3808 H   0  0  0  0  0
   -1.4047   -3.7555   -1.1752 H   0  0  0  0  0
   -1.7949   -1.1886    1.1243 C   0  0  0  0  0
   -1.3808   -0.1843    1.2589 H   0  0  0  0  0
   -1.6271   -1.7549    2.0466 H   0  0  0  0  0
   -2.8769   -1.0874    0.9888 H   0  0  0  0  0
   -1.4168   -1.2820   -0.9735 H   0  0  0  0  0
    0.7681   -2.8468    1.1865 C   0  0  0  0  0
    2.2603   -2.6105    1.3272 C   0  0  0  0  0
    2.4724   -1.0826    1.1066 C   0  0  1  0  0
    3.7917   -0.9067    0.3864 C   0  0  0  0  0
    4.2626    0.1003   -0.3607 C   0  0  0  0  0
    3.6360    1.4106   -0.7458 C   0  0  1  0  0
    3.6849    1.5000   -2.1791 O   0  0  0  0  0
    4.6149    1.4548   -2.4570 H   0  0  0  0  0
    2.1708    1.6170   -0.3447 C   0  0  0  0  0
    1.8082    2.5232   -0.8487 H   0  0  0  0  0
    2.0730    1.8367    0.7238 H   0  0  0  0  0
    4.4780    2.5668   -0.1903 C   0  0  0  0  0
    4.1007    3.5309   -0.5504 H   0  0  0  0  0
    5.5192    2.5014   -0.5303 H   0  0  0  0  0
    4.4762    2.5803    0.9054 H   0  0  0  0  0
    5.2759   -0.0361   -0.7391 H   0  0  0  0  0
    4.5057   -1.7171    0.5437 H   0  0  0  0  0
    2.6159   -0.4293    2.5002 C   0  0  0  0  0
    3.4910   -0.8175    3.0354 H   0  0  0  0  0
    2.7345    0.6562    2.4361 H   0  0  0  0  0
    1.7391   -0.6296    3.1268 H   0  0  0  0  0
    2.6237   -2.9603    2.3011 H   0  0  0  0  0
    2.7823   -3.2045    0.5650 H   0  0  0  0  0
    0.5686   -3.8999    0.9629 H   0  0  0  0  0
    0.2562   -2.5835    2.1193 H   0  0  0  0  0
    0.5312   -0.1176    1.1964 H   0  0  0  0  0
    1.6168   -0.0456   -1.6433 H   0  0  0  0  0
   -1.9000    1.4033   -2.2903 C   0  0  0  0  0
   -2.8736    0.8957   -3.1565 C   0  0  0  0  0
   -4.1413    1.4872   -3.2178 C   0  0  0  0  0
   -5.1679    1.0687   -4.0169 O   0  0  0  0  0
   -4.8806   -0.0634   -4.8341 C   0  0  0  0  0
   -4.0728    0.1542   -5.5413 H   0  0  0  0  0
   -4.6456   -0.9423   -4.2239 H   0  0  0  0  0
   -5.7801   -0.2911   -5.4147 H   0  0  0  0  0
   -4.4105    2.5974   -2.4102 C   0  0  0  0  0
   -5.6336    3.2125   -2.4345 O   0  0  0  0  0
   -6.1943    2.7391   -3.0711 H   0  0  0  0  0
   -3.4446    3.1161   -1.5514 C   0  0  0  0  0
   -2.1857    2.5224   -1.4915 C   0  0  0  0  0
   -1.4449    2.9402   -0.8151 H   0  0  0  0  0
   -3.6635    3.9785   -0.9283 H   0  0  0  0  0
   -2.6428    0.0341   -3.7756 H   0  0  0  0  0
  1  2  2  0  0  0
  2  3  1  0  0  0
  2 46  1  0  0  0
  3  4  1  0  0  0
  4  5  1  0  0  0
  4 27  1  0  0  0
  4 45  1  0  0  0
  5  6  1  0  0  0
  5 21  1  0  0  0
  5 44  1  0  0  0
  6  7  1  0  0  0
  6  9  1  0  0  0
  6 19  1  0  0  0
  7  8  1  0  0  0
  9 10  1  0  0  0
  9 14  1  0  0  0
  9 18  1  0  0  0
 10 11  1  0  0  0
 10 12  1  0  0  0
 10 13  1  0  0  0
 14 15  1  0  0  0
 14 16  1  0  0  0
 14 17  1  0  0  0
 19 20  1  0  0  0
 19 42  1  0  0  0
 19 43  1  0  0  0
 20 21  1  0  0  0
 20 40  1  0  0  0
 20 41  1  0  0  0
 21 22  1  0  0  0
 21 36  1  0  0  0
 22 23  2  0  0  0
 22 35  1  0  0  0
 23 24  1  0  0  0
 23 34  1  0  0  0
 24 25  1  0  0  0
 24 27  1  0  0  0
 24 30  1  0  0  0
 25 26  1  0  0  0
 27 28  1  0  0  0
 27 29  1  0  0  0
 30 31  1  0  0  0
 30 32  1  0  0  0
 30 33  1  0  0  0
 36 37  1  0  0  0
 36 38  1  0  0  0
 36 39  1  0  0  0
 46 47  2  0  0  0
 46 58  1  0  0  0
 47 48  1  0  0  0
 47 61  1  0  0  0
 48 49  1  0  0  0
 48 54  2  0  0  0
 49 50  1  0  0  0
 50 51  1  0  0  0
 50 52  1  0  0  0
 50 53  1  0  0  0
 54 55  1  0  0  0
 54 57  1  0  0  0
 55 56  1  0  0  0
 57 58  2  0  0  0
 57 60  1  0  0  0
 58 59  1  0  0  0
M  END
> <Tumorigenic>
none

> <Score>
35.33343

> <Active/Decoy>
active

> <InChI>
InChI=1S/C23H32O6/c1-14(2)23(27)11-9-21(3)8-10-22(4,26)13-18(19(21)23)29-20(25)15-6-7-16(24)17(12-15)28-5/h6-8,10,12,14,18-19,24,26-27H,9,11,13H2,1-5H3/t18-,19+,21+,22+,23+/m0/s1

> <Matching Features>
H:14924486185440016873||HBA:14924321692640012300|HBA:14924486112070016868

> <Mol. Index>
936

> <Pharmacophore Match>
Model -1

> <# Confs.>
25

> <Source Database>
Pharm-Screening-input-NANPDB_After_DataWarror.ldb

> <Pharmacophore-Fit Score>
35.33

> <formula>
C23H32O6

> <Mutagenic>
none

> <Reproductive Effective>
none

> <Irritant>
none

$$$$
luteolin 7-O-methylether 3'-O-beta-D-galactoside
XX    ILIB03122402113D

 55 58  0  0  1  0              1 V2000
   -2.7193   -4.2281   -0.1036 O   0  0  0  0  0
   -2.3976   -3.0635   -0.2954 C   0  0  0  0  0
   -3.2298   -2.1256   -1.0747 C   0  0  0  0  0
   -2.7640   -0.8208   -1.2338 C   0  0  0  0  0
   -1.5813   -0.3725   -0.7009 O   0  0  0  0  0
   -0.7996   -1.2529    0.0313 C   0  0  0  0  0
   -1.1347   -2.5327    0.2541 C   0  0  0  0  0
   -0.5258   -3.2218    0.8282 H   0  0  0  0  0
    0.4457   -0.6586    0.5562 C   0  0  0  0  0
    1.6302   -0.6878   -0.2020 C   0  0  0  0  0
    2.8222   -0.1392    0.2794 C   0  0  0  0  0
    3.9072   -0.2360   -0.5308 O   0  0  0  0  0
    4.8811    0.8095   -0.4212 C   0  0  2  0  0
    5.0701    1.4832   -1.6715 O   0  0  0  0  0
    5.9793    2.5853   -1.5703 C   0  0  1  0  0
    7.3798    2.0927   -1.1620 C   0  0  2  0  0
    7.9369    1.3246   -2.2269 O   0  0  0  0  0
    8.8340    1.0616   -1.9608 H   0  0  0  0  0
    7.3219    1.2334    0.1076 C   0  0  1  0  0
    7.0848    2.0941    1.2181 O   0  0  0  0  0
    7.0836    1.5440    2.0196 H   0  0  0  0  0
    6.2078    0.1835    0.0327 C   0  0  2  0  0
    6.5881   -0.8489   -0.8784 O   0  0  0  0  0
    6.6483   -0.4566   -1.7661 H   0  0  0  0  0
    6.0633   -0.2956    1.0066 H   0  0  0  0  0
    8.2888    0.7376    0.2579 H   0  0  0  0  0
    8.0332    2.9579   -1.0018 H   0  0  0  0  0
    5.9642    3.3029   -2.9079 C   0  0  0  0  0
    6.8477    4.4113   -2.8725 O   0  0  0  0  0
    6.8076    4.8375   -3.7460 H   0  0  0  0  0
    4.9567    3.6544   -3.1531 H   0  0  0  0  0
    6.2777    2.6236   -3.7077 H   0  0  0  0  0
    5.6085    3.2802   -0.8045 H   0  0  0  0  0
    4.5482    1.5352    0.3356 H   0  0  0  0  0
    2.8432    0.4432    1.5574 C   0  0  0  0  0
    4.0140    0.9253    2.0718 O   0  0  0  0  0
    3.8453    1.2702    2.9654 H   0  0  0  0  0
    1.6792    0.4941    2.3208 C   0  0  0  0  0
    0.4918   -0.0481    1.8212 C   0  0  0  0  0
   -0.3927    0.0077    2.4515 H   0  0  0  0  0
    1.6828    0.9418    3.3105 H   0  0  0  0  0
    1.6463   -1.1554   -1.1846 H   0  0  0  0  0
   -3.5053    0.1123   -1.9648 C   0  0  0  0  0
   -4.7247   -0.2504   -2.5448 C   0  0  0  0  0
   -5.3588    0.7445   -3.2342 O   0  0  0  0  0
   -6.6010    0.3762   -3.8263 C   0  0  0  0  0
   -6.4648   -0.4139   -4.5706 H   0  0  0  0  0
   -6.9964    1.2574   -4.3433 H   0  0  0  0  0
   -7.3299    0.0796   -3.0653 H   0  0  0  0  0
   -5.1952   -1.5560   -2.3870 C   0  0  0  0  0
   -4.4501   -2.4877   -1.6544 C   0  0  0  0  0
   -4.9912   -3.7394   -1.5508 O   0  0  0  0  0
   -4.4025   -4.3019   -1.0236 H   0  0  0  0  0
   -6.1390   -1.8743   -2.8210 H   0  0  0  0  0
   -3.1307    1.1266   -2.0815 H   0  0  0  0  0
  1  2  2  0  0  0
  2  3  1  0  0  0
  2  7  1  0  0  0
  3  4  2  0  0  0
  3 51  1  0  0  0
  4  5  1  0  0  0
  4 43  1  0  0  0
  5  6  1  0  0  0
  6  7  2  0  0  0
  6  9  1  0  0  0
  7  8  1  0  0  0
  9 10  2  0  0  0
  9 39  1  0  0  0
 10 11  1  0  0  0
 10 42  1  0  0  0
 11 12  1  0  0  0
 11 35  2  0  0  0
 12 13  1  0  0  0
 13 14  1  0  0  0
 13 22  1  0  0  0
 13 34  1  0  0  0
 14 15  1  0  0  0
 15 16  1  0  0  0
 15 28  1  0  0  0
 15 33  1  0  0  0
 16 17  1  0  0  0
 16 19  1  0  0  0
 16 27  1  0  0  0
 17 18  1  0  0  0
 19 20  1  0  0  0
 19 22  1  0  0  0
 19 26  1  0  0  0
 20 21  1  0  0  0
 22 23  1  0  0  0
 22 25  1  0  0  0
 23 24  1  0  0  0
 28 29  1  0  0  0
 28 31  1  0  0  0
 28 32  1  0  0  0
 29 30  1  0  0  0
 35 36  1  0  0  0
 35 38  1  0  0  0
 36 37  1  0  0  0
 38 39  2  0  0  0
 38 41  1  0  0  0
 39 40  1  0  0  0
 43 44  2  0  0  0
 43 55  1  0  0  0
 44 45  1  0  0  0
 44 50  1  0  0  0
 45 46  1  0  0  0
 46 47  1  0  0  0
 46 48  1  0  0  0
 46 49  1  0  0  0
 50 51  2  0  0  0
 50 54  1  0  0  0
 51 52  1  0  0  0
 52 53  1  0  0  0
M  END
> <Tumorigenic>
none

> <Score>
35.32822

> <Active/Decoy>
active

> <InChI>
InChI=1S/C22H22O11/c1-30-10-5-12(25)18-13(26)7-14(31-16(18)6-10)9-2-3-11(24)15(4-9)32-22-21(29)20(28)19(27)17(8-23)33-22/h2-7,17,19-25,27-29H,8H2,1H3/t17-,19+,20-,21+,22-/m1/s1

> <Matching Features>
H:14924486185440016873||HBA:14924321692640012300|HBA:14924486112070016868

> <Mol. Index>
105

> <Pharmacophore Match>
Model -1

> <# Confs.>
25

> <Source Database>
Pharm-Screening-input-NANPDB_After_DataWarror.ldb

> <Pharmacophore-Fit Score>
35.33

> <formula>
C22H22O11

> <Mutagenic>
none

> <Reproductive Effective>
none

> <Irritant>
none

$$$$
6'-hydroxy-beta-cycloauraptene
XX    ILIB03122402113D

 45 47  0  0  1  0              1 V2000
    4.9342    1.5369   -1.8573 O   0  0  0  0  0
    4.2777    1.1425   -0.8999 C   0  0  0  0  0
    2.9291    0.8162   -1.0129 O   0  0  0  0  0
    2.1797    0.3681    0.0947 C   0  0  0  0  0
    2.7796    0.2326    1.3432 C   0  0  0  0  0
    2.0048   -0.2139    2.4138 C   0  0  0  0  0
    0.6606   -0.5432    2.2136 C   0  0  0  0  0
    0.0633   -0.3873    0.9561 C   0  0  0  0  0
    0.8395    0.0443   -0.1221 C   0  0  0  0  0
    0.4258    0.1647   -1.1183 H   0  0  0  0  0
   -1.2484   -0.7352    0.8905 O   0  0  0  0  0
   -1.8782   -0.5926   -0.3758 C   0  0  0  0  0
   -3.3449   -1.0221   -0.2577 C   0  0  2  0  0
   -4.1466   -0.9225   -1.6116 C   0  0  0  0  0
   -4.3952    0.5870   -1.9340 C   0  0  1  0  0
   -5.0931    0.7525   -3.1661 O   0  0  0  0  0
   -6.0074    0.4440   -3.0459 H   0  0  0  0  0
   -5.1515    1.3227   -0.8224 C   0  0  0  0  0
   -4.8119    0.8629    0.5622 C   0  0  0  0  0
   -4.0137   -0.1825    0.8440 C   0  0  0  0  0
   -3.7901   -0.6091    2.2689 C   0  0  0  0  0
   -3.9872   -1.6797    2.3824 H   0  0  0  0  0
   -2.7646   -0.4053    2.5846 H   0  0  0  0  0
   -4.4561   -0.0836    2.9628 H   0  0  0  0  0
   -5.2827    1.4125    1.3735 H   0  0  0  0  0
   -6.2346    1.2153   -0.9639 H   0  0  0  0  0
   -4.9517    2.3981   -0.9089 H   0  0  0  0  0
   -3.4257    1.0814   -2.0736 H   0  0  0  0  0
   -5.4865   -1.6897   -1.4710 C   0  0  0  0  0
   -6.1313   -1.2905   -0.6833 H   0  0  0  0  0
   -5.2964   -2.7429   -1.2312 H   0  0  0  0  0
   -6.0617   -1.6695   -2.4032 H   0  0  0  0  0
   -3.3926   -1.5769   -2.7806 C   0  0  0  0  0
   -3.0569   -2.5836   -2.5106 H   0  0  0  0  0
   -4.0315   -1.6709   -3.6666 H   0  0  0  0  0
   -2.5185   -0.9938   -3.0872 H   0  0  0  0  0
   -3.3702   -2.0647    0.0642 H   0  0  0  0  0
   -1.8181    0.4328   -0.7454 H   0  0  0  0  0
   -1.3906   -1.2478   -1.1192 H   0  0  0  0  0
    0.0713   -0.8899    3.0596 H   0  0  0  0  0
    2.4355   -0.3239    3.4060 H   0  0  0  0  0
    4.1896    0.5519    1.4837 C   0  0  0  0  0
    4.8911    0.9764    0.4306 C   0  0  0  0  0
    5.9429    1.2241    0.5295 H   0  0  0  0  0
    4.6578    0.4472    2.4558 H   0  0  0  0  0
  1  2  2  0  0  0
  2  3  1  0  0  0
  2 43  1  0  0  0
  3  4  1  0  0  0
  4  5  2  0  0  0
  4  9  1  0  0  0
  5  6  1  0  0  0
  5 42  1  0  0  0
  6  7  2  0  0  0
  6 41  1  0  0  0
  7  8  1  0  0  0
  7 40  1  0  0  0
  8  9  2  0  0  0
  8 11  1  0  0  0
  9 10  1  0  0  0
 11 12  1  0  0  0
 12 13  1  0  0  0
 12 38  1  0  0  0
 12 39  1  0  0  0
 13 14  1  0  0  0
 13 20  1  0  0  0
 13 37  1  0  0  0
 14 15  1  0  0  0
 14 29  1  0  0  0
 14 33  1  0  0  0
 15 16  1  0  0  0
 15 18  1  0  0  0
 15 28  1  0  0  0
 16 17  1  0  0  0
 18 19  1  0  0  0
 18 26  1  0  0  0
 18 27  1  0  0  0
 19 20  2  0  0  0
 19 25  1  0  0  0
 20 21  1  0  0  0
 21 22  1  0  0  0
 21 23  1  0  0  0
 21 24  1  0  0  0
 29 30  1  0  0  0
 29 31  1  0  0  0
 29 32  1  0  0  0
 33 34  1  0  0  0
 33 35  1  0  0  0
 33 36  1  0  0  0
 42 43  2  0  0  0
 42 45  1  0  0  0
 43 44  1  0  0  0
M  END
> <Tumorigenic>
none

> <Score>
35.306087

> <Active/Decoy>
active

> <InChI>
InChI=1S/C19H22O4/c1-12-4-8-17(20)19(2,3)15(12)11-22-14-7-5-13-6-9-18(21)23-16(13)10-14/h4-7,9-10,15,17,20H,8,11H2,1-3H3/t15-,17-/m0/s1

> <Matching Features>
H:14924486185440016873||HBA:14924321692640012300|HBA:14924486112070016868

> <Mol. Index>
199

> <Pharmacophore Match>
Model -1

> <# Confs.>
25

> <Source Database>
Pharm-Screening-input-NANPDB_After_DataWarror.ldb

> <Pharmacophore-Fit Score>
35.31

> <formula>
C19H22O4

> <Mutagenic>
none

> <Reproductive Effective>
none

> <Irritant>
none

$$$$
euphoheliosnoid B
XX    ILIB03122402113D

 84 86  0  0  1  0              1 V2000
    1.0367    3.1725    2.2302 O   0  0  0  0  0
    1.5406    3.2869    1.1065 C   0  0  0  0  0
    0.9774    4.3081    0.0897 C   0  0  0  0  0
   -0.4760    3.9120   -0.1101 C   0  0  0  0  0
   -1.0669    3.4843   -1.2378 C   0  0  0  0  0
   -2.5252    3.0982   -1.3061 C   0  0  2  0  0
   -2.7753    1.5829   -1.5970 C   0  0  1  0  0
   -2.3994    1.2884   -2.9508 O   0  0  0  0  0
   -3.4049    0.9955   -3.8049 C   0  0  0  0  0
   -4.5979    0.9577   -3.5361 O   0  0  0  0  0
   -2.8417    0.7286   -5.1677 C   0  0  0  0  0
   -2.3898    1.6407   -5.5650 H   0  0  0  0  0
   -3.6468    0.4137   -5.8387 H   0  0  0  0  0
   -2.1056   -0.0774   -5.1158 H   0  0  0  0  0
   -2.1157    0.5750   -0.5836 C   0  0  2  0  0
   -2.2638    1.0952    0.7458 O   0  0  0  0  0
   -3.5287    1.2946    1.1779 C   0  0  0  0  0
   -4.5531    1.0743    0.5468 O   0  0  0  0  0
   -3.5021    1.8248    2.5785 C   0  0  0  0  0
   -3.0886    1.0690    3.2518 H   0  0  0  0  0
   -4.5201    2.0601    2.8978 H   0  0  0  0  0
   -2.9108    2.7423    2.6183 H   0  0  0  0  0
   -0.6105    0.2498   -0.8446 C   0  0  2  0  0
   -0.6134   -0.8522   -1.9241 C   0  0  1  0  0
    0.5590   -1.6650   -1.8666 O   0  0  0  0  0
    0.9668   -2.2177   -3.0333 C   0  0  0  0  0
    0.4450   -2.0881   -4.1295 O   0  0  0  0  0
    2.1826   -3.0228   -2.8069 C   0  0  0  0  0
    2.7795   -3.6756   -3.8852 C   0  0  0  0  0
    3.9350   -4.4227   -3.6692 C   0  0  0  0  0
    4.4838   -4.5114   -2.3883 C   0  0  0  0  0
    3.8784   -3.8509   -1.3177 C   0  0  0  0  0
    2.7215   -3.0982   -1.5232 C   0  0  0  0  0
    2.2573   -2.5851   -0.6872 H   0  0  0  0  0
    4.3086   -3.9217   -0.3235 H   0  0  0  0  0
    5.3842   -5.0949   -2.2240 H   0  0  0  0  0
    4.4130   -4.9378   -4.4989 H   0  0  0  0  0
    2.3577   -3.6102   -4.8839 H   0  0  0  0  0
   -1.9388   -1.6358   -1.7180 C   0  0  2  0  0
   -2.7385   -0.8419   -0.6746 C   0  0  0  0  0
   -3.8013   -0.8094   -0.9387 H   0  0  0  0  0
   -2.6875   -1.3390    0.3032 H   0  0  0  0  0
   -1.7821   -3.0960   -1.3105 C   0  0  0  0  0
   -1.1975   -3.1963   -0.3903 H   0  0  0  0  0
   -1.2851   -3.6724   -2.0972 H   0  0  0  0  0
   -2.7622   -3.5537   -1.1375 H   0  0  0  0  0
   -2.4956   -1.6185   -2.6635 H   0  0  0  0  0
   -0.6608   -0.3736   -2.9105 H   0  0  0  0  0
    0.1411   -0.1763    0.4011 C   0  0  0  0  0
    1.3775    0.1945    0.7950 C   0  0  0  0  0
    2.2996    1.1079   -0.0007 C   0  0  2  0  0
    3.4904    0.3620   -0.2954 O   0  0  0  0  0
    4.1337    0.6808   -1.4394 C   0  0  0  0  0
    3.7995    1.5398   -2.2447 O   0  0  0  0  0
    5.3534   -0.1777   -1.5849 C   0  0  0  0  0
    6.0636    0.0523   -0.7868 H   0  0  0  0  0
    5.8288    0.0248   -2.5493 H   0  0  0  0  0
    5.0703   -1.2326   -1.5580 H   0  0  0  0  0
    2.7088    2.3883    0.7395 C   0  0  0  0  0
    3.2456    2.1408    1.6649 H   0  0  0  0  0
    3.4479    2.9536    0.1643 H   0  0  0  0  0
    1.8370    1.3839   -0.9502 H   0  0  0  0  0
    1.9320   -0.3571    2.0867 C   0  0  0  0  0
    2.8790   -0.8767    1.9128 H   0  0  0  0  0
    2.1019    0.4469    2.8104 H   0  0  0  0  0
    1.2524   -1.0760    2.5574 H   0  0  0  0  0
   -0.3994   -0.8748    1.0389 H   0  0  0  0  0
   -0.1147    1.1248   -1.2771 H   0  0  0  0  0
   -3.8650    1.4556   -1.4983 H   0  0  0  0  0
   -3.2192    3.9952   -2.3387 C   0  0  0  0  0
   -2.7835    3.8874   -3.3379 H   0  0  0  0  0
   -4.2869    3.7576   -2.4043 H   0  0  0  0  0
   -3.1361    5.0512   -2.0542 H   0  0  0  0  0
   -2.9947    3.3280   -0.3415 H   0  0  0  0  0
   -0.4950    3.3901   -2.1559 H   0  0  0  0  0
   -1.1010    3.9794    0.7818 H   0  0  0  0  0
    1.7834    4.4163   -1.2127 C   0  0  0  0  0
    1.3343    5.1456   -1.8971 H   0  0  0  0  0
    2.8087    4.7498   -1.0197 H   0  0  0  0  0
    1.8468    3.4647   -1.7474 H   0  0  0  0  0
    1.0123    5.6937    0.7673 C   0  0  0  0  0
    0.5840    6.4657    0.1158 H   0  0  0  0  0
    0.4481    5.7062    1.7070 H   0  0  0  0  0
    2.0406    5.9863    1.0085 H   0  0  0  0  0
  1  2  2  0  0  0
  2  3  1  0  0  0
  2 59  1  0  0  0
  3  4  1  0  0  0
  3 77  1  0  0  0
  3 81  1  0  0  0
  4  5  2  0  0  0
  4 76  1  0  0  0
  5  6  1  0  0  0
  5 75  1  0  0  0
  6  7  1  0  0  0
  6 70  1  0  0  0
  6 74  1  0  0  0
  7  8  1  0  0  0
  7 15  1  0  0  0
  7 69  1  0  0  0
  8  9  1  0  0  0
  9 10  2  0  0  0
  9 11  1  0  0  0
 11 12  1  0  0  0
 11 13  1  0  0  0
 11 14  1  0  0  0
 15 16  1  0  0  0
 15 23  1  0  0  0
 15 40  1  0  0  0
 16 17  1  0  0  0
 17 18  2  0  0  0
 17 19  1  0  0  0
 19 20  1  0  0  0
 19 21  1  0  0  0
 19 22  1  0  0  0
 23 24  1  0  0  0
 23 49  1  0  0  0
 23 68  1  0  0  0
 24 25  1  0  0  0
 24 39  1  0  0  0
 24 48  1  0  0  0
 25 26  1  0  0  0
 26 27  2  0  0  0
 26 28  1  0  0  0
 28 29  2  0  0  0
 28 33  1  0  0  0
 29 30  1  0  0  0
 29 38  1  0  0  0
 30 31  2  0  0  0
 30 37  1  0  0  0
 31 32  1  0  0  0
 31 36  1  0  0  0
 32 33  2  0  0  0
 32 35  1  0  0  0
 33 34  1  0  0  0
 39 40  1  0  0  0
 39 43  1  0  0  0
 39 47  1  0  0  0
 40 41  1  0  0  0
 40 42  1  0  0  0
 43 44  1  0  0  0
 43 45  1  0  0  0
 43 46  1  0  0  0
 49 50  2  0  0  0
 49 67  1  0  0  0
 50 51  1  0  0  0
 50 63  1  0  0  0
 51 52  1  0  0  0
 51 59  1  0  0  0
 51 62  1  0  0  0
 52 53  1  0  0  0
 53 54  2  0  0  0
 53 55  1  0  0  0
 55 56  1  0  0  0
 55 57  1  0  0  0
 55 58  1  0  0  0
 59 60  1  0  0  0
 59 61  1  0  0  0
 63 64  1  0  0  0
 63 65  1  0  0  0
 63 66  1  0  0  0
 70 71  1  0  0  0
 70 72  1  0  0  0
 70 73  1  0  0  0
 77 78  1  0  0  0
 77 79  1  0  0  0
 77 80  1  0  0  0
 81 82  1  0  0  0
 81 83  1  0  0  0
 81 84  1  0  0  0
M  END
> <Tumorigenic>
none

> <Score>
35.300194

> <Active/Decoy>
active

> <InChI>
InChI=1S/C33H42O9/c1-19-14-15-32(7,8)28(37)17-27(39-22(4)34)20(2)16-26-29(41-31(38)25-12-10-9-11-13-25)21(3)18-33(26,42-24(6)36)30(19)40-23(5)35/h9-16,19,21,26-27,29-30H,17-18H2,1-8H3/b15-14?,20-16-/t19-,21-,26+,27+,29-,30+,33?/m0/s1

> <Matching Features>
H:14924486185440016873||HBA:14924321692640012300|HBA:14924486112070016868

> <Mol. Index>
500

> <Pharmacophore Match>
Model -1

> <# Confs.>
25

> <Source Database>
Pharm-Screening-input-NANPDB_After_DataWarror.ldb

> <Pharmacophore-Fit Score>
35.3

> <formula>
C33H42O9

> <Mutagenic>
none

> <Reproductive Effective>
none

> <Irritant>
none

$$$$
epieuphoscopin B
XX    ILIB03122402113D

 80 81  0  0  1  0              1 V2000
   -3.7417   -0.4750   -1.7636 O   0  0  0  0  0
   -3.3292   -0.0242   -0.6904 C   0  0  0  0  0
   -2.5173   -0.8980    0.2882 C   0  0  0  0  0
   -1.0487   -0.5747    0.0715 C   0  0  0  0  0
   -0.3386    0.3925    0.6746 C   0  0  0  0  0
    1.1567    0.5531    0.5270 C   0  0  1  0  0
    1.5856    1.9182   -0.0911 C   0  0  1  0  0
    2.9973    2.0622    0.1224 O   0  0  0  0  0
    3.3856    3.0722    0.9312 C   0  0  0  0  0
    2.6513    3.8714    1.4964 O   0  0  0  0  0
    4.8792    3.0707    1.0546 C   0  0  0  0  0
    5.2059    2.1604    1.5613 H   0  0  0  0  0
    5.1961    3.9347    1.6434 H   0  0  0  0  0
    5.3341    3.1469    0.0638 H   0  0  0  0  0
    1.3357    2.0757   -1.6263 C   0  0  1  0  0
    1.7279    0.8757   -2.3099 O   0  0  0  0  0
    3.0218    0.5084   -2.1878 C   0  0  0  0  0
    3.9766    1.2567   -2.0296 O   0  0  0  0  0
    3.1282   -0.9849   -2.2627 C   0  0  0  0  0
    2.6231   -1.4332   -1.4038 H   0  0  0  0  0
    4.1818   -1.2762   -2.2442 H   0  0  0  0  0
    2.6910   -1.3429   -3.1980 H   0  0  0  0  0
   -0.1411    2.3221   -2.0706 C   0  0  2  0  0
    0.0572    2.7558   -3.5551 C   0  0  1  0  0
   -1.1084    3.4036   -4.0654 O   0  0  0  0  0
   -2.0272    2.6167   -4.6515 C   0  0  0  0  0
   -1.9528    1.3995   -4.7709 O   0  0  0  0  0
   -3.2062    3.4225   -5.1332 C   0  0  0  0  0
   -2.9945    3.9057   -6.5532 C   0  0  0  0  0
   -3.8618    4.4775   -6.8965 H   0  0  0  0  0
   -2.8470    3.0622   -7.2358 H   0  0  0  0  0
   -2.1107    4.5482   -6.6222 H   0  0  0  0  0
   -3.3710    4.2641   -4.4518 H   0  0  0  0  0
   -4.0979    2.7892   -5.0698 H   0  0  0  0  0
    1.2806    3.6954   -3.5083 C   0  0  1  0  0
    2.0721    3.2969   -2.2457 C   0  0  0  0  0
    2.0527    4.1446   -1.5498 H   0  0  0  0  0
    3.1231    3.0942   -2.4735 H   0  0  0  0  0
    2.1280    3.5966   -4.7715 C   0  0  0  0  0
    2.4965    2.5769   -4.9265 H   0  0  0  0  0
    1.5523    3.8869   -5.6555 H   0  0  0  0  0
    2.9956    4.2605   -4.7049 H   0  0  0  0  0
    0.9515    4.7387   -3.4119 H   0  0  0  0  0
    0.2815    1.8623   -4.1424 H   0  0  0  0  0
   -0.8716    3.3884   -1.2683 C   0  0  0  0  0
   -2.1899    3.4219   -0.9828 C   0  0  0  0  0
   -3.1848    2.3802   -1.4679 C   0  0  2  0  0
   -4.3461    3.0588   -1.9708 O   0  0  0  0  0
   -5.3411    2.2786   -2.4468 C   0  0  0  0  0
   -5.2151    1.1777   -2.9671 O   0  0  0  0  0
   -6.6564    2.9599   -2.2334 C   0  0  0  0  0
   -6.8567    3.0506   -1.1621 H   0  0  0  0  0
   -7.4528    2.3647   -2.6902 H   0  0  0  0  0
   -6.6501    3.9435   -2.7094 H   0  0  0  0  0
   -3.5960    1.4333   -0.3279 C   0  0  0  0  0
   -3.0491    1.6814    0.5825 H   0  0  0  0  0
   -4.6626    1.5136   -0.0925 H   0  0  0  0  0
   -2.7514    1.8214   -2.3043 H   0  0  0  0  0
   -2.7440    4.5454   -0.1426 C   0  0  0  0  0
   -3.2833    4.1490    0.7230 H   0  0  0  0  0
   -1.9578    5.2049    0.2395 H   0  0  0  0  0
   -3.4312    5.1613   -0.7296 H   0  0  0  0  0
   -0.2588    4.2083   -0.8995 H   0  0  0  0  0
   -0.6948    1.3875   -2.0590 H   0  0  0  0  0
    1.0736    2.7267    0.4491 H   0  0  0  0  0
    1.7700    0.3440    1.9240 C   0  0  0  0  0
    2.8602    0.2704    1.8707 H   0  0  0  0  0
    1.5152    1.1688    2.5997 H   0  0  0  0  0
    1.4111   -0.5866    2.3779 H   0  0  0  0  0
    1.5566   -0.2602   -0.0907 H   0  0  0  0  0
   -0.8288    1.0717    1.3669 H   0  0  0  0  0
   -0.5157   -1.2220   -0.6241 H   0  0  0  0  0
   -2.9998   -0.7211    1.7403 C   0  0  0  0  0
   -2.4855   -1.4182    2.4120 H   0  0  0  0  0
   -2.8310    0.2825    2.1384 H   0  0  0  0  0
   -4.0762   -0.9142    1.8164 H   0  0  0  0  0
   -2.7414   -2.3845   -0.0679 C   0  0  0  0  0
   -2.1780   -3.0452    0.6013 H   0  0  0  0  0
   -3.8024   -2.6532    0.0107 H   0  0  0  0  0
   -2.4290   -2.6134   -1.0941 H   0  0  0  0  0
  1  2  2  0  0  0
  2  3  1  0  0  0
  2 55  1  0  0  0
  3  4  1  0  0  0
  3 73  1  0  0  0
  3 77  1  0  0  0
  4  5  2  0  0  0
  4 72  1  0  0  0
  5  6  1  0  0  0
  5 71  1  0  0  0
  6  7  1  0  0  0
  6 66  1  0  0  0
  6 70  1  0  0  0
  7  8  1  0  0  0
  7 15  1  0  0  0
  7 65  1  0  0  0
  8  9  1  0  0  0
  9 10  2  0  0  0
  9 11  1  0  0  0
 11 12  1  0  0  0
 11 13  1  0  0  0
 11 14  1  0  0  0
 15 16  1  0  0  0
 15 23  1  0  0  0
 15 36  1  0  0  0
 16 17  1  0  0  0
 17 18  2  0  0  0
 17 19  1  0  0  0
 19 20  1  0  0  0
 19 21  1  0  0  0
 19 22  1  0  0  0
 23 24  1  0  0  0
 23 45  1  0  0  0
 23 64  1  0  0  0
 24 25  1  0  0  0
 24 35  1  0  0  0
 24 44  1  0  0  0
 25 26  1  0  0  0
 26 27  2  0  0  0
 26 28  1  0  0  0
 28 29  1  0  0  0
 28 33  1  0  0  0
 28 34  1  0  0  0
 29 30  1  0  0  0
 29 31  1  0  0  0
 29 32  1  0  0  0
 35 36  1  0  0  0
 35 39  1  0  0  0
 35 43  1  0  0  0
 36 37  1  0  0  0
 36 38  1  0  0  0
 39 40  1  0  0  0
 39 41  1  0  0  0
 39 42  1  0  0  0
 45 46  2  0  0  0
 45 63  1  0  0  0
 46 47  1  0  0  0
 46 59  1  0  0  0
 47 48  1  0  0  0
 47 55  1  0  0  0
 47 58  1  0  0  0
 48 49  1  0  0  0
 49 50  2  0  0  0
 49 51  1  0  0  0
 51 52  1  0  0  0
 51 53  1  0  0  0
 51 54  1  0  0  0
 55 56  1  0  0  0
 55 57  1  0  0  0
 59 60  1  0  0  0
 59 61  1  0  0  0
 59 62  1  0  0  0
 66 67  1  0  0  0
 66 68  1  0  0  0
 66 69  1  0  0  0
 73 74  1  0  0  0
 73 75  1  0  0  0
 73 76  1  0  0  0
 77 78  1  0  0  0
 77 79  1  0  0  0
 77 80  1  0  0  0
M  END
> <Tumorigenic>
none

> <Score>
35.232887

> <Active/Decoy>
active

> <InChI>
InChI=1S/C29H42O9/c1-10-25(34)37-26-18(4)15-29(38-21(7)32)22(26)13-17(3)23(35-19(5)30)14-24(33)28(8,9)12-11-16(2)27(29)36-20(6)31/h11-13,16,18,22-23,26-27H,10,14-15H2,1-9H3/b12-11+,17-13+/t16-,18+,22-,23+,26-,27+,29-/m0/s1

> <Matching Features>
H:14924486185440016873||HBA:14924321692640012300|HBA:14924486112070016868

> <Mol. Index>
495

> <Pharmacophore Match>
Model -1

> <# Confs.>
14

> <Source Database>
Pharm-Screening-input-NANPDB_After_DataWarror.ldb

> <Pharmacophore-Fit Score>
35.23

> <formula>
C29H42O9

> <Mutagenic>
none

> <Reproductive Effective>
none

> <Irritant>
none

$$$$
2-acetoxy-6-p-hydroxybenzoyl-jaeschkeanadiol
XX    ILIB03122402113D

 62 64  0  0  1  0              1 V2000
   -0.9886    4.5541   -1.2250 O   0  0  0  0  0
   -1.1484    3.3441   -1.2473 C   0  0  0  0  0
   -0.3503    2.4032   -0.6703 O   0  0  0  0  0
    0.8189    2.8571    0.0162 C   0  0  2  0  0
    1.9799    1.8390   -0.0379 C   0  0  2  0  0
    2.5718    1.6203   -1.4801 C   0  0  2  0  0
    3.9467    1.2121   -1.3396 O   0  0  0  0  0
    4.4285    1.9264   -0.8895 H   0  0  0  0  0
    2.5315    2.7954   -2.4744 C   0  0  0  0  0
    3.3654    3.9794   -1.9746 C   0  0  0  0  0
    3.3512    4.7993   -2.7011 H   0  0  0  0  0
    2.9736    4.3730   -1.0315 H   0  0  0  0  0
    4.4093    3.6883   -1.8144 H   0  0  0  0  0
    3.0300    2.3725   -3.8601 C   0  0  0  0  0
    3.0144    3.2194   -4.5526 H   0  0  0  0  0
    4.0568    1.9937   -3.8126 H   0  0  0  0  0
    2.3985    1.5880   -4.2889 H   0  0  0  0  0
    1.4935    3.1373   -2.5810 H   0  0  0  0  0
    1.8018    0.4026   -1.9852 C   0  0  0  0  0
    1.8198   -0.5429   -0.7890 C   0  0  2  0  0
    0.7820   -1.5232   -0.9595 O   0  0  0  0  0
    0.8801   -2.3515   -2.0341 C   0  0  0  0  0
    1.7694   -2.3480   -2.8756 O   0  0  0  0  0
   -0.2658   -3.3176   -2.0332 C   0  0  0  0  0
   -0.3469   -3.7858   -3.0193 H   0  0  0  0  0
   -0.0942   -4.0918   -1.2816 H   0  0  0  0  0
   -1.2017   -2.7886   -1.8335 H   0  0  0  0  0
    1.6441    0.3797    0.4685 C   0  0  2  0  0
    0.2472    0.1862    1.1091 C   0  0  0  0  0
   -0.0677    0.9981    2.3255 C   0  0  0  0  0
    0.0398    2.3255    2.4843 C   0  0  0  0  0
    0.4788    3.3241    1.4452 C   0  0  0  0  0
   -0.3180    4.0769    1.3721 H   0  0  0  0  0
    1.3598    3.8438    1.8459 H   0  0  0  0  0
   -0.3102    2.9469    3.8134 C   0  0  0  0  0
   -0.6126    2.2032    4.5572 H   0  0  0  0  0
    0.5527    3.4849    4.2175 H   0  0  0  0  0
   -1.1382    3.6532    3.6956 H   0  0  0  0  0
   -0.4251    0.4112    3.1709 H   0  0  0  0  0
   -0.5598    0.3055    0.3786 H   0  0  0  0  0
    0.1648   -0.8638    1.4279 H   0  0  0  0  0
    2.7128   -0.0391    1.5119 C   0  0  0  0  0
    2.5510   -1.0680    1.8522 H   0  0  0  0  0
    3.7249    0.0135    1.0955 H   0  0  0  0  0
    2.6935    0.6134    2.3918 H   0  0  0  0  0
    2.7972   -1.0457   -0.7665 H   0  0  0  0  0
    2.2819   -0.0819   -2.8432 H   0  0  0  0  0
    0.7755    0.6498   -2.2799 H   0  0  0  0  0
    2.7867    2.2556    0.5806 H   0  0  0  0  0
    1.1650    3.7842   -0.4847 H   0  0  0  0  0
   -2.2869    2.6915   -1.9203 C   0  0  0  0  0
   -3.2281    3.5064   -2.5640 C   0  0  0  0  0
   -4.3204    2.9366   -3.2209 C   0  0  0  0  0
   -4.4699    1.5525   -3.2313 C   0  0  0  0  0
   -5.5265    0.9658   -3.8682 O   0  0  0  0  0
   -6.0766    1.6657   -4.2579 H   0  0  0  0  0
   -3.5435    0.7320   -2.5934 C   0  0  0  0  0
   -2.4500    1.3001   -1.9374 C   0  0  0  0  0
   -1.7426    0.6361   -1.4505 H   0  0  0  0  0
   -3.6644   -0.3478   -2.6019 H   0  0  0  0  0
   -5.0407    3.5791   -3.7181 H   0  0  0  0  0
   -3.1268    4.5885   -2.5665 H   0  0  0  0  0
  1  2  2  0  0  0
  2  3  1  0  0  0
  2 51  1  0  0  0
  3  4  1  0  0  0
  4  5  1  0  0  0
  4 32  1  0  0  0
  4 50  1  0  0  0
  5  6  1  0  0  0
  5 28  1  0  0  0
  5 49  1  0  0  0
  6  7  1  0  0  0
  6  9  1  0  0  0
  6 19  1  0  0  0
  7  8  1  0  0  0
  9 10  1  0  0  0
  9 14  1  0  0  0
  9 18  1  0  0  0
 10 11  1  0  0  0
 10 12  1  0  0  0
 10 13  1  0  0  0
 14 15  1  0  0  0
 14 16  1  0  0  0
 14 17  1  0  0  0
 19 20  1  0  0  0
 19 47  1  0  0  0
 19 48  1  0  0  0
 20 21  1  0  0  0
 20 28  1  0  0  0
 20 46  1  0  0  0
 21 22  1  0  0  0
 22 23  2  0  0  0
 22 24  1  0  0  0
 24 25  1  0  0  0
 24 26  1  0  0  0
 24 27  1  0  0  0
 28 29  1  0  0  0
 28 42  1  0  0  0
 29 30  1  0  0  0
 29 40  1  0  0  0
 29 41  1  0  0  0
 30 31  2  0  0  0
 30 39  1  0  0  0
 31 32  1  0  0  0
 31 35  1  0  0  0
 32 33  1  0  0  0
 32 34  1  0  0  0
 35 36  1  0  0  0
 35 37  1  0  0  0
 35 38  1  0  0  0
 42 43  1  0  0  0
 42 44  1  0  0  0
 42 45  1  0  0  0
 51 52  2  0  0  0
 51 58  1  0  0  0
 52 53  1  0  0  0
 52 62  1  0  0  0
 53 54  2  0  0  0
 53 61  1  0  0  0
 54 55  1  0  0  0
 54 57  1  0  0  0
 55 56  1  0  0  0
 57 58  2  0  0  0
 57 60  1  0  0  0
 58 59  1  0  0  0
M  END
> <Tumorigenic>
none

> <Score>
35.206337

> <Active/Decoy>
active

> <InChI>
InChI=1S/C24H32O6/c1-14(2)24(28)13-20(29-16(4)25)23(5)11-10-15(3)12-19(21(23)24)30-22(27)17-6-8-18(26)9-7-17/h6-10,14,19-21,26,28H,11-13H2,1-5H3/t19-,20-,21-,23-,24+/m0/s1

> <Matching Features>
H:14924486185440016873||HBA:14924321692640012300|HBA:14924486112070016868

> <Mol. Index>
904

> <Pharmacophore Match>
Model -1

> <# Confs.>
25

> <Source Database>
Pharm-Screening-input-NANPDB_After_DataWarror.ldb

> <Pharmacophore-Fit Score>
35.21

> <formula>
C24H32O6

> <Mutagenic>
none

> <Reproductive Effective>
none

> <Irritant>
none

$$$$
diorcinol
XX    ILIB03122402113D

 31 32  0  0  1  0              1 V2000
   -0.1243    1.7582   -2.8834 O   0  0  0  0  0
   -1.1222    0.8396   -3.0167 C   0  0  0  0  0
   -2.4561    1.2842   -3.0060 C   0  0  0  0  0
   -3.4719    0.3512   -3.1861 C   0  0  0  0  0
   -4.7661    0.7905   -3.1560 O   0  0  0  0  0
   -5.3549    0.0289   -3.2979 H   0  0  0  0  0
   -3.1784   -0.9977   -3.3916 C   0  0  0  0  0
   -1.8459   -1.4277   -3.4342 C   0  0  0  0  0
   -0.8192   -0.4943   -3.2396 C   0  0  0  0  0
    0.2196   -0.8132   -3.2603 H   0  0  0  0  0
   -1.5233   -2.8784   -3.6268 C   0  0  0  0  0
   -0.5481   -3.0029   -4.1084 H   0  0  0  0  0
   -1.5067   -3.3895   -2.6598 H   0  0  0  0  0
   -2.2664   -3.3621   -4.2698 H   0  0  0  0  0
   -3.9843   -1.7166   -3.5242 H   0  0  0  0  0
   -2.6909    2.3337   -2.8533 H   0  0  0  0  0
    0.9005    1.4515   -2.0007 C   0  0  0  0  0
    2.2265    1.6657   -2.4016 C   0  0  0  0  0
    3.2547    1.2984   -1.5395 C   0  0  0  0  0
    4.5434    1.5188   -1.9408 O   0  0  0  0  0
    5.1427    1.2081   -1.2407 H   0  0  0  0  0
    2.9793    0.7151   -0.3015 C   0  0  0  0  0
    1.6518    0.4919    0.0897 C   0  0  0  0  0
    0.6134    0.8461   -0.7811 C   0  0  0  0  0
   -0.4210    0.6566   -0.5057 H   0  0  0  0  0
    1.3552   -0.1698    1.4013 C   0  0  0  0  0
    2.0090    0.2222    2.1873 H   0  0  0  0  0
    1.5060   -1.2508    1.3185 H   0  0  0  0  0
    0.3224    0.0153    1.7149 H   0  0  0  0  0
    3.7930    0.4272    0.3590 H   0  0  0  0  0
    2.4483    2.1121   -3.3662 H   0  0  0  0  0
  1  2  1  0  0  0
  1 17  1  0  0  0
  2  3  2  0  0  0
  2  9  1  0  0  0
  3  4  1  0  0  0
  3 16  1  0  0  0
  4  5  1  0  0  0
  4  7  2  0  0  0
  5  6  1  0  0  0
  7  8  1  0  0  0
  7 15  1  0  0  0
  8  9  2  0  0  0
  8 11  1  0  0  0
  9 10  1  0  0  0
 11 12  1  0  0  0
 11 13  1  0  0  0
 11 14  1  0  0  0
 17 18  2  0  0  0
 17 24  1  0  0  0
 18 19  1  0  0  0
 18 31  1  0  0  0
 19 20  1  0  0  0
 19 22  2  0  0  0
 20 21  1  0  0  0
 22 23  1  0  0  0
 22 30  1  0  0  0
 23 24  2  0  0  0
 23 26  1  0  0  0
 24 25  1  0  0  0
 26 27  1  0  0  0
 26 28  1  0  0  0
 26 29  1  0  0  0
M  END
> <Tumorigenic>
none

> <Score>
35.203926

> <Active/Decoy>
active

> <InChI>
InChI=1S/C14H14O3/c1-9-3-11(15)7-13(5-9)17-14-6-10(2)4-12(16)8-14/h3-8,15-16H,1-2H3

> <Matching Features>
H:14924486185440016873||HBA:14924321692640012300|HBA:14924486112070016868

> <Mol. Index>
542

> <Pharmacophore Match>
Model -1

> <# Confs.>
21

> <Source Database>
Pharm-Screening-input-NANPDB_After_DataWarror.ldb

> <Pharmacophore-Fit Score>
35.2

> <formula>
C14H14O3

> <Mutagenic>
none

> <Reproductive Effective>
none

> <Irritant>
none

$$$$
daphnelone
XX    ILIB03122402123D

 38 39  0  0  1  0              1 V2000
    1.4249    2.6362   -2.9711 O   0  0  0  0  0
    0.9154    1.5271   -2.8249 C   0  0  0  0  0
   -0.5441    1.3733   -3.0394 C   0  0  0  0  0
   -1.3891    2.4592   -2.7756 C   0  0  0  0  0
   -2.7644    2.3430   -2.9748 C   0  0  0  0  0
   -3.2933    1.1403   -3.4411 C   0  0  0  0  0
   -4.6358    0.9970   -3.6516 O   0  0  0  0  0
   -5.0734    1.8361   -3.4346 H   0  0  0  0  0
   -2.4638    0.0535   -3.7034 C   0  0  0  0  0
   -1.0862    0.1681   -3.5015 C   0  0  0  0  0
   -0.4619   -0.6948   -3.7133 H   0  0  0  0  0
   -2.8782   -0.8827   -4.0639 H   0  0  0  0  0
   -3.4105    3.1911   -2.7672 H   0  0  0  0  0
   -0.9945    3.4054   -2.4144 H   0  0  0  0  0
    1.7408    0.3042   -2.4649 C   0  0  0  0  0
    2.9259    0.7069   -1.6221 C   0  0  2  0  0
    3.7373    1.5913   -2.3999 O   0  0  0  0  0
    3.1657    2.3458   -2.6489 H   0  0  0  0  0
    3.8435   -0.4652   -1.2212 C   0  0  0  0  0
    3.1567   -1.5386   -0.3729 C   0  0  0  0  0
    2.6160   -1.0157    0.9290 C   0  0  0  0  0
    1.3065   -0.5202    1.0188 C   0  0  0  0  0
    0.8107   -0.0402    2.2320 C   0  0  0  0  0
    1.6176   -0.0480    3.3674 C   0  0  0  0  0
    2.9196   -0.5369    3.2909 C   0  0  0  0  0
    3.4167   -1.0190    2.0792 C   0  0  0  0  0
    4.4350   -1.3975    2.0399 H   0  0  0  0  0
    3.5488   -0.5451    4.1772 H   0  0  0  0  0
    1.2311    0.3249    4.3119 H   0  0  0  0  0
   -0.2048    0.3400    2.2896 H   0  0  0  0  0
    0.6637   -0.5067    0.1422 H   0  0  0  0  0
    2.3471   -2.0094   -0.9462 H   0  0  0  0  0
    3.8749   -2.3392   -0.1517 H   0  0  0  0  0
    4.7062   -0.0729   -0.6673 H   0  0  0  0  0
    4.2424   -0.9343   -2.1299 H   0  0  0  0  0
    2.6260    1.2596   -0.7234 H   0  0  0  0  0
    1.0678   -0.3802   -1.9088 H   0  0  0  0  0
    2.0289   -0.2061   -3.3774 H   0  0  0  0  0
  1  2  2  0  0  0
  2  3  1  0  0  0
  2 15  1  0  0  0
  3  4  2  0  0  0
  3 10  1  0  0  0
  4  5  1  0  0  0
  4 14  1  0  0  0
  5  6  2  0  0  0
  5 13  1  0  0  0
  6  7  1  0  0  0
  6  9  1  0  0  0
  7  8  1  0  0  0
  9 10  2  0  0  0
  9 12  1  0  0  0
 10 11  1  0  0  0
 15 16  1  0  0  0
 15 37  1  0  0  0
 15 38  1  0  0  0
 16 17  1  0  0  0
 16 19  1  0  0  0
 16 36  1  0  0  0
 17 18  1  0  0  0
 19 20  1  0  0  0
 19 34  1  0  0  0
 19 35  1  0  0  0
 20 21  1  0  0  0
 20 32  1  0  0  0
 20 33  1  0  0  0
 21 22  2  0  0  0
 21 26  1  0  0  0
 22 23  1  0  0  0
 22 31  1  0  0  0
 23 24  2  0  0  0
 23 30  1  0  0  0
 24 25  1  0  0  0
 24 29  1  0  0  0
 25 26  2  0  0  0
 25 28  1  0  0  0
 26 27  1  0  0  0
M  END
> <Tumorigenic>
none

> <Score>
35.188778

> <Active/Decoy>
active

> <InChI>
InChI=1S/C17H18O3/c18-15-10-7-14(8-11-15)17(20)12-16(19)9-6-13-4-2-1-3-5-13/h1-5,7-8,10-11,16,18-19H,6,9,12H2/t16-/m1/s1

> <Matching Features>
H:14924486185440016873||HBA:14924321692640012300|HBA:14924486112070016868

> <Mol. Index>
819

> <Pharmacophore Match>
Model -1

> <# Confs.>
25

> <Source Database>
Pharm-Screening-input-NANPDB_After_DataWarror.ldb

> <Pharmacophore-Fit Score>
35.19

> <formula>
C17H18O3

> <Mutagenic>
none

> <Reproductive Effective>
none

> <Irritant>
none

$$$$
p-hydroxyphenethyl trans-ferulate
XX    ILIB03122402123D

 41 42  0  0  1  0              1 V2000
    3.6908    1.5841   -2.3968 O   0  0  0  0  0
    2.7713    0.8687   -2.0273 C   0  0  0  0  0
    2.8527   -0.2100   -1.2129 O   0  0  0  0  0
    4.1438   -0.5215   -0.6859 C   0  0  0  0  0
    4.3897    0.2043    0.6167 C   0  0  0  0  0
    3.3804   -0.1650    1.6653 C   0  0  0  0  0
    3.5967   -1.2469    2.5339 C   0  0  0  0  0
    2.6477   -1.5862    3.5004 C   0  0  0  0  0
    1.4746   -0.8442    3.5997 C   0  0  0  0  0
    0.5614   -1.2005    4.5505 O   0  0  0  0  0
   -0.1991   -0.5964    4.4928 H   0  0  0  0  0
    1.2386    0.2309    2.7483 C   0  0  0  0  0
    2.1904    0.5683    1.7838 C   0  0  0  0  0
    1.9948    1.4090    1.1234 H   0  0  0  0  0
    0.3231    0.8109    2.8229 H   0  0  0  0  0
    2.8307   -2.4253    4.1632 H   0  0  0  0  0
    4.5067   -1.8374    2.4605 H   0  0  0  0  0
    4.3615    1.2892    0.4522 H   0  0  0  0  0
    5.3983   -0.0181    0.9893 H   0  0  0  0  0
    4.9322   -0.3035   -1.4252 H   0  0  0  0  0
    4.1846   -1.6085   -0.5252 H   0  0  0  0  0
    1.3794    1.1026   -2.4904 C   0  0  0  0  0
    0.3326    0.3425   -2.1329 C   0  0  0  0  0
   -1.0412    0.5499   -2.6041 C   0  0  0  0  0
   -2.1344    0.1959   -1.7903 C   0  0  0  0  0
   -3.4532    0.4044   -2.2157 C   0  0  0  0  0
   -4.4378   -0.0013   -1.3594 O   0  0  0  0  0
   -4.9264    1.0031   -0.4737 C   0  0  0  0  0
   -4.1338    1.3645    0.1909 H   0  0  0  0  0
   -5.3824    1.8303   -1.0280 H   0  0  0  0  0
   -5.7025    0.5484    0.1482 H   0  0  0  0  0
   -3.6948    0.9324   -3.4831 C   0  0  0  0  0
   -4.9773    1.0635   -3.9396 O   0  0  0  0  0
   -4.9530    1.4325   -4.8393 H   0  0  0  0  0
   -2.6285    1.2969   -4.3010 C   0  0  0  0  0
   -1.3147    1.1124   -3.8605 C   0  0  0  0  0
   -0.5126    1.4050   -4.5326 H   0  0  0  0  0
   -2.8034    1.7152   -5.2883 H   0  0  0  0  0
   -1.9724   -0.2397   -0.8060 H   0  0  0  0  0
    0.4674   -0.5053   -1.4664 H   0  0  0  0  0
    1.2648    1.9390   -3.1741 H   0  0  0  0  0
  1  2  2  0  0  0
  2  3  1  0  0  0
  2 22  1  0  0  0
  3  4  1  0  0  0
  4  5  1  0  0  0
  4 20  1  0  0  0
  4 21  1  0  0  0
  5  6  1  0  0  0
  5 18  1  0  0  0
  5 19  1  0  0  0
  6  7  2  0  0  0
  6 13  1  0  0  0
  7  8  1  0  0  0
  7 17  1  0  0  0
  8  9  2  0  0  0
  8 16  1  0  0  0
  9 10  1  0  0  0
  9 12  1  0  0  0
 10 11  1  0  0  0
 12 13  2  0  0  0
 12 15  1  0  0  0
 13 14  1  0  0  0
 22 23  2  0  0  0
 22 41  1  0  0  0
 23 24  1  0  0  0
 23 40  1  0  0  0
 24 25  2  0  0  0
 24 36  1  0  0  0
 25 26  1  0  0  0
 25 39  1  0  0  0
 26 27  1  0  0  0
 26 32  2  0  0  0
 27 28  1  0  0  0
 28 29  1  0  0  0
 28 30  1  0  0  0
 28 31  1  0  0  0
 32 33  1  0  0  0
 32 35  1  0  0  0
 33 34  1  0  0  0
 35 36  2  0  0  0
 35 38  1  0  0  0
 36 37  1  0  0  0
M  END
> <Tumorigenic>
none

> <Score>
35.19011

> <Active/Decoy>
active

> <InChI>
InChI=1S/C18H18O5/c1-22-17-12-14(4-8-16(17)20)5-9-18(21)23-11-10-13-2-6-15(19)7-3-13/h2-9,12,19-20H,10-11H2,1H3/b9-5+

> <Matching Features>
H:14924486185440016873||HBA:14924321692640012300|HBA:14924486112070016868

> <Mol. Index>
613

> <Pharmacophore Match>
Model -1

> <# Confs.>
25

> <Source Database>
Pharm-Screening-input-NANPDB_After_DataWarror.ldb

> <Pharmacophore-Fit Score>
35.19

> <formula>
C18H18O5

> <Mutagenic>
none

> <Reproductive Effective>
none

> <Irritant>
none

$$$$
catechin gallate
XX    ILIB03122402123D

 50 53  0  0  1  0              1 V2000
    4.0024    1.5767   -2.2730 O   0  0  0  0  0
    3.7892    2.1728   -1.2367 C   0  0  0  0  0
    2.6196    2.2894   -0.5764 O   0  0  0  0  0
    1.4699    1.6412   -1.1729 C   0  0  1  0  0
    0.5023    1.2111   -0.0544 C   0  0  1  0  0
   -0.6606    0.5559   -0.5826 O   0  0  0  0  0
   -1.2572    1.1748   -1.6490 C   0  0  0  0  0
   -2.5464    0.7349   -1.9612 C   0  0  0  0  0
   -3.2309    1.3082   -3.0311 C   0  0  0  0  0
   -4.4958    0.9016   -3.3556 O   0  0  0  0  0
   -4.7628    0.2008   -2.7374 H   0  0  0  0  0
   -2.6444    2.3126   -3.7940 C   0  0  0  0  0
   -1.3518    2.7354   -3.4830 C   0  0  0  0  0
   -0.6348    2.1648   -2.4204 C   0  0  0  0  0
    0.7573    2.6220   -2.0940 C   0  0  0  0  0
    0.7039    3.6111   -1.6211 H   0  0  0  0  0
    1.3498    2.7411   -3.0092 H   0  0  0  0  0
   -0.7653    3.7258   -4.2252 O   0  0  0  0  0
   -1.3922    4.0160   -4.9105 H   0  0  0  0  0
   -3.1886    2.7567   -4.6228 H   0  0  0  0  0
   -3.0135   -0.0466   -1.3678 H   0  0  0  0  0
    1.1360    0.2533    0.9175 C   0  0  0  0  0
    1.5761   -1.0037    0.4783 C   0  0  0  0  0
    2.1658   -1.8924    1.3752 C   0  0  0  0  0
    2.5790   -3.1061    0.9011 O   0  0  0  0  0
    2.9626   -3.6062    1.6438 H   0  0  0  0  0
    2.3237   -1.5437    2.7124 C   0  0  0  0  0
    2.9050   -2.4360    3.5693 O   0  0  0  0  0
    2.9386   -2.0368    4.4549 H   0  0  0  0  0
    1.8925   -0.3003    3.1658 C   0  0  0  0  0
    1.3024    0.5949    2.2701 C   0  0  0  0  0
    0.9712    1.5631    2.6364 H   0  0  0  0  0
    2.0089   -0.0157    4.2074 H   0  0  0  0  0
    1.4594   -1.2889   -0.5641 H   0  0  0  0  0
    0.1690    2.0969    0.5061 H   0  0  0  0  0
    1.7868    0.7544   -1.7485 H   0  0  0  0  0
    4.8369    2.9232   -0.5033 C   0  0  0  0  0
    4.5739    3.6048    0.6899 C   0  0  0  0  0
    5.6075    4.2800    1.3405 C   0  0  0  0  0
    5.3059    4.9427    2.4993 O   0  0  0  0  0
    6.1187    5.3647    2.8253 H   0  0  0  0  0
    6.8996    4.2915    0.8157 C   0  0  0  0  0
    7.8552    4.9991    1.4867 O   0  0  0  0  0
    8.6409    5.0987    0.9291 H   0  0  0  0  0
    7.1627    3.5983   -0.3643 C   0  0  0  0  0
    6.1362    2.9234   -1.0293 C   0  0  0  0  0
    6.3650    2.3807   -1.9437 H   0  0  0  0  0
    8.4068    3.5344   -0.9258 O   0  0  0  0  0
    9.0686    3.8476   -0.2899 H   0  0  0  0  0
    3.5834    3.6079    1.1369 H   0  0  0  0  0
  1  2  2  0  0  0
  2  3  1  0  0  0
  2 37  1  0  0  0
  3  4  1  0  0  0
  4  5  1  0  0  0
  4 15  1  0  0  0
  4 36  1  0  0  0
  5  6  1  0  0  0
  5 22  1  0  0  0
  5 35  1  0  0  0
  6  7  1  0  0  0
  7  8  1  0  0  0
  7 14  2  0  0  0
  8  9  2  0  0  0
  8 21  1  0  0  0
  9 10  1  0  0  0
  9 12  1  0  0  0
 10 11  1  0  0  0
 12 13  2  0  0  0
 12 20  1  0  0  0
 13 14  1  0  0  0
 13 18  1  0  0  0
 14 15  1  0  0  0
 15 16  1  0  0  0
 15 17  1  0  0  0
 18 19  1  0  0  0
 22 23  2  0  0  0
 22 31  1  0  0  0
 23 24  1  0  0  0
 23 34  1  0  0  0
 24 25  1  0  0  0
 24 27  2  0  0  0
 25 26  1  0  0  0
 27 28  1  0  0  0
 27 30  1  0  0  0
 28 29  1  0  0  0
 30 31  2  0  0  0
 30 33  1  0  0  0
 31 32  1  0  0  0
 37 38  2  0  0  0
 37 46  1  0  0  0
 38 39  1  0  0  0
 38 50  1  0  0  0
 39 40  1  0  0  0
 39 42  2  0  0  0
 40 41  1  0  0  0
 42 43  1  0  0  0
 42 45  1  0  0  0
 43 44  1  0  0  0
 45 46  2  0  0  0
 45 48  1  0  0  0
 46 47  1  0  0  0
 48 49  1  0  0  0
M  END
> <Tumorigenic>
none

> <Score>
35.179596

> <Active/Decoy>
active

> <InChI>
InChI=1S/C22H18O10/c23-11-6-14(25)12-8-19(32-22(30)10-4-16(27)20(29)17(28)5-10)21(31-18(12)7-11)9-1-2-13(24)15(26)3-9/h1-7,19,21,23-29H,8H2/t19-,21+/m1/s1

> <Matching Features>
H:14924486185440016873||HBA:14924321692640012300|HBA:14924486112070016868

> <Mol. Index>
468

> <Pharmacophore Match>
Model -1

> <# Confs.>
25

> <Source Database>
Pharm-Screening-input-NANPDB_After_DataWarror.ldb

> <Pharmacophore-Fit Score>
35.18

> <formula>
C22H18O10

> <Mutagenic>
none

> <Reproductive Effective>
none

> <Irritant>
none

$$$$
4beta,6alpha,8beta-trihydroxy-9alpha-p-hydroxybenzoyloxydaucane
XX    ILIB03122402123D

 60 62  0  0  1  0              1 V2000
   -0.1445    0.4620   -4.3505 O   0  0  0  0  0
   -0.8742    0.5100   -3.3810 C   0  0  0  0  0
   -0.5069    0.4821   -2.0841 O   0  0  0  0  0
    0.8943    0.3857   -1.7927 C   0  0  1  0  0
    1.4704    1.8119   -1.6943 C   0  0  1  0  0
    1.1451    2.3694   -0.4212 O   0  0  0  0  0
    1.5411    3.2564   -0.3692 H   0  0  0  0  0
    2.9949    1.8440   -1.8994 C   0  0  0  0  0
    3.8821    1.1352   -0.8726 C   0  0  2  0  0
    5.2220    1.3689   -1.3221 O   0  0  0  0  0
    5.8183    1.1406   -0.5883 H   0  0  0  0  0
    3.6066   -0.3776   -0.7579 C   0  0  1  0  0
    4.7738   -1.2603   -0.1826 C   0  0  2  0  0
    5.4922   -0.5010    0.7947 O   0  0  0  0  0
    6.1092   -1.0968    1.2528 H   0  0  0  0  0
    5.7734   -1.7284   -1.2564 C   0  0  0  0  0
    6.8759   -2.6033   -0.6493 C   0  0  0  0  0
    7.5653   -2.9523   -1.4256 H   0  0  0  0  0
    7.4663   -2.0486    0.0846 H   0  0  0  0  0
    6.4526   -3.4837   -0.1534 H   0  0  0  0  0
    5.0704   -2.5016   -2.3764 C   0  0  0  0  0
    5.7929   -2.8452   -3.1236 H   0  0  0  0  0
    4.5469   -3.3799   -1.9830 H   0  0  0  0  0
    4.3385   -1.8749   -2.8950 H   0  0  0  0  0
    6.2528   -0.8484   -1.7052 H   0  0  0  0  0
    4.0778   -2.4378    0.5375 C   0  0  0  0  0
    2.5850   -2.2578    0.2870 C   0  0  0  0  0
    2.3732   -0.7365    0.1207 C   0  0  2  0  0
    0.9885   -0.4784   -0.5196 C   0  0  0  0  0
    0.3040   -0.0552    0.2299 H   0  0  0  0  0
    0.5134   -1.4424   -0.7515 H   0  0  0  0  0
    2.3891   -0.0844    1.5240 C   0  0  0  0  0
    3.3372   -0.2200    2.0506 H   0  0  0  0  0
    2.1936    0.9901    1.4786 H   0  0  0  0  0
    1.6098   -0.5218    2.1597 H   0  0  0  0  0
    2.3174   -2.7877   -0.6374 H   0  0  0  0  0
    1.9858   -2.6883    1.0961 H   0  0  0  0  0
    4.2788   -2.4195    1.6149 H   0  0  0  0  0
    4.3928   -3.4208    0.1734 H   0  0  0  0  0
    3.4086   -0.7538   -1.7713 H   0  0  0  0  0
    3.7927    1.6380    0.0945 H   0  0  0  0  0
    3.3241    2.8929   -1.9184 H   0  0  0  0  0
    3.2352    1.4597   -2.9010 H   0  0  0  0  0
    0.8388    2.7358   -2.7553 C   0  0  0  0  0
    1.2835    3.7370   -2.7168 H   0  0  0  0  0
   -0.2314    2.8840   -2.5733 H   0  0  0  0  0
    0.9759    2.3389   -3.7662 H   0  0  0  0  0
    1.3737   -0.1443   -2.6311 H   0  0  0  0  0
   -2.3513    0.5918   -3.4817 C   0  0  0  0  0
   -2.9213    0.6335   -4.7614 C   0  0  0  0  0
   -4.3061    0.7248   -4.9114 C   0  0  0  0  0
   -5.1188    0.7737   -3.7818 C   0  0  0  0  0
   -6.4781    0.8550   -3.8976 O   0  0  0  0  0
   -6.7052    0.8712   -4.8421 H   0  0  0  0  0
   -4.5645    0.7389   -2.5056 C   0  0  0  0  0
   -3.1793    0.6453   -2.3532 C   0  0  0  0  0
   -2.7742    0.6199   -1.3459 H   0  0  0  0  0
   -5.1997    0.7791   -1.6261 H   0  0  0  0  0
   -4.7355    0.7515   -5.9080 H   0  0  0  0  0
   -2.3027    0.5930   -5.6542 H   0  0  0  0  0
  1  2  2  0  0  0
  2  3  1  0  0  0
  2 49  1  0  0  0
  3  4  1  0  0  0
  4  5  1  0  0  0
  4 29  1  0  0  0
  4 48  1  0  0  0
  5  6  1  0  0  0
  5  8  1  0  0  0
  5 44  1  0  0  0
  6  7  1  0  0  0
  8  9  1  0  0  0
  8 42  1  0  0  0
  8 43  1  0  0  0
  9 10  1  0  0  0
  9 12  1  0  0  0
  9 41  1  0  0  0
 10 11  1  0  0  0
 12 13  1  0  0  0
 12 28  1  0  0  0
 12 40  1  0  0  0
 13 14  1  0  0  0
 13 16  1  0  0  0
 13 26  1  0  0  0
 14 15  1  0  0  0
 16 17  1  0  0  0
 16 21  1  0  0  0
 16 25  1  0  0  0
 17 18  1  0  0  0
 17 19  1  0  0  0
 17 20  1  0  0  0
 21 22  1  0  0  0
 21 23  1  0  0  0
 21 24  1  0  0  0
 26 27  1  0  0  0
 26 38  1  0  0  0
 26 39  1  0  0  0
 27 28  1  0  0  0
 27 36  1  0  0  0
 27 37  1  0  0  0
 28 29  1  0  0  0
 28 32  1  0  0  0
 29 30  1  0  0  0
 29 31  1  0  0  0
 32 33  1  0  0  0
 32 34  1  0  0  0
 32 35  1  0  0  0
 44 45  1  0  0  0
 44 46  1  0  0  0
 44 47  1  0  0  0
 49 50  2  0  0  0
 49 56  1  0  0  0
 50 51  1  0  0  0
 50 60  1  0  0  0
 51 52  2  0  0  0
 51 59  1  0  0  0
 52 53  1  0  0  0
 52 55  1  0  0  0
 53 54  1  0  0  0
 55 56  2  0  0  0
 55 58  1  0  0  0
 56 57  1  0  0  0
M  END
> <Tumorigenic>
none

> <Score>
35.13636

> <Active/Decoy>
active

> <InChI>
InChI=1S/C22H32O6/c1-13(2)22(27)10-9-20(3)12-17(21(4,26)11-16(24)18(20)22)28-19(25)14-5-7-15(23)8-6-14/h5-8,13,16-18,23-24,26-27H,9-12H2,1-4H3/t16-,17+,18+,20+,21-,22+/m0/s1

> <Matching Features>
H:14924486185440016873||HBA:14924321692640012300|HBA:14924486112070016868

> <Mol. Index>
897

> <Pharmacophore Match>
Model -1

> <# Confs.>
25

> <Source Database>
Pharm-Screening-input-NANPDB_After_DataWarror.ldb

> <Pharmacophore-Fit Score>
35.14

> <formula>
C22H32O6

> <Mutagenic>
none

> <Reproductive Effective>
none

> <Irritant>
none

$$$$
Aspergillus diketopiperazine 5a
XX    ILIB03122402123D

 81 84  0  0  1  0              1 V2000
   -0.2972   -1.4674   -2.5907 O   0  0  0  0  0
   -1.2666   -0.7992   -2.9329 C   0  0  0  0  0
   -2.1696   -1.1503   -3.9254 N   0  0  0  0  0
   -3.1488   -0.2067   -4.4485 C   0  0  2  0  0
   -3.8842    0.3981   -3.2602 C   0  0  0  0  0
   -5.0273    0.8382   -3.3680 O   0  0  0  0  0
   -3.0519    0.5475   -2.1199 N   0  0  0  0  0
   -1.5873    0.5921   -2.3846 C   0  0  1  0  0
   -0.6817    1.0137   -1.2339 C   0  0  0  0  0
    0.6671    1.4899   -1.6825 C   0  0  0  0  0
    0.8975    2.5754   -2.5730 C   0  0  0  0  0
    2.2796    2.6901   -2.7363 C   0  0  0  0  0
    2.8174    3.6872   -3.5789 C   0  0  0  0  0
    1.9504    4.5543   -4.2505 C   0  0  0  0  0
    0.5769    4.4453   -4.0984 C   0  0  0  0  0
    0.0413    3.4622   -3.2661 C   0  0  0  0  0
   -1.0371    3.3855   -3.1579 H   0  0  0  0  0
   -0.0846    5.1249   -4.6268 H   0  0  0  0  0
    2.3604    5.3251   -4.8983 H   0  0  0  0  0
    3.8833    3.8077   -3.7216 H   0  0  0  0  0
    2.8984    1.7155   -1.9362 N   0  0  0  0  0
    1.8893    0.9638   -1.3194 C   0  0  0  0  0
    2.1046   -0.2441   -0.4772 C   0  0  0  0  0
    2.2251    0.0444    0.9890 C   0  0  0  0  0
    1.4465   -0.4113    1.9899 C   0  0  0  0  0
    0.2873   -1.3534    1.8334 C   0  0  0  0  0
    0.1809   -1.7560    0.8247 H   0  0  0  0  0
   -0.6475   -0.8451    2.0914 H   0  0  0  0  0
    0.4062   -2.2105    2.5048 H   0  0  0  0  0
    1.7062    0.0150    3.4106 C   0  0  0  0  0
    2.5421    0.7176    3.4904 H   0  0  0  0  0
    1.9426   -0.8543    4.0309 H   0  0  0  0  0
    0.8199    0.5069    3.8251 H   0  0  0  0  0
    3.0437    0.7136    1.2571 H   0  0  0  0  0
    1.2625   -0.9339   -0.6162 H   0  0  0  0  0
    2.9935   -0.7812   -0.8347 H   0  0  0  0  0
    4.2758    1.5794   -1.8163 C   0  0  0  0  0
    5.0130    1.8844   -2.7384 O   0  0  0  0  0
    4.5812    1.0906   -0.5912 O   0  0  0  0  0
    5.9744    0.8916   -0.3074 C   0  0  0  0  0
    6.4728   -0.1104   -1.3541 C   0  0  0  0  0
    6.3149    0.2722   -2.3690 H   0  0  0  0  0
    5.9164   -1.0515   -1.2879 H   0  0  0  0  0
    7.5384   -0.3303   -1.2293 H   0  0  0  0  0
    6.7445    2.2084   -0.4518 C   0  0  0  0  0
    7.8234    2.0554   -0.3332 H   0  0  0  0  0
    6.5642    2.6615   -1.4331 H   0  0  0  0  0
    6.4257    2.9426    0.2961 H   0  0  0  0  0
    6.1573    0.2914    1.0902 C   0  0  0  0  0
    7.2052    0.0340    1.2821 H   0  0  0  0  0
    5.8345    0.9883    1.8710 H   0  0  0  0  0
    5.5507   -0.6138    1.2068 H   0  0  0  0  0
   -0.5712    0.1980   -0.5193 H   0  0  0  0  0
   -1.1782    1.8365   -0.6837 H   0  0  0  0  0
   -1.4429    1.3042   -3.2096 H   0  0  0  0  0
   -3.5629    0.4037   -0.8359 C   0  0  0  0  0
   -2.8977    0.5202    0.1913 O   0  0  0  0  0
   -4.9000    0.1176   -0.8458 O   0  0  0  0  0
   -5.5311   -0.0504    0.4333 C   0  0  0  0  0
   -4.8034   -1.2184    1.1075 C   0  0  0  0  0
   -3.7316   -1.0069    1.2062 H   0  0  0  0  0
   -4.8834   -2.1283    0.5016 H   0  0  0  0  0
   -5.2077   -1.4289    2.1027 H   0  0  0  0  0
   -5.3666    1.2138    1.2841 C   0  0  0  0  0
   -5.7578    1.0683    2.2967 H   0  0  0  0  0
   -4.3109    1.5007    1.3559 H   0  0  0  0  0
   -5.8931    2.0658    0.8403 H   0  0  0  0  0
   -7.0100   -0.4097    0.2653 C   0  0  0  0  0
   -7.4802   -0.6498    1.2205 H   0  0  0  0  0
   -7.5736    0.4067   -0.1971 H   0  0  0  0  0
   -7.1211   -1.2786   -0.4036 H   0  0  0  0  0
   -4.0263   -1.0623   -5.3550 C   0  0  0  0  0
   -3.0638   -2.1387   -5.8521 C   0  0  0  0  0
   -2.1828   -2.4052   -4.6479 C   0  0  0  0  0
   -1.1634   -2.7168   -4.9093 H   0  0  0  0  0
   -2.6193   -3.1649   -3.9829 H   0  0  0  0  0
   -3.5760   -3.0352   -6.2095 H   0  0  0  0  0
   -2.4586   -1.7384   -6.6752 H   0  0  0  0  0
   -4.8465   -1.5275   -4.7939 H   0  0  0  0  0
   -4.4664   -0.4844   -6.1727 H   0  0  0  0  0
   -2.6260    0.5756   -5.0094 H   0  0  0  0  0
  1  2  2  0  0  0
  2  3  1  0  0  0
  2  8  1  0  0  0
  3  4  1  0  0  0
  3 74  1  0  0  0
  4  5  1  0  0  0
  4 72  1  0  0  0
  4 81  1  0  0  0
  5  6  2  0  0  0
  5  7  1  0  0  0
  7  8  1  0  0  0
  7 56  1  0  0  0
  8  9  1  0  0  0
  8 55  1  0  0  0
  9 10  1  0  0  0
  9 53  1  0  0  0
  9 54  1  0  0  0
 10 11  1  0  0  0
 10 22  2  0  0  0
 11 12  2  0  0  0
 11 16  1  0  0  0
 12 13  1  0  0  0
 12 21  1  0  0  0
 13 14  2  0  0  0
 13 20  1  0  0  0
 14 15  1  0  0  0
 14 19  1  0  0  0
 15 16  2  0  0  0
 15 18  1  0  0  0
 16 17  1  0  0  0
 21 22  1  0  0  0
 21 37  1  0  0  0
 22 23  1  0  0  0
 23 24  1  0  0  0
 23 35  1  0  0  0
 23 36  1  0  0  0
 24 25  2  0  0  0
 24 34  1  0  0  0
 25 26  1  0  0  0
 25 30  1  0  0  0
 26 27  1  0  0  0
 26 28  1  0  0  0
 26 29  1  0  0  0
 30 31  1  0  0  0
 30 32  1  0  0  0
 30 33  1  0  0  0
 37 38  2  0  0  0
 37 39  1  0  0  0
 39 40  1  0  0  0
 40 41  1  0  0  0
 40 45  1  0  0  0
 40 49  1  0  0  0
 41 42  1  0  0  0
 41 43  1  0  0  0
 41 44  1  0  0  0
 45 46  1  0  0  0
 45 47  1  0  0  0
 45 48  1  0  0  0
 49 50  1  0  0  0
 49 51  1  0  0  0
 49 52  1  0  0  0
 56 57  2  0  0  0
 56 58  1  0  0  0
 58 59  1  0  0  0
 59 60  1  0  0  0
 59 64  1  0  0  0
 59 68  1  0  0  0
 60 61  1  0  0  0
 60 62  1  0  0  0
 60 63  1  0  0  0
 64 65  1  0  0  0
 64 66  1  0  0  0
 64 67  1  0  0  0
 68 69  1  0  0  0
 68 70  1  0  0  0
 68 71  1  0  0  0
 72 73  1  0  0  0
 72 79  1  0  0  0
 72 80  1  0  0  0
 73 74  1  0  0  0
 73 77  1  0  0  0
 73 78  1  0  0  0
 74 75  1  0  0  0
 74 76  1  0  0  0
M  END
> <Tumorigenic>
none

> <Score>
35.12529

> <Active/Decoy>
active

> <InChI>
InChI=1S/C31H41N3O6/c1-19(2)15-16-23-21(20-12-9-10-13-22(20)33(23)28(37)39-30(3,4)5)18-25-26(35)32-17-11-14-24(32)27(36)34(25)29(38)40-31(6,7)8/h9-10,12-13,15,24-25H,11,14,16-18H2,1-8H3/t24-,25-/m0/s1

> <Matching Features>
H:14924486185440016873||HBA:14924321692640012300|HBA:14924486112070016868

> <Mol. Index>
836

> <Pharmacophore Match>
Model -1

> <# Confs.>
25

> <Source Database>
Pharm-Screening-input-NANPDB_After_DataWarror.ldb

> <Pharmacophore-Fit Score>
35.13

> <formula>
C31H41N3O6

> <Mutagenic>
none

> <Reproductive Effective>
none

> <Irritant>
none

$$$$
(2S,3S,4R,5R,6R,8R, 12S,13S,14R,15R)-5,8,14-triacetoxy-3-benzoyloxy-15-hydroxy-9-oxo-paraliane
XX    ILIB03122402123D

 85 89  0  0  1  0              1 V2000
   -4.5706    0.9807   -3.5870 O   0  0  0  0  0
   -4.2374    0.0017   -2.9276 C   0  0  0  0  0
   -3.6022    0.0840   -1.5536 C   0  0  1  0  0
   -4.7570    0.4951   -0.8061 O   0  0  0  0  0
   -4.9587    1.8260   -0.6918 C   0  0  0  0  0
   -4.2555    2.7096   -1.1631 O   0  0  0  0  0
   -6.2042    2.0779    0.1016 C   0  0  0  0  0
   -7.0712    1.7049   -0.4466 H   0  0  0  0  0
   -6.3233    3.1532    0.2609 H   0  0  0  0  0
   -6.1274    1.5937    1.0793 H   0  0  0  0  0
   -3.1077   -1.3701   -1.3044 C   0  0  2  0  0
   -1.6130   -1.1881   -0.8661 C   0  0  1  0  0
   -0.6023   -2.3238   -1.1815 C   0  0  2  0  0
   -0.9564   -3.5000   -0.4378 O   0  0  0  0  0
   -1.3524   -4.5715   -1.1581 C   0  0  0  0  0
   -1.4387   -4.6359   -2.3773 O   0  0  0  0  0
   -1.6699   -5.7074   -0.2331 C   0  0  0  0  0
   -0.7596   -6.0303    0.2784 H   0  0  0  0  0
   -2.0660   -6.5473   -0.8111 H   0  0  0  0  0
   -2.4305   -5.3994    0.4879 H   0  0  0  0  0
    0.8849   -1.9355   -0.8971 C   0  0  1  0  0
    1.6931   -2.7380   -1.7891 O   0  0  0  0  0
    1.5042   -3.6738   -1.6032 H   0  0  0  0  0
    1.2802   -0.4612   -1.1998 C   0  0  1  0  0
    0.1725    0.6109   -0.9682 C   0  0  1  0  0
    0.6035    1.8312   -1.5893 O   0  0  0  0  0
    0.1594    2.9797   -1.0334 C   0  0  0  0  0
   -0.5701    3.0789   -0.0561 O   0  0  0  0  0
    0.7102    4.1491   -1.7916 C   0  0  0  0  0
    1.7978    4.1818   -1.6797 H   0  0  0  0  0
    0.2878    5.0738   -1.3905 H   0  0  0  0  0
    0.4331    4.0742   -2.8448 H   0  0  0  0  0
   -1.1600    0.1241   -1.6081 C   0  0  2  0  0
   -2.3956    1.0380   -1.4303 C   0  0  0  0  0
   -2.4279    1.8392   -2.1776 H   0  0  0  0  0
   -2.3828    1.5330   -0.4536 H   0  0  0  0  0
   -0.9259   -0.0044   -3.1483 C   0  0  0  0  0
   -0.2110   -0.7855   -3.4144 H   0  0  0  0  0
   -1.8323   -0.2102   -3.7122 H   0  0  0  0  0
   -0.5431    0.9353   -3.5626 H   0  0  0  0  0
    0.0478    0.8042    0.1008 H   0  0  0  0  0
    2.5823   -0.2683   -0.4000 C   0  0  1  0  0
    2.8765    1.1033   -0.1342 O   0  0  0  0  0
    3.6194    1.7486   -1.0500 C   0  0  0  0  0
    3.6682    1.5230   -2.2447 O   0  0  0  0  0
    4.4259    2.8011   -0.3919 C   0  0  0  0  0
    4.8320    2.6303    0.9314 C   0  0  0  0  0
    5.5974    3.6230    1.5394 C   0  0  0  0  0
    5.9510    4.7710    0.8269 C   0  0  0  0  0
    5.5399    4.9290   -0.4985 C   0  0  0  0  0
    4.7753    3.9402   -1.1169 C   0  0  0  0  0
    4.4609    4.0673   -2.1486 H   0  0  0  0  0
    5.8180    5.8238   -1.0484 H   0  0  0  0  0
    6.5470    5.5428    1.3042 H   0  0  0  0  0
    5.9221    3.5042    2.5692 H   0  0  0  0  0
    4.5609    1.7384    1.4901 H   0  0  0  0  0
    2.4298   -1.1337    0.8769 C   0  0  2  0  0
    1.4183   -2.2404    0.5206 C   0  0  0  0  0
    1.9321   -3.2099    0.5434 H   0  0  0  0  0
    0.6328   -2.3077    1.2757 H   0  0  0  0  0
    2.0349   -0.3639    2.1361 C   0  0  0  0  0
    2.8257    0.3341    2.4294 H   0  0  0  0  0
    1.1169    0.2116    1.9986 H   0  0  0  0  0
    1.8793   -1.0512    2.9741 H   0  0  0  0  0
    3.3986   -1.6023    1.0958 H   0  0  0  0  0
    3.3961   -0.7120   -0.9939 H   0  0  0  0  0
    1.5886   -0.3677   -2.2434 H   0  0  0  0  0
   -0.6677   -2.5739   -2.2467 H   0  0  0  0  0
   -1.6934   -1.0084    0.6873 C   0  0  0  0  0
   -0.7316   -0.8214    1.1528 H   0  0  0  0  0
   -2.1131   -1.9009    1.1671 H   0  0  0  0  0
   -2.3148   -0.1650    0.9873 H   0  0  0  0  0
   -3.3636   -2.1596   -2.6018 C   0  0  0  0  0
   -4.4919   -1.4358   -3.3509 C   0  0  0  0  0
   -4.3742   -1.6165   -4.8619 C   0  0  0  0  0
   -3.4245   -1.2250   -5.2424 H   0  0  0  0  0
   -5.1715   -1.0806   -5.3856 H   0  0  0  0  0
   -4.4389   -2.6723   -5.1384 H   0  0  0  0  0
   -5.8730   -1.8785   -2.8640 C   0  0  0  0  0
   -6.0642   -2.9237   -3.1232 H   0  0  0  0  0
   -5.9787   -1.7815   -1.7788 H   0  0  0  0  0
   -6.6607   -1.2687   -3.3184 H   0  0  0  0  0
   -2.4738   -2.2179   -3.2329 H   0  0  0  0  0
   -3.6309   -3.1969   -2.3717 H   0  0  0  0  0
   -3.6936   -1.8508   -0.5100 H   0  0  0  0  0
  1  2  2  0  0  0
  2  3  1  0  0  0
  2 74  1  0  0  0
  3  4  1  0  0  0
  3 11  1  0  0  0
  3 34  1  0  0  0
  4  5  1  0  0  0
  5  6  2  0  0  0
  5  7  1  0  0  0
  7  8  1  0  0  0
  7  9  1  0  0  0
  7 10  1  0  0  0
 11 12  1  0  0  0
 11 73  1  0  0  0
 11 85  1  0  0  0
 12 13  1  0  0  0
 12 33  1  0  0  0
 12 69  1  0  0  0
 13 14  1  0  0  0
 13 21  1  0  0  0
 13 68  1  0  0  0
 14 15  1  0  0  0
 15 16  2  0  0  0
 15 17  1  0  0  0
 17 18  1  0  0  0
 17 19  1  0  0  0
 17 20  1  0  0  0
 21 22  1  0  0  0
 21 24  1  0  0  0
 21 58  1  0  0  0
 22 23  1  0  0  0
 24 25  1  0  0  0
 24 42  1  0  0  0
 24 67  1  0  0  0
 25 26  1  0  0  0
 25 33  1  0  0  0
 25 41  1  0  0  0
 26 27  1  0  0  0
 27 28  2  0  0  0
 27 29  1  0  0  0
 29 30  1  0  0  0
 29 31  1  0  0  0
 29 32  1  0  0  0
 33 34  1  0  0  0
 33 37  1  0  0  0
 34 35  1  0  0  0
 34 36  1  0  0  0
 37 38  1  0  0  0
 37 39  1  0  0  0
 37 40  1  0  0  0
 42 43  1  0  0  0
 42 57  1  0  0  0
 42 66  1  0  0  0
 43 44  1  0  0  0
 44 45  2  0  0  0
 44 46  1  0  0  0
 46 47  2  0  0  0
 46 51  1  0  0  0
 47 48  1  0  0  0
 47 56  1  0  0  0
 48 49  2  0  0  0
 48 55  1  0  0  0
 49 50  1  0  0  0
 49 54  1  0  0  0
 50 51  2  0  0  0
 50 53  1  0  0  0
 51 52  1  0  0  0
 57 58  1  0  0  0
 57 61  1  0  0  0
 57 65  1  0  0  0
 58 59  1  0  0  0
 58 60  1  0  0  0
 61 62  1  0  0  0
 61 63  1  0  0  0
 61 64  1  0  0  0
 69 70  1  0  0  0
 69 71  1  0  0  0
 69 72  1  0  0  0
 73 74  1  0  0  0
 73 83  1  0  0  0
 73 84  1  0  0  0
 74 75  1  0  0  0
 74 79  1  0  0  0
 75 76  1  0  0  0
 75 77  1  0  0  0
 75 78  1  0  0  0
 79 80  1  0  0  0
 79 81  1  0  0  0
 79 82  1  0  0  0
M  END
> <Tumorigenic>
none

> <Score>
35.128613

> <Active/Decoy>
active

> <InChI>
InChI=1S/C33H42O10/c1-17-14-32(39)23(24(17)42-26(37)21-12-10-9-11-13-21)25(40-18(2)34)30(7)16-33(43-20(4)36)22(15-29(5,6)27(33)38)31(30,8)28(32)41-19(3)35/h9-13,17,22-25,28,39H,14-16H2,1-8H3/t17-,22-,23+,24-,25+,28-,30-,31-,32-,33-/m0/s1

> <Matching Features>
H:14924486185440016873||HBA:14924321692640012300|HBA:14924486112070016868

> <Mol. Index>
535

> <Pharmacophore Match>
Model -1

> <# Confs.>
25

> <Source Database>
Pharm-Screening-input-NANPDB_After_DataWarror.ldb

> <Pharmacophore-Fit Score>
35.13

> <formula>
C33H42O10

> <Mutagenic>
none

> <Reproductive Effective>
none

> <Irritant>
none

$$$$
15-acetoxy-gamma-eudesmol-(alpha-xylopyranoside-triacetate)
XX    ILIB03122402123D

 75 77  0  0  1  0              1 V2000
   -1.5491   -1.8018   -3.9739 O   0  0  0  0  0
   -1.7957   -1.5478   -5.1452 C   0  0  0  0  0
   -2.3048   -0.3930   -5.6268 O   0  0  0  0  0
   -2.5815    0.6349   -4.6637 C   0  0  1  0  0
   -1.3027    1.4959   -4.5313 C   0  0  2  0  0
   -1.4065    2.3240   -3.3621 O   0  0  0  0  0
   -0.1712    2.5427   -2.7097 C   0  0  0  0  0
    0.4755    1.2147   -2.2302 C   0  0  1  0  0
    1.8219    1.4525   -1.5147 C   0  0  0  0  0
    2.4779    0.1502   -1.0823 C   0  0  0  0  0
    3.7393   -0.2077   -1.4266 C   0  0  0  0  0
    4.3940   -1.4696   -0.9031 C   0  0  0  0  0
    3.6691   -2.1177    0.2660 C   0  0  0  0  0
    2.1745   -2.1570   -0.0065 C   0  0  0  0  0
    1.5814   -0.7356   -0.2009 C   0  0  2  0  0
    0.1970   -0.9125   -0.8787 C   0  0  0  0  0
   -0.4595    0.3951   -1.3245 C   0  0  0  0  0
   -0.7557    0.9792   -0.4459 H   0  0  0  0  0
   -1.3844    0.1499   -1.8595 H   0  0  0  0  0
    0.3021   -1.5486   -1.7681 H   0  0  0  0  0
   -0.4862   -1.4416   -0.2036 H   0  0  0  0  0
    1.4070   -0.0822    1.1896 C   0  0  0  0  0
    2.3713    0.0968    1.6762 H   0  0  0  0  0
    0.8164   -0.7256    1.8533 H   0  0  0  0  0
    0.8919    0.8815    1.1416 H   0  0  0  0  0
    2.0069   -2.7661   -0.9050 H   0  0  0  0  0
    1.6632   -2.6790    0.8125 H   0  0  0  0  0
    3.8774   -1.5680    1.1905 H   0  0  0  0  0
    4.0495   -3.1358    0.4159 H   0  0  0  0  0
    4.4620   -2.1876   -1.7300 H   0  0  0  0  0
    5.4216   -1.2519   -0.5867 H   0  0  0  0  0
    4.6227    0.5581   -2.3557 C   0  0  0  0  0
    5.3829    1.5007   -1.6124 O   0  0  0  0  0
    5.9566    1.9665   -2.2440 H   0  0  0  0  0
    5.3095   -0.1206   -2.8711 H   0  0  0  0  0
    4.0422    1.1019   -3.1098 H   0  0  0  0  0
    2.4711    2.0466   -2.1605 H   0  0  0  0  0
    1.6697    2.0734   -0.6236 H   0  0  0  0  0
    0.6940    0.6157   -3.1272 H   0  0  0  0  0
    0.7844    3.3463   -3.5966 C   0  0  0  0  0
    1.6935    3.6262   -3.0538 H   0  0  0  0  0
    1.0859    2.7877   -4.4890 H   0  0  0  0  0
    0.2984    4.2609   -3.9544 H   0  0  0  0  0
   -0.5311    3.3959   -1.4796 C   0  0  0  0  0
   -0.9770    4.3480   -1.7904 H   0  0  0  0  0
   -1.2810    2.9016   -0.8517 H   0  0  0  0  0
    0.3486    3.6141   -0.8650 H   0  0  0  0  0
   -1.0582    2.2300   -5.7286 O   0  0  0  0  0
   -2.1328    3.1161   -6.0838 C   0  0  0  0  0
   -3.4346    2.3566   -6.3296 C   0  0  1  0  0
   -3.2505    1.5527   -7.5053 O   0  0  0  0  0
   -3.5510    2.1357   -8.6864 C   0  0  0  0  0
   -3.9625    3.2760   -8.8503 O   0  0  0  0  0
   -3.2893    1.1708   -9.8035 C   0  0  0  0  0
   -3.6574    1.5948  -10.7412 H   0  0  0  0  0
   -3.8206    0.2341   -9.6191 H   0  0  0  0  0
   -2.2151    0.9917   -9.8933 H   0  0  0  0  0
   -3.7924    1.4692   -5.1275 C   0  0  2  0  0
   -4.2228    2.3338   -4.0656 O   0  0  0  0  0
   -5.1513    1.8340   -3.2207 C   0  0  0  0  0
   -5.6564    0.7211   -3.2727 O   0  0  0  0  0
   -5.4757    2.8526   -2.1706 C   0  0  0  0  0
   -6.3194    2.4999   -1.5708 H   0  0  0  0  0
   -5.7620    3.7967   -2.6415 H   0  0  0  0  0
   -4.6126    2.9964   -1.5167 H   0  0  0  0  0
   -4.6141    0.7999   -5.4144 H   0  0  0  0  0
   -4.2286    3.0949   -6.5102 H   0  0  0  0  0
   -2.2525    3.8726   -5.3005 H   0  0  0  0  0
   -1.8219    3.6319   -6.9975 H   0  0  0  0  0
   -0.4547    0.8165   -4.4002 H   0  0  0  0  0
   -2.7951    0.1804   -3.6864 H   0  0  0  0  0
   -1.5819   -2.5114   -6.2735 C   0  0  0  0  0
   -1.0475   -3.3913   -5.9028 H   0  0  0  0  0
   -0.9736   -2.0444   -7.0519 H   0  0  0  0  0
   -2.5464   -2.8269   -6.6779 H   0  0  0  0  0
  1  2  2  0  0  0
  2  3  1  0  0  0
  2 72  1  0  0  0
  3  4  1  0  0  0
  4  5  1  0  0  0
  4 58  1  0  0  0
  4 71  1  0  0  0
  5  6  1  0  0  0
  5 48  1  0  0  0
  5 70  1  0  0  0
  6  7  1  0  0  0
  7  8  1  0  0  0
  7 40  1  0  0  0
  7 44  1  0  0  0
  8  9  1  0  0  0
  8 17  1  0  0  0
  8 39  1  0  0  0
  9 10  1  0  0  0
  9 37  1  0  0  0
  9 38  1  0  0  0
 10 11  2  0  0  0
 10 15  1  0  0  0
 11 12  1  0  0  0
 11 32  1  0  0  0
 12 13  1  0  0  0
 12 30  1  0  0  0
 12 31  1  0  0  0
 13 14  1  0  0  0
 13 28  1  0  0  0
 13 29  1  0  0  0
 14 15  1  0  0  0
 14 26  1  0  0  0
 14 27  1  0  0  0
 15 16  1  0  0  0
 15 22  1  0  0  0
 16 17  1  0  0  0
 16 20  1  0  0  0
 16 21  1  0  0  0
 17 18  1  0  0  0
 17 19  1  0  0  0
 22 23  1  0  0  0
 22 24  1  0  0  0
 22 25  1  0  0  0
 32 33  1  0  0  0
 32 35  1  0  0  0
 32 36  1  0  0  0
 33 34  1  0  0  0
 40 41  1  0  0  0
 40 42  1  0  0  0
 40 43  1  0  0  0
 44 45  1  0  0  0
 44 46  1  0  0  0
 44 47  1  0  0  0
 48 49  1  0  0  0
 49 50  1  0  0  0
 49 68  1  0  0  0
 49 69  1  0  0  0
 50 51  1  0  0  0
 50 58  1  0  0  0
 50 67  1  0  0  0
 51 52  1  0  0  0
 52 53  2  0  0  0
 52 54  1  0  0  0
 54 55  1  0  0  0
 54 56  1  0  0  0
 54 57  1  0  0  0
 58 59  1  0  0  0
 58 66  1  0  0  0
 59 60  1  0  0  0
 60 61  2  0  0  0
 60 62  1  0  0  0
 62 63  1  0  0  0
 62 64  1  0  0  0
 62 65  1  0  0  0
 72 73  1  0  0  0
 72 74  1  0  0  0
 72 75  1  0  0  0
M  END
> <Tumorigenic>
none

> <Score>
35.105305

> <Active/Decoy>
active

> <InChI>
InChI=1S/C26H40O9/c1-15(28)32-21-14-31-24(23(34-17(3)30)22(21)33-16(2)29)35-25(4,5)19-9-11-26(6)10-7-8-18(13-27)20(26)12-19/h19,21-24,27H,7-14H2,1-6H3/t19-,21-,22+,23-,24+,26-/m1/s1

> <Matching Features>
H:14924486185440016873||HBA:14924321692640012300|HBA:14924486112070016868

> <Mol. Index>
1165

> <Pharmacophore Match>
Model -1

> <# Confs.>
25

> <Source Database>
Pharm-Screening-input-NANPDB_After_DataWarror.ldb

> <Pharmacophore-Fit Score>
35.11

> <formula>
C26H40O9

> <Mutagenic>
none

> <Reproductive Effective>
none

> <Irritant>
none

$$$$
benzyl alcohol-O-beta-xylopyranosyl-(1?2)-beta-glucopyranoside
XX    ILIB03122402123D

 54 56  0  0  1  0              1 V2000
   -1.8371   -0.7703   -1.2795 O   0  0  0  0  0
   -0.9472    0.3411   -1.1745 C   0  0  2  0  0
   -1.3171    1.2747   -0.1738 O   0  0  0  0  0
   -1.3759    0.7106    1.1346 C   0  0  0  0  0
   -0.0117    0.2054    1.4886 C   0  0  0  0  0
    0.9131    1.0558    2.1097 C   0  0  0  0  0
    2.1907    0.5988    2.4384 C   0  0  0  0  0
    2.5593   -0.7122    2.1464 C   0  0  0  0  0
    1.6537   -1.5676    1.5247 C   0  0  0  0  0
    0.3760   -1.1116    1.1952 C   0  0  0  0  0
   -0.3152   -1.7921    0.7043 H   0  0  0  0  0
    1.9406   -2.5889    1.2929 H   0  0  0  0  0
    3.5539   -1.0674    2.4031 H   0  0  0  0  0
    2.8979    1.2672    2.9204 H   0  0  0  0  0
    0.6456    2.0834    2.3431 H   0  0  0  0  0
   -2.1046   -0.1091    1.1683 H   0  0  0  0  0
   -1.6925    1.4726    1.8579 H   0  0  0  0  0
   -0.8247    1.1025   -2.5179 C   0  0  1  0  0
   -0.3096    0.2420   -3.5306 O   0  0  0  0  0
    0.9836   -0.2840   -3.2401 C   0  0  2  0  0
    0.9612   -1.0535   -2.0345 O   0  0  0  0  0
    2.2344   -1.6054   -1.7212 C   0  0  0  0  0
    3.2484   -0.5019   -1.4535 C   0  0  1  0  0
    4.5309   -1.0751   -1.2279 O   0  0  0  0  0
    4.4528   -1.6815   -0.4728 H   0  0  0  0  0
    3.3288    0.4509   -2.6427 C   0  0  2  0  0
    4.1070    1.5946   -2.2849 O   0  0  0  0  0
    3.6612    2.0371   -1.5421 H   0  0  0  0  0
    1.9373    0.9044   -3.0860 C   0  0  1  0  0
    2.0416    1.5716   -4.3430 O   0  0  0  0  0
    2.6617    2.3109   -4.2288 H   0  0  0  0  0
    1.5246    1.6287   -2.3724 H   0  0  0  0  0
    3.8595   -0.0232   -3.4781 H   0  0  0  0  0
    2.9698    0.0591   -0.5532 H   0  0  0  0  0
    2.5651   -2.2718   -2.5280 H   0  0  0  0  0
    2.1231   -2.2340   -0.8305 H   0  0  0  0  0
    1.2951   -0.9157   -4.0833 H   0  0  0  0  0
   -2.1967    1.6081   -2.9901 C   0  0  2  0  0
   -2.3390    2.9728   -2.5895 O   0  0  0  0  0
   -3.1873    3.2950   -2.9385 H   0  0  0  0  0
   -3.3604    0.8068   -2.3904 C   0  0  1  0  0
   -4.4696    0.8768   -3.2819 O   0  0  0  0  0
   -4.7115    1.8129   -3.3774 H   0  0  0  0  0
   -2.9513   -0.6518   -2.1573 C   0  0  2  0  0
   -4.0629   -1.4996   -1.5666 C   0  0  0  0  0
   -4.3939   -1.0289   -0.2705 O   0  0  0  0  0
   -5.1058   -1.5975    0.0662 H   0  0  0  0  0
   -3.7628   -2.5510   -1.5012 H   0  0  0  0  0
   -4.9551   -1.4520   -2.2006 H   0  0  0  0  0
   -2.6754   -1.0981   -3.1217 H   0  0  0  0  0
   -3.6816    1.2557   -1.4426 H   0  0  0  0  0
   -2.2458    1.5978   -4.0857 H   0  0  0  0  0
   -0.1497    1.9613   -2.4012 H   0  0  0  0  0
    0.0365   -0.0627   -0.9104 H   0  0  0  0  0
  1  2  1  0  0  0
  1 44  1  0  0  0
  2  3  1  0  0  0
  2 18  1  0  0  0
  2 54  1  0  0  0
  3  4  1  0  0  0
  4  5  1  0  0  0
  4 16  1  0  0  0
  4 17  1  0  0  0
  5  6  2  0  0  0
  5 10  1  0  0  0
  6  7  1  0  0  0
  6 15  1  0  0  0
  7  8  2  0  0  0
  7 14  1  0  0  0
  8  9  1  0  0  0
  8 13  1  0  0  0
  9 10  2  0  0  0
  9 12  1  0  0  0
 10 11  1  0  0  0
 18 19  1  0  0  0
 18 38  1  0  0  0
 18 53  1  0  0  0
 19 20  1  0  0  0
 20 21  1  0  0  0
 20 29  1  0  0  0
 20 37  1  0  0  0
 21 22  1  0  0  0
 22 23  1  0  0  0
 22 35  1  0  0  0
 22 36  1  0  0  0
 23 24  1  0  0  0
 23 26  1  0  0  0
 23 34  1  0  0  0
 24 25  1  0  0  0
 26 27  1  0  0  0
 26 29  1  0  0  0
 26 33  1  0  0  0
 27 28  1  0  0  0
 29 30  1  0  0  0
 29 32  1  0  0  0
 30 31  1  0  0  0
 38 39  1  0  0  0
 38 41  1  0  0  0
 38 52  1  0  0  0
 39 40  1  0  0  0
 41 42  1  0  0  0
 41 44  1  0  0  0
 41 51  1  0  0  0
 42 43  1  0  0  0
 44 45  1  0  0  0
 44 50  1  0  0  0
 45 46  1  0  0  0
 45 48  1  0  0  0
 45 49  1  0  0  0
 46 47  1  0  0  0
M  END
> <Tumorigenic>
none

> <Score>
35.093822

> <Active/Decoy>
active

> <InChI>
InChI=1S/C18H26O10/c19-6-11-13(22)14(23)16(28-17-15(24)12(21)10(20)8-26-17)18(27-11)25-7-9-4-2-1-3-5-9/h1-5,10-24H,6-8H2/t10-,11+,12+,13+,14-,15-,16+,17+,18+/m1/s1

> <Matching Features>
H:14924486185440016873||HBA:14924321692640012300|HBA:14924486112070016868

> <Mol. Index>
1367

> <Pharmacophore Match>
Model -1

> <# Confs.>
10

> <Source Database>
Pharm-Screening-input-NANPDB_After_DataWarror.ldb

> <Pharmacophore-Fit Score>
35.09

> <formula>
C18H26O10

> <Mutagenic>
none

> <Reproductive Effective>
none

> <Irritant>
none

$$$$
trachelogenin
XX    ILIB03122402123D

 52 54  0  0  1  0              1 V2000
    4.8395   -1.0881   -0.9633 O   0  0  0  0  0
    3.8292   -0.6742   -1.5122 C   0  0  0  0  0
    3.0937   -1.4052   -2.4014 O   0  0  0  0  0
    2.0612   -0.5870   -2.9497 C   0  0  0  0  0
    1.8008    0.4992   -1.9162 C   0  0  1  0  0
    3.2253    0.7069   -1.3449 C   0  0  2  0  0
    4.0194    1.5415   -2.1755 O   0  0  0  0  0
    4.8962    1.6317   -1.7661 H   0  0  0  0  0
    3.3018    1.1390    0.1156 C   0  0  0  0  0
    2.4753    0.2820    1.0327 C   0  0  0  0  0
    3.0197   -0.8599    1.6500 C   0  0  0  0  0
    2.2442   -1.6511    2.5059 C   0  0  0  0  0
    2.6804   -2.7748    3.1512 O   0  0  0  0  0
    4.0380   -3.1316    2.9023 C   0  0  0  0  0
    4.7226   -2.3546    3.2580 H   0  0  0  0  0
    4.2022   -3.3440    1.8407 H   0  0  0  0  0
    4.2501   -4.0469    3.4639 H   0  0  0  0  0
    0.9145   -1.2875    2.7394 C   0  0  0  0  0
    0.1096   -2.0231    3.5658 O   0  0  0  0  0
    0.6321   -2.7668    3.9141 H   0  0  0  0  0
    0.3609   -0.1598    2.1392 C   0  0  0  0  0
    1.1402    0.6227    1.2897 C   0  0  0  0  0
    0.6976    1.5019    0.8289 H   0  0  0  0  0
   -0.6721    0.1174    2.3282 H   0  0  0  0  0
    4.0583   -1.1078    1.4477 H   0  0  0  0  0
    4.3457    1.0971    0.4514 H   0  0  0  0  0
    2.9932    2.1877    0.2160 H   0  0  0  0  0
    1.1209    1.6831   -2.5782 C   0  0  0  0  0
   -0.3546    1.4678   -2.7796 C   0  0  0  0  0
   -1.2752    1.7993   -1.7811 C   0  0  0  0  0
   -2.6399    1.5627   -1.9768 C   0  0  0  0  0
   -3.4930    1.9383   -0.9793 O   0  0  0  0  0
   -3.8085    0.9212   -0.0318 C   0  0  0  0  0
   -2.9149    0.5944    0.5107 H   0  0  0  0  0
   -4.3075    0.0737   -0.5138 H   0  0  0  0  0
   -4.5038    1.3484    0.6968 H   0  0  0  0  0
   -3.1146    1.0260   -3.1813 C   0  0  0  0  0
   -4.4685    0.8809   -3.2924 O   0  0  0  0  0
   -4.9247    0.3331   -4.5255 C   0  0  0  0  0
   -4.5495   -0.6848   -4.6685 H   0  0  0  0  0
   -4.6498    0.9760   -5.3697 H   0  0  0  0  0
   -6.0169    0.2854   -4.4854 H   0  0  0  0  0
   -2.1910    0.6867   -4.1743 C   0  0  0  0  0
   -0.8233    0.9015   -3.9714 C   0  0  0  0  0
   -0.1250    0.6272   -4.7579 H   0  0  0  0  0
   -2.4982    0.2564   -5.1218 H   0  0  0  0  0
   -0.9325    2.2363   -0.8458 H   0  0  0  0  0
    1.2443    2.5746   -1.9303 H   0  0  0  0  0
    1.5956    1.9284   -3.5218 H   0  0  0  0  0
    1.1712    0.0600   -1.1353 H   0  0  0  0  0
    2.4042   -0.1945   -3.9138 H   0  0  0  0  0
    1.1680   -1.1968   -3.1158 H   0  0  0  0  0
  1  2  2  0  0  0
  2  3  1  0  0  0
  2  6  1  0  0  0
  3  4  1  0  0  0
  4  5  1  0  0  0
  4 51  1  0  0  0
  4 52  1  0  0  0
  5  6  1  0  0  0
  5 28  1  0  0  0
  5 50  1  0  0  0
  6  7  1  0  0  0
  6  9  1  0  0  0
  7  8  1  0  0  0
  9 10  1  0  0  0
  9 26  1  0  0  0
  9 27  1  0  0  0
 10 11  2  0  0  0
 10 22  1  0  0  0
 11 12  1  0  0  0
 11 25  1  0  0  0
 12 13  1  0  0  0
 12 18  2  0  0  0
 13 14  1  0  0  0
 14 15  1  0  0  0
 14 16  1  0  0  0
 14 17  1  0  0  0
 18 19  1  0  0  0
 18 21  1  0  0  0
 19 20  1  0  0  0
 21 22  2  0  0  0
 21 24  1  0  0  0
 22 23  1  0  0  0
 28 29  1  0  0  0
 28 48  1  0  0  0
 28 49  1  0  0  0
 29 30  2  0  0  0
 29 44  1  0  0  0
 30 31  1  0  0  0
 30 47  1  0  0  0
 31 32  1  0  0  0
 31 37  2  0  0  0
 32 33  1  0  0  0
 33 34  1  0  0  0
 33 35  1  0  0  0
 33 36  1  0  0  0
 37 38  1  0  0  0
 37 43  1  0  0  0
 38 39  1  0  0  0
 39 40  1  0  0  0
 39 41  1  0  0  0
 39 42  1  0  0  0
 43 44  2  0  0  0
 43 46  1  0  0  0
 44 45  1  0  0  0
M  END
> <Tumorigenic>
none

> <Score>
35.080605

> <Active/Decoy>
active

> <InChI>
InChI=1S/C21H24O7/c1-25-17-7-5-13(9-19(17)27-3)8-15-12-28-20(23)21(15,24)11-14-4-6-16(22)18(10-14)26-2/h4-7,9-10,15,22,24H,8,11-12H2,1-3H3/t15-,21-/m0/s1

> <Matching Features>
H:14924486185440016873||HBA:14924321692640012300|HBA:14924486112070016868

> <Mol. Index>
266

> <Pharmacophore Match>
Model -1

> <# Confs.>
25

> <Source Database>
Pharm-Screening-input-NANPDB_After_DataWarror.ldb

> <Pharmacophore-Fit Score>
35.08

> <formula>
C21H24O7

> <Mutagenic>
none

> <Reproductive Effective>
none

> <Irritant>
none

$$$$
13,14,15,16-tetranorlabdane-8alpha,12,14-triol
XX    ILIB03122402123D

 49 50  0  0  1  0              1 V2000
    2.1945   -1.2888   -0.4198 O   0  0  0  0  0
    1.0739   -0.4786   -0.0344 C   0  0  1  0  0
    1.0817    0.7736   -0.9646 C   0  0  1  0  0
   -0.2783    1.6275   -0.9379 C   0  0  2  0  0
   -1.4502    0.6231   -1.2777 C   0  0  2  0  0
   -2.8515    1.2595   -1.6072 C   0  0  2  0  0
   -3.7538    0.2014   -2.2182 C   0  0  0  0  0
   -4.6808    0.7872   -3.1187 O   0  0  0  0  0
   -5.2052    1.4339   -2.6170 H   0  0  0  0  0
   -4.3070   -0.3338   -1.4392 H   0  0  0  0  0
   -3.1677   -0.5487   -2.7601 H   0  0  0  0  0
   -2.6639    2.3789   -2.6661 C   0  0  0  0  0
   -1.5662    3.3819   -2.3422 C   0  0  0  0  0
   -0.2260    2.7041   -2.0586 C   0  0  0  0  0
    0.1238    2.2439   -2.9923 H   0  0  0  0  0
    0.5025    3.4834   -1.8047 H   0  0  0  0  0
   -1.8713    4.0158   -1.5041 H   0  0  0  0  0
   -1.4428    4.0586   -3.1954 H   0  0  0  0  0
   -2.4213    1.9186   -3.6336 H   0  0  0  0  0
   -3.6025    2.9268   -2.8170 H   0  0  0  0  0
   -3.5870    1.8196   -0.3734 C   0  0  0  0  0
   -4.5945    2.1628   -0.6358 H   0  0  0  0  0
   -3.7020    1.0582    0.4044 H   0  0  0  0  0
   -3.0871    2.6796    0.0695 H   0  0  0  0  0
   -1.4944   -0.5424   -0.2654 C   0  0  0  0  0
   -0.1858   -1.3277   -0.2729 C   0  0  0  0  0
   -0.0886   -1.8358   -1.2426 H   0  0  0  0  0
   -0.2425   -2.1412    0.4622 H   0  0  0  0  0
   -1.7162   -0.1936    0.7466 H   0  0  0  0  0
   -2.2901   -1.2479   -0.5214 H   0  0  0  0  0
   -1.1506    0.1567   -2.2312 H   0  0  0  0  0
   -0.4862    2.3543    0.4115 C   0  0  0  0  0
   -0.9721    1.7321    1.1634 H   0  0  0  0  0
   -1.1016    3.2503    0.3177 H   0  0  0  0  0
    0.4467    2.7122    0.8435 H   0  0  0  0  0
    2.3799    1.5663   -0.9786 C   0  0  0  0  0
    3.5838    0.7356   -1.4171 C   0  0  0  0  0
    4.5545    1.5598   -2.0441 O   0  0  0  0  0
    4.1264    1.9870   -2.8056 H   0  0  0  0  0
    3.2748   -0.0445   -2.1210 H   0  0  0  0  0
    4.0547    0.2268   -0.5692 H   0  0  0  0  0
    2.5668    1.9608    0.0429 H   0  0  0  0  0
    2.2571    2.4204   -1.6338 H   0  0  0  0  0
    1.0892    0.3407   -1.9773 H   0  0  0  0  0
    1.2589   -0.2078    1.4682 C   0  0  0  0  0
    0.4621    0.3869    1.9103 H   0  0  0  0  0
    1.2921   -1.1554    2.0208 H   0  0  0  0  0
    2.2191    0.2716    1.6763 H   0  0  0  0  0
    2.1741   -2.1059    0.1072 H   0  0  0  0  0
  1  2  1  0  0  0
  1 49  1  0  0  0
  2  3  1  0  0  0
  2 26  1  0  0  0
  2 45  1  0  0  0
  3  4  1  0  0  0
  3 36  1  0  0  0
  3 44  1  0  0  0
  4  5  1  0  0  0
  4 14  1  0  0  0
  4 32  1  0  0  0
  5  6  1  0  0  0
  5 25  1  0  0  0
  5 31  1  0  0  0
  6  7  1  0  0  0
  6 12  1  0  0  0
  6 21  1  0  0  0
  7  8  1  0  0  0
  7 10  1  0  0  0
  7 11  1  0  0  0
  8  9  1  0  0  0
 12 13  1  0  0  0
 12 19  1  0  0  0
 12 20  1  0  0  0
 13 14  1  0  0  0
 13 17  1  0  0  0
 13 18  1  0  0  0
 14 15  1  0  0  0
 14 16  1  0  0  0
 21 22  1  0  0  0
 21 23  1  0  0  0
 21 24  1  0  0  0
 25 26  1  0  0  0
 25 29  1  0  0  0
 25 30  1  0  0  0
 26 27  1  0  0  0
 26 28  1  0  0  0
 32 33  1  0  0  0
 32 34  1  0  0  0
 32 35  1  0  0  0
 36 37  1  0  0  0
 36 42  1  0  0  0
 36 43  1  0  0  0
 37 38  1  0  0  0
 37 40  1  0  0  0
 37 41  1  0  0  0
 38 39  1  0  0  0
 45 46  1  0  0  0
 45 47  1  0  0  0
 45 48  1  0  0  0
M  END
> <Tumorigenic>
none

> <Score>
35.06905

> <Active/Decoy>
active

> <InChI>
InChI=1S/C16H30O3/c1-14(11-18)7-4-8-15(2)12(14)5-9-16(3,19)13(15)6-10-17/h12-13,17-19H,4-11H2,1-3H3/t12-,13+,14-,15-,16+/m0/s1

> <Matching Features>
H:14924486185440016873||HBA:14924321692640012300|HBA:14924486112070016868

> <Mol. Index>
1086

> <Pharmacophore Match>
Model -1

> <# Confs.>
19

> <Source Database>
Pharm-Screening-input-NANPDB_After_DataWarror.ldb

> <Pharmacophore-Fit Score>
35.07

> <formula>
C16H30O3

> <Mutagenic>
none

> <Reproductive Effective>
none

> <Irritant>
none

$$$$
2alpha-acetyloxy-4beta-hydroxy-6alpha-p-hydroxybenzoyloxy-10beta-benzoyloxy-dauc-8-ene
XX    ILIB03122402123D

 75 78  0  0  1  0              1 V2000
   -2.1652   -1.1937    0.1612 O   0  0  0  0  0
   -1.1957   -1.6935    0.7099 C   0  0  0  0  0
    0.0232   -1.1302    0.8820 O   0  0  0  0  0
    0.1879    0.1949    0.3764 C   0  0  2  0  0
    1.6786    0.3859   -0.0353 C   0  0  1  0  0
    2.1157   -0.5899   -1.1791 C   0  0  1  0  0
    1.0732   -1.4875   -1.5905 O   0  0  0  0  0
    1.4659   -2.6925   -2.0587 C   0  0  0  0  0
    2.6179   -3.0891   -2.1658 O   0  0  0  0  0
    0.2607   -3.5027   -2.4291 C   0  0  0  0  0
   -0.3236   -3.7244   -1.5320 H   0  0  0  0  0
    0.5815   -4.4454   -2.8815 H   0  0  0  0  0
   -0.3436   -2.9601   -3.1607 H   0  0  0  0  0
    2.5092    0.2933   -2.3642 C   0  0  0  0  0
    3.0821    1.5505   -1.7246 C   0  0  2  0  0
    4.3460    1.1851   -1.1356 O   0  0  0  0  0
    4.6907    1.9657   -0.6694 H   0  0  0  0  0
    2.0901    1.8358   -0.5445 C   0  0  1  0  0
    0.9224    2.7916   -0.8879 C   0  0  1  0  0
   -0.0274    2.1768   -1.7717 O   0  0  0  0  0
   -0.6907    3.0018   -2.6109 C   0  0  0  0  0
   -0.2829    4.0520   -3.0819 O   0  0  0  0  0
   -2.0278    2.4508   -2.9022 C   0  0  0  0  0
   -2.6212    2.7240   -4.1416 C   0  0  0  0  0
   -3.8826    2.2098   -4.4440 C   0  0  0  0  0
   -4.5458    1.4214   -3.5066 C   0  0  0  0  0
   -5.7807    0.8982   -3.7769 O   0  0  0  0  0
   -6.0416    1.1694   -4.6736 H   0  0  0  0  0
   -3.9677    1.1458   -2.2714 C   0  0  0  0  0
   -2.7066    1.6616   -1.9664 C   0  0  0  0  0
   -2.2783    1.4311   -0.9954 H   0  0  0  0  0
   -4.4895    0.5313   -1.5431 H   0  0  0  0  0
   -4.3341    2.4284   -5.4081 H   0  0  0  0  0
   -2.1172    3.3357   -4.8840 H   0  0  0  0  0
    0.2400    3.3826    0.3613 C   0  0  0  0  0
   -0.2989    2.4852    1.4440 C   0  0  0  0  0
   -0.3170    1.1429    1.4480 C   0  0  0  0  0
   -0.7598    0.6573    2.3173 H   0  0  0  0  0
   -0.8716    3.2381    2.6211 C   0  0  0  0  0
   -1.2657    2.5725    3.3957 H   0  0  0  0  0
   -1.6912    3.8851    2.2933 H   0  0  0  0  0
   -0.0996    3.8616    3.0836 H   0  0  0  0  0
    0.9805    4.0482    0.8357 H   0  0  0  0  0
   -0.5892    4.0228    0.0317 H   0  0  0  0  0
    1.3436    3.6635   -1.4028 H   0  0  0  0  0
    2.6669    2.3406    0.2441 H   0  0  0  0  0
    3.3842    2.6786   -2.7292 C   0  0  0  0  0
    4.0167    3.9113   -2.0779 C   0  0  0  0  0
    4.9806    3.6769   -1.6169 H   0  0  0  0  0
    4.1883    4.6927   -2.8256 H   0  0  0  0  0
    3.3635    4.3345   -1.3082 H   0  0  0  0  0
    4.2800    2.1781   -3.8648 C   0  0  0  0  0
    3.8318    1.3110   -4.3613 H   0  0  0  0  0
    5.2724    1.8900   -3.5023 H   0  0  0  0  0
    4.4161    2.9591   -4.6197 H   0  0  0  0  0
    2.4331    2.9920   -3.1772 H   0  0  0  0  0
    3.2429   -0.2288   -2.9889 H   0  0  0  0  0
    1.6351    0.5000   -2.9911 H   0  0  0  0  0
    2.9875   -1.1791   -0.8619 H   0  0  0  0  0
    2.5672    0.0561    1.2170 C   0  0  0  0  0
    3.6348    0.1429    0.9962 H   0  0  0  0  0
    2.3588    0.7335    2.0517 H   0  0  0  0  0
    2.4018   -0.9686    1.5657 H   0  0  0  0  0
   -0.4671    0.2938   -0.4951 H   0  0  0  0  0
   -1.2033   -3.0533    1.2833 C   0  0  0  0  0
   -2.3651   -3.8210    1.2038 C   0  0  0  0  0
   -2.3631   -5.1090    1.7338 C   0  0  0  0  0
   -1.2098   -5.6191    2.3335 C   0  0  0  0  0
   -0.0525   -4.8415    2.4044 C   0  0  0  0  0
   -0.0429   -3.5504    1.8751 C   0  0  0  0  0
    0.8608   -2.9522    1.9310 H   0  0  0  0  0
    0.8424   -5.2419    2.8709 H   0  0  0  0  0
   -1.2124   -6.6232    2.7456 H   0  0  0  0  0
   -3.2593   -5.7212    1.6798 H   0  0  0  0  0
   -3.2651   -3.4303    0.7376 H   0  0  0  0  0
  1  2  2  0  0  0
  2  3  1  0  0  0
  2 65  1  0  0  0
  3  4  1  0  0  0
  4  5  1  0  0  0
  4 37  1  0  0  0
  4 64  1  0  0  0
  5  6  1  0  0  0
  5 18  1  0  0  0
  5 60  1  0  0  0
  6  7  1  0  0  0
  6 14  1  0  0  0
  6 59  1  0  0  0
  7  8  1  0  0  0
  8  9  2  0  0  0
  8 10  1  0  0  0
 10 11  1  0  0  0
 10 12  1  0  0  0
 10 13  1  0  0  0
 14 15  1  0  0  0
 14 57  1  0  0  0
 14 58  1  0  0  0
 15 16  1  0  0  0
 15 18  1  0  0  0
 15 47  1  0  0  0
 16 17  1  0  0  0
 18 19  1  0  0  0
 18 46  1  0  0  0
 19 20  1  0  0  0
 19 35  1  0  0  0
 19 45  1  0  0  0
 20 21  1  0  0  0
 21 22  2  0  0  0
 21 23  1  0  0  0
 23 24  2  0  0  0
 23 30  1  0  0  0
 24 25  1  0  0  0
 24 34  1  0  0  0
 25 26  2  0  0  0
 25 33  1  0  0  0
 26 27  1  0  0  0
 26 29  1  0  0  0
 27 28  1  0  0  0
 29 30  2  0  0  0
 29 32  1  0  0  0
 30 31  1  0  0  0
 35 36  1  0  0  0
 35 43  1  0  0  0
 35 44  1  0  0  0
 36 37  2  0  0  0
 36 39  1  0  0  0
 37 38  1  0  0  0
 39 40  1  0  0  0
 39 41  1  0  0  0
 39 42  1  0  0  0
 47 48  1  0  0  0
 47 52  1  0  0  0
 47 56  1  0  0  0
 48 49  1  0  0  0
 48 50  1  0  0  0
 48 51  1  0  0  0
 52 53  1  0  0  0
 52 54  1  0  0  0
 52 55  1  0  0  0
 60 61  1  0  0  0
 60 62  1  0  0  0
 60 63  1  0  0  0
 65 66  2  0  0  0
 65 70  1  0  0  0
 66 67  1  0  0  0
 66 75  1  0  0  0
 67 68  2  0  0  0
 67 74  1  0  0  0
 68 69  1  0  0  0
 68 73  1  0  0  0
 69 70  2  0  0  0
 69 72  1  0  0  0
 70 71  1  0  0  0
M  END
> <Tumorigenic>
none

> <Score>
35.06295

> <Active/Decoy>
active

> <InChI>
InChI=1S/C31H36O8/c1-18(2)31(36)17-26(37-20(4)32)30(5)25(39-29(35)21-9-7-6-8-10-21)16-19(3)15-24(27(30)31)38-28(34)22-11-13-23(33)14-12-22/h6-14,16,18,24-27,33,36H,15,17H2,1-5H3/t24-,25-,26-,27-,30-,31+/m0/s1

> <Matching Features>
H:14924486185440016873||HBA:14924321692640012300|HBA:14924486112070016868

> <Mol. Index>
930

> <Pharmacophore Match>
Model -1

> <# Confs.>
25

> <Source Database>
Pharm-Screening-input-NANPDB_After_DataWarror.ldb

> <Pharmacophore-Fit Score>
35.06

> <formula>
C31H36O8

> <Mutagenic>
none

> <Reproductive Effective>
none

> <Irritant>
none

$$$$
teucrol
XX    ILIB03122402123D

 39 40  0  0  1  0              1 V2000
    3.6817    1.6102   -2.4678 O   0  0  0  0  0
    2.6644    1.5927   -1.7992 C   0  0  0  0  0
    2.5802    1.6512   -0.4544 O   0  0  0  0  0
    3.8127    1.7435    0.2685 C   0  0  0  0  0
    3.5196    1.7833    1.7621 C   0  0  0  0  0
    2.7851    0.5823    2.2708 C   0  0  0  0  0
    1.3833    0.5609    2.2780 C   0  0  0  0  0
    0.6932   -0.5607    2.7449 C   0  0  0  0  0
   -0.6714   -0.5147    2.6917 O   0  0  0  0  0
   -1.0301   -1.4065    2.8236 H   0  0  0  0  0
    1.3948   -1.6637    3.2256 C   0  0  0  0  0
    0.7804   -2.7737    3.7270 O   0  0  0  0  0
   -0.1602   -2.5885    3.8756 H   0  0  0  0  0
    2.7878   -1.6594    3.2176 C   0  0  0  0  0
    3.4788   -0.5425    2.7431 C   0  0  0  0  0
    4.5659   -0.5550    2.7500 H   0  0  0  0  0
    3.3443   -2.5152    3.5854 H   0  0  0  0  0
    0.8241    1.4180    1.9090 H   0  0  0  0  0
    4.4540    1.9190    2.3240 H   0  0  0  0  0
    2.9130    2.6803    1.9780 H   0  0  0  0  0
    4.4559    0.8729    0.0448 H   0  0  0  0  0
    4.3587    2.6428   -0.0265 H   0  0  0  0  0
    1.3218    1.5039   -2.4219 C   0  0  0  0  0
    0.1763    1.4821   -1.7234 C   0  0  0  0  0
   -1.1580    1.3873   -2.3238 C   0  0  0  0  0
   -2.1815    0.7503   -1.5997 C   0  0  0  0  0
   -3.4708    0.6455   -2.1263 C   0  0  0  0  0
   -4.4076    0.0284   -1.3452 O   0  0  0  0  0
   -5.2912    0.1661   -1.7194 H   0  0  0  0  0
   -3.7539    1.1640   -3.3869 C   0  0  0  0  0
   -4.9835    1.0756   -3.9732 O   0  0  0  0  0
   -5.5438    0.4685   -3.4677 H   0  0  0  0  0
   -2.7528    1.8032   -4.1140 C   0  0  0  0  0
   -1.4619    1.9120   -3.5864 C   0  0  0  0  0
   -0.7057    2.4155   -4.1839 H   0  0  0  0  0
   -2.9631    2.2151   -5.0961 H   0  0  0  0  0
   -1.9773    0.3368   -0.6129 H   0  0  0  0  0
    0.1914    1.5313   -0.6373 H   0  0  0  0  0
    1.3278    1.4498   -3.5063 H   0  0  0  0  0
  1  2  2  0  0  0
  2  3  1  0  0  0
  2 23  1  0  0  0
  3  4  1  0  0  0
  4  5  1  0  0  0
  4 21  1  0  0  0
  4 22  1  0  0  0
  5  6  1  0  0  0
  5 19  1  0  0  0
  5 20  1  0  0  0
  6  7  2  0  0  0
  6 15  1  0  0  0
  7  8  1  0  0  0
  7 18  1  0  0  0
  8  9  1  0  0  0
  8 11  2  0  0  0
  9 10  1  0  0  0
 11 12  1  0  0  0
 11 14  1  0  0  0
 12 13  1  0  0  0
 14 15  2  0  0  0
 14 17  1  0  0  0
 15 16  1  0  0  0
 23 24  2  0  0  0
 23 39  1  0  0  0
 24 25  1  0  0  0
 24 38  1  0  0  0
 25 26  2  0  0  0
 25 34  1  0  0  0
 26 27  1  0  0  0
 26 37  1  0  0  0
 27 28  1  0  0  0
 27 30  2  0  0  0
 28 29  1  0  0  0
 30 31  1  0  0  0
 30 33  1  0  0  0
 31 32  1  0  0  0
 33 34  2  0  0  0
 33 36  1  0  0  0
 34 35  1  0  0  0
M  END
> <Tumorigenic>
none

> <Score>
35.047054

> <Active/Decoy>
active

> <InChI>
InChI=1S/C17H16O6/c18-13-4-1-11(9-15(13)20)3-6-17(22)23-8-7-12-2-5-14(19)16(21)10-12/h1-6,9-10,18-21H,7-8H2/b6-3+

> <Matching Features>
H:14924486185440016873||HBA:14924321692640012300|HBA:14924486112070016868

> <Mol. Index>
1374

> <Pharmacophore Match>
Model -1

> <# Confs.>
25

> <Source Database>
Pharm-Screening-input-NANPDB_After_DataWarror.ldb

> <Pharmacophore-Fit Score>
35.05

> <formula>
C17H16O6

> <Mutagenic>
none

> <Reproductive Effective>
none

> <Irritant>
none

$$$$
wikstromol
XX    ILIB03122402123D

 49 51  0  0  1  0              1 V2000
    4.9068   -1.0119   -0.9186 O   0  0  0  0  0
    3.8642   -0.6695   -1.4556 C   0  0  0  0  0
    3.1305   -1.4757   -2.2785 O   0  0  0  0  0
    2.0621   -0.7259   -2.8578 C   0  0  0  0  0
    1.7949    0.4251   -1.8989 C   0  0  1  0  0
    3.2104    0.6918   -1.3382 C   0  0  2  0  0
    3.9661    1.5401   -2.1896 O   0  0  0  0  0
    4.8382    1.6788   -1.7840 H   0  0  0  0  0
    3.2524    1.1772    0.1093 C   0  0  0  0  0
    2.4652    0.3105    1.0523 C   0  0  0  0  0
    3.0758   -0.7900    1.6789 C   0  0  0  0  0
    2.3503   -1.6047    2.5551 C   0  0  0  0  0
    2.8502   -2.6914    3.2139 O   0  0  0  0  0
    4.2221   -2.9842    2.9571 C   0  0  0  0  0
    4.3834   -3.2210    1.9001 H   0  0  0  0  0
    4.8683   -2.1595    3.2786 H   0  0  0  0  0
    4.4907   -3.8680    3.5446 H   0  0  0  0  0
    1.0058   -1.3049    2.7968 C   0  0  0  0  0
    0.2532   -2.0611    3.6548 O   0  0  0  0  0
    0.8254   -2.7507    4.0295 H   0  0  0  0  0
    0.3840   -0.2263    2.1728 C   0  0  0  0  0
    1.1124    0.5780    1.2988 C   0  0  0  0  0
    0.6202    1.4166    0.8139 H   0  0  0  0  0
   -0.6617   -0.0053    2.3617 H   0  0  0  0  0
    4.1237   -0.9854    1.4670 H   0  0  0  0  0
    4.2929    1.2456    0.4523 H   0  0  0  0  0
    2.8497    2.1971    0.1598 H   0  0  0  0  0
    1.1422    1.6126   -2.5861 C   0  0  0  0  0
   -0.3521    1.4201   -2.7659 C   0  0  0  0  0
   -1.2447    1.8313   -1.7604 C   0  0  0  0  0
   -2.6251    1.6592   -1.9172 C   0  0  0  0  0
   -3.5719    2.0266   -1.0046 O   0  0  0  0  0
   -3.0698    2.6253    0.1873 C   0  0  0  0  0
   -2.4300    1.9291    0.7400 H   0  0  0  0  0
   -2.5388    3.5580   -0.0318 H   0  0  0  0  0
   -3.9276    2.8702    0.8240 H   0  0  0  0  0
   -3.1002    1.0703   -3.0928 C   0  0  0  0  0
   -4.4413    0.8894   -3.3054 O   0  0  0  0  0
   -4.9184    1.2577   -2.5424 H   0  0  0  0  0
   -2.2273    0.6452   -4.0919 C   0  0  0  0  0
   -0.8548    0.8171   -3.9257 C   0  0  0  0  0
   -0.1792    0.4809   -4.7079 H   0  0  0  0  0
   -2.6066    0.1838   -4.9988 H   0  0  0  0  0
   -0.8334    2.2894   -0.8649 H   0  0  0  0  0
    1.3189    2.5294   -2.0230 H   0  0  0  0  0
    1.5812    1.7551   -3.5740 H   0  0  0  0  0
    1.1755    0.0504   -1.0771 H   0  0  0  0  0
    1.1859   -1.3733   -2.9579 H   0  0  0  0  0
    2.3761   -0.4034   -3.8521 H   0  0  0  0  0
  1  2  2  0  0  0
  2  3  1  0  0  0
  2  6  1  0  0  0
  3  4  1  0  0  0
  4  5  1  0  0  0
  4 48  1  0  0  0
  4 49  1  0  0  0
  5  6  1  0  0  0
  5 28  1  0  0  0
  5 47  1  0  0  0
  6  7  1  0  0  0
  6  9  1  0  0  0
  7  8  1  0  0  0
  9 10  1  0  0  0
  9 26  1  0  0  0
  9 27  1  0  0  0
 10 11  2  0  0  0
 10 22  1  0  0  0
 11 12  1  0  0  0
 11 25  1  0  0  0
 12 13  1  0  0  0
 12 18  2  0  0  0
 13 14  1  0  0  0
 14 15  1  0  0  0
 14 16  1  0  0  0
 14 17  1  0  0  0
 18 19  1  0  0  0
 18 21  1  0  0  0
 19 20  1  0  0  0
 21 22  2  0  0  0
 21 24  1  0  0  0
 22 23  1  0  0  0
 28 29  1  0  0  0
 28 45  1  0  0  0
 28 46  1  0  0  0
 29 30  2  0  0  0
 29 41  1  0  0  0
 30 31  1  0  0  0
 30 44  1  0  0  0
 31 32  1  0  0  0
 31 37  2  0  0  0
 32 33  1  0  0  0
 33 34  1  0  0  0
 33 35  1  0  0  0
 33 36  1  0  0  0
 37 38  1  0  0  0
 37 40  1  0  0  0
 38 39  1  0  0  0
 40 41  2  0  0  0
 40 43  1  0  0  0
 41 42  1  0  0  0
M  END
> <Tumorigenic>
none

> <Score>
35.030235

> <Active/Decoy>
active

> <InChI>
InChI=1S/C20H22O7/c1-25-17-8-12(3-5-15(17)21)7-14-11-27-19(23)20(14,24)10-13-4-6-16(22)18(9-13)26-2/h3-6,8-9,14,21-22,24H,7,10-11H2,1-2H3/t14-,20-/m0/s1

> <Matching Features>
H:14924486185440016873||HBA:14924321692640012300|HBA:14924486112070016868

> <Mol. Index>
821

> <Pharmacophore Match>
Model -1

> <# Confs.>
25

> <Source Database>
Pharm-Screening-input-NANPDB_After_DataWarror.ldb

> <Pharmacophore-Fit Score>
35.03

> <formula>
C20H22O7

> <Mutagenic>
none

> <Reproductive Effective>
none

> <Irritant>
none

$$$$
macrocarpon C
XX    ILIB03122402123D

 29 30  0  0  1  0              1 V2000
    3.5380    1.4752   -2.1637 O   0  0  0  0  0
    2.7436    0.8450   -1.4771 C   0  0  0  0  0
    1.5079    0.2724   -2.0499 C   0  0  0  0  0
    0.6844   -0.4302   -1.2479 C   0  0  0  0  0
    0.9137   -0.5995    0.1028 O   0  0  0  0  0
    2.0628   -0.0685    0.6663 C   0  0  0  0  0
    2.9680    0.6270   -0.0344 C   0  0  0  0  0
    3.8650    1.0398    0.4139 H   0  0  0  0  0
    2.2038   -0.3397    2.1291 C   0  0  0  0  0
    1.3535    0.0815    2.6745 H   0  0  0  0  0
    2.2315   -1.4186    2.3120 H   0  0  0  0  0
    3.1185    0.0962    2.5421 H   0  0  0  0  0
   -0.5826   -1.0325   -1.7553 C   0  0  0  0  0
   -1.7647   -0.0951   -1.6480 C   0  0  0  0  0
   -2.6663    0.0381   -2.7082 C   0  0  0  0  0
   -3.7595    0.8973   -2.5956 C   0  0  0  0  0
   -4.6093    1.0041   -3.6611 O   0  0  0  0  0
   -5.3073    1.6430   -3.4368 H   0  0  0  0  0
   -3.9800    1.6261   -1.4295 C   0  0  0  0  0
   -3.0909    1.4830   -0.3681 C   0  0  0  0  0
   -1.9916    0.6278   -0.4619 C   0  0  0  0  0
   -1.3092    0.5249    0.3777 H   0  0  0  0  0
   -3.3237    2.2025    0.7711 O   0  0  0  0  0
   -2.6236    1.9962    1.4142 H   0  0  0  0  0
   -4.8319    2.2942   -1.3456 H   0  0  0  0  0
   -2.5128   -0.5242   -3.6260 H   0  0  0  0  0
   -0.4941   -1.3605   -2.7919 H   0  0  0  0  0
   -0.7968   -1.9422   -1.1707 H   0  0  0  0  0
    1.3221    0.4103   -3.1077 H   0  0  0  0  0
  1  2  2  0  0  0
  2  3  1  0  0  0
  2  7  1  0  0  0
  3  4  2  0  0  0
  3 29  1  0  0  0
  4  5  1  0  0  0
  4 13  1  0  0  0
  5  6  1  0  0  0
  6  7  2  0  0  0
  6  9  1  0  0  0
  7  8  1  0  0  0
  9 10  1  0  0  0
  9 11  1  0  0  0
  9 12  1  0  0  0
 13 14  1  0  0  0
 13 27  1  0  0  0
 13 28  1  0  0  0
 14 15  2  0  0  0
 14 21  1  0  0  0
 15 16  1  0  0  0
 15 26  1  0  0  0
 16 17  1  0  0  0
 16 19  2  0  0  0
 17 18  1  0  0  0
 19 20  1  0  0  0
 19 25  1  0  0  0
 20 21  2  0  0  0
 20 23  1  0  0  0
 21 22  1  0  0  0
 23 24  1  0  0  0
M  END
> <Tumorigenic>
none

> <Score>
35.017624

> <Active/Decoy>
active

> <InChI>
InChI=1S/C13H12O4/c1-8-2-10(14)7-13(17-8)5-9-3-11(15)6-12(16)4-9/h2-4,6-7,15-16H,5H2,1H3

> <Matching Features>
H:14924486185440016873||HBA:14924321692640012300|HBA:14924486112070016868

> <Mol. Index>
631

> <Pharmacophore Match>
Model -1

> <# Confs.>
23

> <Source Database>
Pharm-Screening-input-NANPDB_After_DataWarror.ldb

> <Pharmacophore-Fit Score>
35.02

> <formula>
C13H12O4

> <Mutagenic>
none

> <Reproductive Effective>
none

> <Irritant>
none

$$$$
liquiritigenin
XX    ILIB03122402123D

 31 33  0  0  1  0              1 V2000
    3.5358    1.2931   -1.6887 O   0  0  0  0  0
    2.4816    0.9259   -1.1843 C   0  0  0  0  0
    2.4221    0.4355    0.2078 C   0  0  0  0  0
    1.1937    0.0193    0.7302 C   0  0  0  0  0
    0.0130    0.0865    0.0358 O   0  0  0  0  0
    0.0183    1.0789   -0.9960 C   0  0  2  0  0
   -1.2930    1.0643   -1.7165 C   0  0  0  0  0
   -1.8239    2.2192   -2.2774 C   0  0  0  0  0
   -3.0434    2.1936   -2.9555 C   0  0  0  0  0
   -3.7338    0.9882   -3.0802 C   0  0  0  0  0
   -4.9275    0.9967   -3.7484 O   0  0  0  0  0
   -5.2766    0.0893   -3.7588 H   0  0  0  0  0
   -3.2312   -0.1793   -2.5239 C   0  0  0  0  0
   -2.0119   -0.1502   -1.8456 C   0  0  0  0  0
   -1.6237   -1.0733   -1.4229 H   0  0  0  0  0
   -3.7709   -1.1171   -2.6157 H   0  0  0  0  0
   -3.4391    3.1088   -3.3855 H   0  0  0  0  0
   -1.2887    3.1617   -2.1918 H   0  0  0  0  0
    1.1888    0.8753   -1.9566 C   0  0  0  0  0
    1.2018    1.6592   -2.7220 H   0  0  0  0  0
    1.1388   -0.1020   -2.4507 H   0  0  0  0  0
    0.1184    2.0660   -0.4918 H   0  0  0  0  0
    1.1307   -0.5200    2.0155 C   0  0  0  0  0
    2.2953   -0.6078    2.7781 C   0  0  0  0  0
    2.2664   -1.1223    4.0444 O   0  0  0  0  0
    1.3533   -1.3871    4.2506 H   0  0  0  0  0
    3.5173   -0.1736    2.2704 C   0  0  0  0  0
    3.5846    0.3471    0.9782 C   0  0  0  0  0
    4.5460    0.6661    0.5872 H   0  0  0  0  0
    4.4213   -0.2452    2.8693 H   0  0  0  0  0
    0.1810   -0.8578    2.4199 H   0  0  0  0  0
  1  2  2  0  0  0
  2  3  1  0  0  0
  2 19  1  0  0  0
  3  4  2  0  0  0
  3 28  1  0  0  0
  4  5  1  0  0  0
  4 23  1  0  0  0
  5  6  1  0  0  0
  6  7  1  0  0  0
  6 19  1  0  0  0
  6 22  1  0  0  0
  7  8  2  0  0  0
  7 14  1  0  0  0
  8  9  1  0  0  0
  8 18  1  0  0  0
  9 10  2  0  0  0
  9 17  1  0  0  0
 10 11  1  0  0  0
 10 13  1  0  0  0
 11 12  1  0  0  0
 13 14  2  0  0  0
 13 16  1  0  0  0
 14 15  1  0  0  0
 19 20  1  0  0  0
 19 21  1  0  0  0
 23 24  2  0  0  0
 23 31  1  0  0  0
 24 25  1  0  0  0
 24 27  1  0  0  0
 25 26  1  0  0  0
 27 28  2  0  0  0
 27 30  1  0  0  0
 28 29  1  0  0  0
M  END
> <Tumorigenic>
none

> <Score>
35.02463

> <Active/Decoy>
active

> <InChI>
InChI=1S/C15H12O4/c16-10-3-1-9(2-4-10)14-8-13(18)12-6-5-11(17)7-15(12)19-14/h1-7,14,16-17H,8H2/t14-/m0/s1

> <Matching Features>
H:14924486185440016873||HBA:14924321692640012300|HBA:14924486112070016868

> <Mol. Index>
43

> <Pharmacophore Match>
Model -1

> <# Confs.>
6

> <Source Database>
Pharm-Screening-input-NANPDB_After_DataWarror.ldb

> <Pharmacophore-Fit Score>
35.02

> <formula>
C15H12O4

> <Mutagenic>
none

> <Reproductive Effective>
none

> <Irritant>
none

$$$$
1,6-di-O-p-hydroxybenzoyl-beta-D-glucopyranoside
XX    ILIB03122402123D

 50 52  0  0  1  0              1 V2000
    3.0821    2.5064    0.1741 O   0  0  0  0  0
    2.2701    1.5965    0.1333 C   0  0  0  0  0
    1.3720    1.3514   -0.8529 O   0  0  0  0  0
    1.3668    2.2508   -1.9744 C   0  0  2  0  0
    0.0704    2.3787   -2.5707 O   0  0  0  0  0
   -0.4397    1.1595   -3.1266 C   0  0  2  0  0
    0.5145    0.6353   -4.2249 C   0  0  1  0  0
    0.5210    1.5681   -5.3085 O   0  0  0  0  0
    1.1619    1.2454   -5.9638 H   0  0  0  0  0
    1.9328    0.4804   -3.6713 C   0  0  1  0  0
    2.8129    0.1314   -4.7353 O   0  0  0  0  0
    3.7108    0.0775   -4.3643 H   0  0  0  0  0
    2.3901    1.7824   -3.0149 C   0  0  2  0  0
    3.6589    1.5818   -2.4015 O   0  0  0  0  0
    3.9206    2.4236   -1.9913 H   0  0  0  0  0
    2.5181    2.5485   -3.7895 H   0  0  0  0  0
    1.9648   -0.3425   -2.9473 H   0  0  0  0  0
    0.1565   -0.3189   -4.6281 H   0  0  0  0  0
   -1.8321    1.4264   -3.6588 C   0  0  0  0  0
   -2.6871    1.8962   -2.6130 O   0  0  0  0  0
   -4.0137    1.6086   -2.7263 C   0  0  0  0  0
   -4.5576    1.0006   -3.6347 O   0  0  0  0  0
   -4.7439    2.1439   -1.5610 C   0  0  0  0  0
   -6.1292    1.9437   -1.5021 C   0  0  0  0  0
   -6.8638    2.4252   -0.4183 C   0  0  0  0  0
   -6.2118    3.1090    0.6046 C   0  0  0  0  0
   -6.9053    3.5899    1.6811 O   0  0  0  0  0
   -7.8453    3.3670    1.5671 H   0  0  0  0  0
   -4.8374    3.3174    0.5563 C   0  0  0  0  0
   -4.1006    2.8344   -0.5259 C   0  0  0  0  0
   -3.0285    3.0093   -0.5361 H   0  0  0  0  0
   -4.3316    3.8530    1.3557 H   0  0  0  0  0
   -7.9381    2.2614   -0.3840 H   0  0  0  0  0
   -6.6538    1.4122   -2.2922 H   0  0  0  0  0
   -2.2469    0.5554   -4.1574 H   0  0  0  0  0
   -1.7812    2.2458   -4.4103 H   0  0  0  0  0
   -0.5086    0.4178   -2.3219 H   0  0  0  0  0
    1.6683    3.2414   -1.6127 H   0  0  0  0  0
    2.1341    0.5844    1.1982 C   0  0  0  0  0
    2.9828    0.6777    2.3089 C   0  0  0  0  0
    2.8890   -0.2513    3.3446 C   0  0  0  0  0
    1.9473   -1.2745    3.2698 C   0  0  0  0  0
    1.8304   -2.1971    4.2695 O   0  0  0  0  0
    2.4866   -1.9906    4.9578 H   0  0  0  0  0
    1.1001   -1.3801    2.1707 C   0  0  0  0  0
    1.1907   -0.4500    1.1328 C   0  0  0  0  0
    0.5165   -0.5549    0.2882 H   0  0  0  0  0
    0.3669   -2.1797    2.1120 H   0  0  0  0  0
    3.5508   -0.1669    4.2023 H   0  0  0  0  0
    3.7227    1.4697    2.3849 H   0  0  0  0  0
  1  2  2  0  0  0
  2  3  1  0  0  0
  2 39  1  0  0  0
  3  4  1  0  0  0
  4  5  1  0  0  0
  4 13  1  0  0  0
  4 38  1  0  0  0
  5  6  1  0  0  0
  6  7  1  0  0  0
  6 19  1  0  0  0
  6 37  1  0  0  0
  7  8  1  0  0  0
  7 10  1  0  0  0
  7 18  1  0  0  0
  8  9  1  0  0  0
 10 11  1  0  0  0
 10 13  1  0  0  0
 10 17  1  0  0  0
 11 12  1  0  0  0
 13 14  1  0  0  0
 13 16  1  0  0  0
 14 15  1  0  0  0
 19 20  1  0  0  0
 19 35  1  0  0  0
 19 36  1  0  0  0
 20 21  1  0  0  0
 21 22  2  0  0  0
 21 23  1  0  0  0
 23 24  2  0  0  0
 23 30  1  0  0  0
 24 25  1  0  0  0
 24 34  1  0  0  0
 25 26  2  0  0  0
 25 33  1  0  0  0
 26 27  1  0  0  0
 26 29  1  0  0  0
 27 28  1  0  0  0
 29 30  2  0  0  0
 29 32  1  0  0  0
 30 31  1  0  0  0
 39 40  2  0  0  0
 39 46  1  0  0  0
 40 41  1  0  0  0
 40 50  1  0  0  0
 41 42  2  0  0  0
 41 49  1  0  0  0
 42 43  1  0  0  0
 42 45  1  0  0  0
 43 44  1  0  0  0
 45 46  2  0  0  0
 45 48  1  0  0  0
 46 47  1  0  0  0
M  END
> <Tumorigenic>
none

> <Score>
35.010757

> <Active/Decoy>
active

> <InChI>
InChI=1S/C20H20O10/c21-12-5-1-10(2-6-12)18(26)28-9-14-15(23)16(24)17(25)20(29-14)30-19(27)11-3-7-13(22)8-4-11/h1-8,14-17,20-25H,9H2/t14-,15+,16+,17-,20-/m0/s1

> <Matching Features>
H:14924486185440016873||HBA:14924321692640012300|HBA:14924486112070016868

> <Mol. Index>
109

> <Pharmacophore Match>
Model -1

> <# Confs.>
25

> <Source Database>
Pharm-Screening-input-NANPDB_After_DataWarror.ldb

> <Pharmacophore-Fit Score>
35.01

> <formula>
C20H20O10

> <Mutagenic>
none

> <Reproductive Effective>
none

> <Irritant>
none

$$$$
11alpha-methoxycurvularin
XX    ILIB03122402123D

 45 46  0  0  1  0              1 V2000
   -1.1664    0.3677    0.5900 O   0  0  0  0  0
   -0.3364   -0.2425   -0.0707 C   0  0  0  0  0
    1.0093   -0.2603    0.1448 O   0  0  0  0  0
    1.5162    0.4490    1.2952 C   0  0  2  0  0
    2.9162    0.9831    0.9635 C   0  0  0  0  0
    2.9072    2.2888    0.1569 C   0  0  0  0  0
    2.2141    2.2516   -1.2153 C   0  0  0  0  0
    2.8253    1.2873   -2.2408 C   0  0  2  0  0
    4.0970    1.7429   -2.6755 O   0  0  0  0  0
    5.0127    0.7170   -3.0312 C   0  0  0  0  0
    5.2327    0.0679   -2.1789 H   0  0  0  0  0
    5.9459    1.1909   -3.3491 H   0  0  0  0  0
    4.6258    0.1275   -3.8671 H   0  0  0  0  0
    1.9345    1.2261   -3.4908 C   0  0  0  0  0
    1.0199    0.0142   -3.4821 C   0  0  0  0  0
   -0.4442    0.2403   -3.4438 C   0  0  0  0  0
   -1.2332   -0.3020   -2.4101 C   0  0  0  0  0
   -0.6765   -1.1024   -1.2597 C   0  0  0  0  0
   -1.4076   -1.8481   -0.9252 H   0  0  0  0  0
    0.1906   -1.6982   -1.5582 H   0  0  0  0  0
   -2.6179   -0.0510   -2.4254 C   0  0  0  0  0
   -3.1947    0.6966   -3.4518 C   0  0  0  0  0
   -4.5396    0.9408   -3.4726 O   0  0  0  0  0
   -4.9420    0.5197   -2.6932 H   0  0  0  0  0
   -2.4186    1.2071   -4.4842 C   0  0  0  0  0
   -1.0447    0.9720   -4.4805 C   0  0  0  0  0
   -0.2818    1.4397   -5.5177 O   0  0  0  0  0
   -0.8555    1.9145   -6.1411 H   0  0  0  0  0
   -2.8820    1.7769   -5.2855 H   0  0  0  0  0
   -3.2472   -0.4432   -1.6282 H   0  0  0  0  0
    1.4525   -1.1329   -3.5246 O   0  0  0  0  0
    1.3573    2.1515   -3.5884 H   0  0  0  0  0
    2.5407    1.1516   -4.4025 H   0  0  0  0  0
    2.9173    0.2671   -1.8162 H   0  0  0  0  0
    1.1532    2.0332   -1.0691 H   0  0  0  0  0
    2.2725    3.2643   -1.6213 H   0  0  0  0  0
    2.4111    3.0603    0.7600 H   0  0  0  0  0
    3.9404    2.6330    0.0347 H   0  0  0  0  0
    3.4923    0.2216    0.4259 H   0  0  0  0  0
    3.4544    1.1898    1.8964 H   0  0  0  0  0
    1.5751   -0.5438    2.4528 C   0  0  0  0  0
    2.2106   -1.4001    2.2024 H   0  0  0  0  0
    0.5793   -0.9431    2.6678 H   0  0  0  0  0
    1.9604   -0.0718    3.3611 H   0  0  0  0  0
    0.8585    1.2834    1.5632 H   0  0  0  0  0
  1  2  2  0  0  0
  2  3  1  0  0  0
  2 18  1  0  0  0
  3  4  1  0  0  0
  4  5  1  0  0  0
  4 41  1  0  0  0
  4 45  1  0  0  0
  5  6  1  0  0  0
  5 39  1  0  0  0
  5 40  1  0  0  0
  6  7  1  0  0  0
  6 37  1  0  0  0
  6 38  1  0  0  0
  7  8  1  0  0  0
  7 35  1  0  0  0
  7 36  1  0  0  0
  8  9  1  0  0  0
  8 14  1  0  0  0
  8 34  1  0  0  0
  9 10  1  0  0  0
 10 11  1  0  0  0
 10 12  1  0  0  0
 10 13  1  0  0  0
 14 15  1  0  0  0
 14 32  1  0  0  0
 14 33  1  0  0  0
 15 16  1  0  0  0
 15 31  2  0  0  0
 16 17  2  0  0  0
 16 26  1  0  0  0
 17 18  1  0  0  0
 17 21  1  0  0  0
 18 19  1  0  0  0
 18 20  1  0  0  0
 21 22  2  0  0  0
 21 30  1  0  0  0
 22 23  1  0  0  0
 22 25  1  0  0  0
 23 24  1  0  0  0
 25 26  2  0  0  0
 25 29  1  0  0  0
 26 27  1  0  0  0
 27 28  1  0  0  0
 41 42  1  0  0  0
 41 43  1  0  0  0
 41 44  1  0  0  0
M  END
> <Tumorigenic>
none

> <Score>
34.999294

> <Active/Decoy>
active

> <InChI>
InChI=1S/C17H22O6/c1-10-4-3-5-13(22-2)9-15(20)17-11(7-16(21)23-10)6-12(18)8-14(17)19/h6,8,10,13,18-19H,3-5,7,9H2,1-2H3/t10-,13-/m0/s1

> <Matching Features>
H:14924486185440016873||HBA:14924321692640012300|HBA:14924486112070016868

> <Mol. Index>
841

> <Pharmacophore Match>
Model -1

> <# Confs.>
25

> <Source Database>
Pharm-Screening-input-NANPDB_After_DataWarror.ldb

> <Pharmacophore-Fit Score>
35.0

> <formula>
C17H22O6

> <Mutagenic>
none

> <Reproductive Effective>
none

> <Irritant>
none

$$$$
(+)-lariciresinol-9-O-beta-D-glucopyranoside
XX    ILIB03122402123D

 71 74  0  0  1  0              1 V2000
    5.6130    0.4714   -2.7143 O   0  0  0  0  0
    4.8756    1.6969   -2.8901 C   0  0  1  0  0
    3.5581    1.5545   -2.3638 O   0  0  0  0  0
    2.7799    0.5451   -3.0246 C   0  0  0  0  0
    1.4106    0.5102   -2.3776 C   0  0  1  0  0
    0.5469   -0.5928   -3.0422 C   0  0  1  0  0
    0.6159   -1.7516   -2.2057 O   0  0  0  0  0
    1.3618   -1.4335   -1.0248 C   0  0  0  0  0
    1.3578    0.0833   -0.9112 C   0  0  1  0  0
    2.4429    0.6388    0.0047 C   0  0  0  0  0
    2.3381    0.1416    1.4189 C   0  0  0  0  0
    1.5700    0.8286    2.3776 C   0  0  0  0  0
    1.4746    0.3570    3.6934 C   0  0  0  0  0
    0.7568    0.9513    4.6918 O   0  0  0  0  0
    0.0680    2.1439    4.3221 C   0  0  0  0  0
   -0.6867    1.9415    3.5540 H   0  0  0  0  0
    0.7685    2.9169    3.9902 H   0  0  0  0  0
   -0.4497    2.5189    5.2098 H   0  0  0  0  0
    2.1562   -0.8134    4.0390 C   0  0  0  0  0
    2.0993   -1.3212    5.3097 O   0  0  0  0  0
    1.5294   -0.7400    5.8409 H   0  0  0  0  0
    2.9178   -1.5080    3.1036 C   0  0  0  0  0
    3.0062   -1.0312    1.7962 C   0  0  0  0  0
    3.6014   -1.5833    1.0736 H   0  0  0  0  0
    3.4415   -2.4179    3.3809 H   0  0  0  0  0
    1.0513    1.7329    2.0692 H   0  0  0  0  0
    3.4277    0.3576   -0.3886 H   0  0  0  0  0
    2.4165    1.7359   -0.0008 H   0  0  0  0  0
    0.3769    0.3859   -0.5154 H   0  0  0  0  0
    2.3717   -1.8406   -1.1441 H   0  0  0  0  0
    0.8932   -1.9204   -0.1646 H   0  0  0  0  0
   -0.8921   -0.1696   -3.2584 C   0  0  0  0  0
   -1.9503   -0.8849   -2.6672 C   0  0  0  0  0
   -3.2800   -0.4915   -2.8624 C   0  0  0  0  0
   -4.3732   -1.1193   -2.3333 O   0  0  0  0  0
   -4.0884   -2.2601   -1.5275 C   0  0  0  0  0
   -3.5034   -1.9844   -0.6442 H   0  0  0  0  0
   -3.5818   -3.0377   -2.1081 H   0  0  0  0  0
   -5.0431   -2.6698   -1.1827 H   0  0  0  0  0
   -3.5408    0.6295   -3.6563 C   0  0  0  0  0
   -4.8216    1.0611   -3.8811 O   0  0  0  0  0
   -5.4267    0.4687   -3.4030 H   0  0  0  0  0
   -2.5057    1.3513   -4.2450 C   0  0  0  0  0
   -1.1858    0.9523   -4.0445 C   0  0  0  0  0
   -0.3868    1.5253   -4.5081 H   0  0  0  0  0
   -2.7178    2.2228   -4.8569 H   0  0  0  0  0
   -1.7079   -1.7494   -2.0542 H   0  0  0  0  0
    0.9456   -0.8826   -4.0259 H   0  0  0  0  0
    0.9613    1.5102   -2.4906 H   0  0  0  0  0
    2.7073    0.7347   -4.0885 H   0  0  0  0  0
    3.2686   -0.4333   -2.8767 H   0  0  0  0  0
    5.5579    2.8118   -2.0876 C   0  0  2  0  0
    4.9052    4.0545   -2.3837 O   0  0  0  0  0
    3.9636    3.9456   -2.1664 H   0  0  0  0  0
    7.0325    2.9531   -2.4634 C   0  0  1  0  0
    7.6687    3.8417   -1.5453 O   0  0  0  0  0
    7.5892    3.4608   -0.6534 H   0  0  0  0  0
    7.7387    1.5967   -2.4289 C   0  0  2  0  0
    9.0509    1.7310   -2.9662 O   0  0  0  0  0
    8.9676    1.9944   -3.8984 H   0  0  0  0  0
    6.9464    0.5554   -3.2264 C   0  0  1  0  0
    7.5583   -0.8330   -3.1652 C   0  0  0  0  0
    6.8102   -1.7540   -3.9432 O   0  0  0  0  0
    5.9292   -1.8356   -3.5396 H   0  0  0  0  0
    8.5825   -0.8112   -3.5539 H   0  0  0  0  0
    7.6218   -1.2010   -2.1352 H   0  0  0  0  0
    6.8997    0.8409   -4.2854 H   0  0  0  0  0
    7.8500    1.2832   -1.3849 H   0  0  0  0  0
    7.1375    3.4166   -3.4512 H   0  0  0  0  0
    5.4502    2.6473   -1.0146 H   0  0  0  0  0
    4.8333    1.9589   -3.9479 H   0  0  0  0  0
  1  2  1  0  0  0
  1 61  1  0  0  0
  2  3  1  0  0  0
  2 52  1  0  0  0
  2 71  1  0  0  0
  3  4  1  0  0  0
  4  5  1  0  0  0
  4 50  1  0  0  0
  4 51  1  0  0  0
  5  6  1  0  0  0
  5  9  1  0  0  0
  5 49  1  0  0  0
  6  7  1  0  0  0
  6 32  1  0  0  0
  6 48  1  0  0  0
  7  8  1  0  0  0
  8  9  1  0  0  0
  8 30  1  0  0  0
  8 31  1  0  0  0
  9 10  1  0  0  0
  9 29  1  0  0  0
 10 11  1  0  0  0
 10 27  1  0  0  0
 10 28  1  0  0  0
 11 12  2  0  0  0
 11 23  1  0  0  0
 12 13  1  0  0  0
 12 26  1  0  0  0
 13 14  1  0  0  0
 13 19  2  0  0  0
 14 15  1  0  0  0
 15 16  1  0  0  0
 15 17  1  0  0  0
 15 18  1  0  0  0
 19 20  1  0  0  0
 19 22  1  0  0  0
 20 21  1  0  0  0
 22 23  2  0  0  0
 22 25  1  0  0  0
 23 24  1  0  0  0
 32 33  2  0  0  0
 32 44  1  0  0  0
 33 34  1  0  0  0
 33 47  1  0  0  0
 34 35  1  0  0  0
 34 40  2  0  0  0
 35 36  1  0  0  0
 36 37  1  0  0  0
 36 38  1  0  0  0
 36 39  1  0  0  0
 40 41  1  0  0  0
 40 43  1  0  0  0
 41 42  1  0  0  0
 43 44  2  0  0  0
 43 46  1  0  0  0
 44 45  1  0  0  0
 52 53  1  0  0  0
 52 55  1  0  0  0
 52 70  1  0  0  0
 53 54  1  0  0  0
 55 56  1  0  0  0
 55 58  1  0  0  0
 55 69  1  0  0  0
 56 57  1  0  0  0
 58 59  1  0  0  0
 58 61  1  0  0  0
 58 68  1  0  0  0
 59 60  1  0  0  0
 61 62  1  0  0  0
 61 67  1  0  0  0
 62 63  1  0  0  0
 62 65  1  0  0  0
 62 66  1  0  0  0
 63 64  1  0  0  0
M  END
> <Tumorigenic>
none

> <Score>
34.99785

> <Active/Decoy>
active

> <InChI>
InChI=1S/C26H34O11/c1-33-19-8-13(3-5-17(19)28)7-15-11-35-25(14-4-6-18(29)20(9-14)34-2)16(15)12-36-26-24(32)23(31)22(30)21(10-27)37-26/h3-6,8-9,15-16,21-32H,7,10-12H2,1-2H3/t15-,16-,21-,22-,23+,24-,25+,26-/m1/s1

> <Matching Features>
H:14924486185440016873||HBA:14924321692640012300|HBA:14924486112070016868

> <Mol. Index>
186

> <Pharmacophore Match>
Model -1

> <# Confs.>
25

> <Source Database>
Pharm-Screening-input-NANPDB_After_DataWarror.ldb

> <Pharmacophore-Fit Score>
35.0

> <formula>
C26H34O11

> <Mutagenic>
none

> <Reproductive Effective>
none

> <Irritant>
none

$$$$
syzalterin
XX    ILIB03122402123D

 36 38  0  0  1  0              1 V2000
    3.0053    1.9411   -3.5296 O   0  0  0  0  0
    2.3189    1.5615   -2.7332 C   0  0  0  0  0
    2.7088    1.1287   -1.5164 C   0  0  0  0  0
    1.8119    0.7029   -0.7152 C   0  0  0  0  0
    0.5936    0.6681   -1.0308 O   0  0  0  0  0
    0.2348    1.0776   -2.1687 C   0  0  0  0  0
    1.0108    1.5238   -2.9948 C   0  0  0  0  0
    0.6487    1.8793   -3.9143 H   0  0  0  0  0
   -1.0915    1.0038   -2.4211 C   0  0  0  0  0
   -1.5420    0.8483   -3.6131 C   0  0  0  0  0
   -2.7909    0.7731   -3.8486 C   0  0  0  0  0
   -3.6079    0.8389   -2.8868 C   0  0  0  0  0
   -4.8315    0.7496   -3.0710 O   0  0  0  0  0
   -5.0188    0.6213   -4.0755 H   0  0  0  0  0
   -3.1933    0.9903   -1.7015 C   0  0  0  0  0
   -1.9421    1.0703   -1.4689 C   0  0  0  0  0
   -1.6138    1.1920   -0.4793 H   0  0  0  0  0
   -3.8802    1.0508   -0.9093 H   0  0  0  0  0
   -3.1327    0.6577   -4.8343 H   0  0  0  0  0
   -0.8743    0.7797   -4.4208 H   0  0  0  0  0
    2.1279    0.2890    0.4585 C   0  0  0  0  0
    3.3640    0.3122    0.7998 C   0  0  0  0  0
    3.7321   -0.0769    1.9290 O   0  0  0  0  0
    3.3527    0.5506    2.6500 H   0  0  0  0  0
    4.2819    0.7309    0.0104 C   0  0  0  0  0
    3.9389    1.1388   -1.1526 C   0  0  0  0  0
    4.7979    1.5561   -1.9530 O   0  0  0  0  0
    4.3322    1.9732   -2.7711 H   0  0  0  0  0
    5.5966    0.7444    0.4017 C   0  0  0  0  0
    5.9136   -0.2372    0.6013 H   0  0  0  0  0
    5.6962    1.3275    1.2691 H   0  0  0  0  0
    6.1869    1.1526   -0.3646 H   0  0  0  0  0
    1.1700   -0.1664    1.3293 C   0  0  0  0  0
    1.5928   -0.8870    1.9669 H   0  0  0  0  0
    0.3817   -0.5976    0.7877 H   0  0  0  0  0
    0.8071    0.6352    1.8995 H   0  0  0  0  0
  1  2  2  0  0  0
  2  3  1  0  0  0
  2  7  1  0  0  0
  3  4  2  0  0  0
  3 26  1  0  0  0
  4  5  1  0  0  0
  4 21  1  0  0  0
  5  6  1  0  0  0
  6  7  2  0  0  0
  6  9  1  0  0  0
  7  8  1  0  0  0
  9 10  2  0  0  0
  9 16  1  0  0  0
 10 11  1  0  0  0
 10 20  1  0  0  0
 11 12  2  0  0  0
 11 19  1  0  0  0
 12 13  1  0  0  0
 12 15  1  0  0  0
 13 14  1  0  0  0
 15 16  2  0  0  0
 15 18  1  0  0  0
 16 17  1  0  0  0
 21 22  2  0  0  0
 21 33  1  0  0  0
 22 23  1  0  0  0
 22 25  1  0  0  0
 23 24  1  0  0  0
 25 26  2  0  0  0
 25 29  1  0  0  0
 26 27  1  0  0  0
 27 28  1  0  0  0
 29 30  1  0  0  0
 29 31  1  0  0  0
 29 32  1  0  0  0
 33 34  1  0  0  0
 33 35  1  0  0  0
 33 36  1  0  0  0
M  END
> <Tumorigenic>
none

> <Score>
34.967922

> <Active/Decoy>
active

> <InChI>
InChI=1S/C17H14O5/c1-8-15(20)9(2)17-14(16(8)21)12(19)7-13(22-17)10-3-5-11(18)6-4-10/h3-7,18,20-21H,1-2H3

> <Matching Features>
H:14924486185440016873||HBA:14924321692640012300|HBA:14924486112070016868

> <Mol. Index>
63

> <Pharmacophore Match>
Model -1

> <# Confs.>
2

> <Source Database>
Pharm-Screening-input-NANPDB_After_DataWarror.ldb

> <Pharmacophore-Fit Score>
34.97

> <formula>
C17H14O5

> <Mutagenic>
none

> <Reproductive Effective>
none

> <Irritant>
none

$$$$
7-hydroxyhyoscyamine
XX    ILIB03122402123D

 45 47  0  0  1  0              1 V2000
   -0.4540    2.2935   -1.0979 O   0  0  0  0  0
   -0.0017    1.1629   -1.2010 C   0  0  0  0  0
   -0.7414    0.0271   -1.4156 O   0  0  0  0  0
   -2.1657    0.1798   -1.5367 C   0  0  1  0  0
   -2.6919   -0.9199   -2.4721 C   0  0  0  0  0
   -4.2090   -1.1590   -2.3301 C   0  0  1  0  0
   -4.5921   -1.4662   -0.9469 N   0  0  0  0  0
   -3.9973   -2.6574   -0.3730 C   0  0  0  0  0
   -4.3804   -2.8172    0.6403 H   0  0  0  0  0
   -2.9058   -2.6380   -0.3175 H   0  0  0  0  0
   -4.2846   -3.5374   -0.9583 H   0  0  0  0  0
   -4.3355   -0.2104   -0.2309 C   0  0  1  0  0
   -2.8323    0.1166   -0.1516 C   0  0  0  0  0
   -2.6931    1.0809    0.3536 H   0  0  0  0  0
   -2.3137   -0.6136    0.4818 H   0  0  0  0  0
   -5.0727    0.7804   -1.1472 C   0  0  0  0  0
   -5.0571    0.1076   -2.5296 C   0  0  1  0  0
   -4.5376    0.9626   -3.5289 O   0  0  0  0  0
   -5.0923    1.7603   -3.5472 H   0  0  0  0  0
   -6.0819   -0.1662   -2.8151 H   0  0  0  0  0
   -4.6233    1.7787   -1.1485 H   0  0  0  0  0
   -6.1138    0.8846   -0.8165 H   0  0  0  0  0
   -4.7765   -0.2128    0.7716 H   0  0  0  0  0
   -4.5280   -1.9426   -3.0257 H   0  0  0  0  0
   -2.1459   -1.8547   -2.2920 H   0  0  0  0  0
   -2.4475   -0.6520   -3.5078 H   0  0  0  0  0
   -2.3756    1.1550   -1.9957 H   0  0  0  0  0
    1.4644    0.8196   -1.0665 C   0  0  1  0  0
    2.3689    1.9453   -1.4998 C   0  0  0  0  0
    3.5843    1.4226   -2.0107 O   0  0  0  0  0
    4.1310    2.1810   -2.2791 H   0  0  0  0  0
    2.5896    2.6165   -0.6551 H   0  0  0  0  0
    1.8832    2.5411   -2.2798 H   0  0  0  0  0
    1.7585    0.3146    0.3324 C   0  0  0  0  0
    2.7792   -0.6240    0.5415 C   0  0  0  0  0
    3.0585   -1.0959    1.8245 C   0  0  0  0  0
    2.3205   -0.6391    2.9128 C   0  0  0  0  0
    1.2990    0.2884    2.7215 C   0  0  0  0  0
    1.0180    0.7614    1.4384 C   0  0  0  0  0
    0.2137    1.4808    1.3074 H   0  0  0  0  0
    0.7199    0.6433    3.5678 H   0  0  0  0  0
    2.5384   -1.0072    3.9116 H   0  0  0  0  0
    3.8515   -1.8219    1.9741 H   0  0  0  0  0
    3.3653   -0.9950   -0.2955 H   0  0  0  0  0
    1.6346   -0.0122   -1.7690 H   0  0  0  0  0
  1  2  2  0  0  0
  2  3  1  0  0  0
  2 28  1  0  0  0
  3  4  1  0  0  0
  4  5  1  0  0  0
  4 13  1  0  0  0
  4 27  1  0  0  0
  5  6  1  0  0  0
  5 25  1  0  0  0
  5 26  1  0  0  0
  6  7  1  0  0  0
  6 17  1  0  0  0
  6 24  1  0  0  0
  7  8  1  0  0  0
  7 12  1  0  0  0
  8  9  1  0  0  0
  8 10  1  0  0  0
  8 11  1  0  0  0
 12 13  1  0  0  0
 12 16  1  0  0  0
 12 23  1  0  0  0
 13 14  1  0  0  0
 13 15  1  0  0  0
 16 17  1  0  0  0
 16 21  1  0  0  0
 16 22  1  0  0  0
 17 18  1  0  0  0
 17 20  1  0  0  0
 18 19  1  0  0  0
 28 29  1  0  0  0
 28 34  1  0  0  0
 28 45  1  0  0  0
 29 30  1  0  0  0
 29 32  1  0  0  0
 29 33  1  0  0  0
 30 31  1  0  0  0
 34 35  2  0  0  0
 34 39  1  0  0  0
 35 36  1  0  0  0
 35 44  1  0  0  0
 36 37  2  0  0  0
 36 43  1  0  0  0
 37 38  1  0  0  0
 37 42  1  0  0  0
 38 39  2  0  0  0
 38 41  1  0  0  0
 39 40  1  0  0  0
M  END
> <Tumorigenic>
none

> <Score>
34.959038

> <Active/Decoy>
active

> <InChI>
InChI=1S/C17H23NO4/c1-18-12-7-13(9-15(18)16(20)8-12)22-17(21)14(10-19)11-5-3-2-4-6-11/h2-6,12-16,19-20H,7-10H2,1H3/t12-,13-,14+,15+,16-/m1/s1

> <Matching Features>
H:14924486185440016873||HBA:14924321692640012300|HBA:14924486112070016868

> <Mol. Index>
792

> <Pharmacophore Match>
Model -1

> <# Confs.>
25

> <Source Database>
Pharm-Screening-input-NANPDB_After_DataWarror.ldb

> <Pharmacophore-Fit Score>
34.96

> <formula>
C17H23NO4

> <Mutagenic>
none

> <Reproductive Effective>
none

> <Irritant>
none

$$$$
(IR*,2R*,3E,11R*,12S*)-2-O-acetyl-16-O-(3-hydroxy-3-methylglutaryi)-2,16,18-trihydroxy-dolabella-3,8(l 7)-dien-7-one
XX    ILIB03122402123D

 79 80  0  0  1  0              1 V2000
   -0.4667   -4.7601    0.8805 O   0  0  0  0  0
   -1.0108   -4.1815   -0.0578 C   0  0  0  0  0
   -0.1930   -3.6775   -1.1942 C   0  0  0  0  0
   -0.4180   -4.2101   -2.4006 C   0  0  0  0  0
   -1.1804   -4.9652   -2.5627 H   0  0  0  0  0
    0.1639   -3.8981   -3.2620 H   0  0  0  0  0
    0.8662   -2.6576   -0.8842 C   0  0  0  0  0
    0.4483   -1.2538   -1.3303 C   0  0  0  0  0
    1.2468   -0.1075   -0.6774 C   0  0  2  0  0
    0.9320    0.2679    0.8186 C   0  0  2  0  0
   -0.5952    0.2711    1.2262 C   0  0  2  0  0
   -0.7116    0.8872    2.5169 O   0  0  0  0  0
   -1.4780    1.9978    2.5884 C   0  0  0  0  0
   -2.0809    2.5248    1.6630 O   0  0  0  0  0
   -1.5043    2.5011    4.0000 C   0  0  0  0  0
   -2.0127    3.4684    4.0292 H   0  0  0  0  0
   -0.4842    2.6385    4.3658 H   0  0  0  0  0
   -2.0475    1.7962    4.6336 H   0  0  0  0  0
   -1.2547   -1.0838    1.3629 C   0  0  0  0  0
   -2.4161   -1.4969    0.8248 C   0  0  0  0  0
   -2.8882   -2.9297    1.0617 C   0  0  0  0  0
   -2.5007   -3.8929   -0.0642 C   0  0  0  0  0
   -3.0117   -4.8522    0.0754 H   0  0  0  0  0
   -2.8163   -3.5130   -1.0406 H   0  0  0  0  0
   -3.9785   -2.9348    1.1797 H   0  0  0  0  0
   -2.4901   -3.3001    2.0158 H   0  0  0  0  0
   -3.3439   -0.6329    0.0503 C   0  0  0  0  0
   -3.5085   -1.1945   -1.2692 O   0  0  0  0  0
   -4.3165   -0.5090   -2.1191 C   0  0  0  0  0
   -4.9325    0.5169   -1.8624 O   0  0  0  0  0
   -4.3548   -1.1914   -3.4580 C   0  0  0  0  0
   -4.6026   -0.1979   -4.5861 C   0  0  1  0  0
   -5.8644    0.4391   -4.3641 O   0  0  0  0  0
   -5.7851    1.0014   -3.5757 H   0  0  0  0  0
   -3.5042    0.8550   -4.6595 C   0  0  0  0  0
   -2.1476    0.2349   -4.8941 C   0  0  0  0  0
   -1.3618   -0.1350   -4.0330 O   0  0  0  0  0
   -1.8710    0.1804   -6.2229 O   0  0  0  0  0
   -0.9854   -0.2032   -6.3967 H   0  0  0  0  0
   -3.7150    1.5569   -5.4743 H   0  0  0  0  0
   -3.4627    1.4241   -3.7227 H   0  0  0  0  0
   -4.7244   -0.9772   -5.9026 C   0  0  0  0  0
   -5.5112   -1.7375   -5.8308 H   0  0  0  0  0
   -3.7858   -1.4766   -6.1640 H   0  0  0  0  0
   -5.0158   -0.3226   -6.7320 H   0  0  0  0  0
   -5.1447   -1.9516   -3.4508 H   0  0  0  0  0
   -3.3945   -1.7002   -3.6062 H   0  0  0  0  0
   -4.3387   -0.5771    0.5277 H   0  0  0  0  0
   -2.9423    0.3791   -0.0278 H   0  0  0  0  0
   -0.7089   -1.8023    1.9710 H   0  0  0  0  0
   -1.1300    0.8794    0.4899 H   0  0  0  0  0
    1.4842    1.7183    0.8506 C   0  0  0  0  0
    1.0039    2.3482   -0.4410 C   0  0  0  0  0
    1.0471    1.2213   -1.4896 C   0  0  1  0  0
    2.1321    1.4696   -2.5544 C   0  0  0  0  0
    3.4150    1.5499   -1.9258 O   0  0  0  0  0
    3.4366    2.3495   -1.3754 H   0  0  0  0  0
    2.2036    0.3103   -3.5525 C   0  0  0  0  0
    2.4849   -0.6256   -3.0579 H   0  0  0  0  0
    1.2468    0.1611   -4.0644 H   0  0  0  0  0
    2.9757    0.4952   -4.3093 H   0  0  0  0  0
    1.8857    2.7831   -3.3039 C   0  0  0  0  0
    0.9135    2.7820   -3.8071 H   0  0  0  0  0
    2.6652    2.9532   -4.0553 H   0  0  0  0  0
    1.9263    3.6436   -2.6268 H   0  0  0  0  0
    0.0719    1.1982   -1.9950 H   0  0  0  0  0
    1.6094    3.2224   -0.6996 H   0  0  0  0  0
   -0.0259    2.7049   -0.3272 H   0  0  0  0  0
    2.5820    1.7142    0.8579 H   0  0  0  0  0
    1.1648    2.2953    1.7235 H   0  0  0  0  0
    1.7810   -0.5402    1.8234 C   0  0  0  0  0
    1.4792   -1.5852    1.8981 H   0  0  0  0  0
    1.7138   -0.1106    2.8299 H   0  0  0  0  0
    2.8405   -0.5328    1.5419 H   0  0  0  0  0
    2.3098   -0.3818   -0.7345 H   0  0  0  0  0
   -0.6218   -1.0867   -1.1986 H   0  0  0  0  0
    0.5885   -1.2178   -2.4177 H   0  0  0  0  0
    1.0829   -2.6857    0.1833 H   0  0  0  0  0
    1.8044   -2.9330   -1.3828 H   0  0  0  0  0
  1  2  2  0  0  0
  2  3  1  0  0  0
  2 22  1  0  0  0
  3  4  2  0  0  0
  3  7  1  0  0  0
  4  5  1  0  0  0
  4  6  1  0  0  0
  7  8  1  0  0  0
  7 78  1  0  0  0
  7 79  1  0  0  0
  8  9  1  0  0  0
  8 76  1  0  0  0
  8 77  1  0  0  0
  9 10  1  0  0  0
  9 54  1  0  0  0
  9 75  1  0  0  0
 10 11  1  0  0  0
 10 52  1  0  0  0
 10 71  1  0  0  0
 11 12  1  0  0  0
 11 19  1  0  0  0
 11 51  1  0  0  0
 12 13  1  0  0  0
 13 14  2  0  0  0
 13 15  1  0  0  0
 15 16  1  0  0  0
 15 17  1  0  0  0
 15 18  1  0  0  0
 19 20  2  0  0  0
 19 50  1  0  0  0
 20 21  1  0  0  0
 20 27  1  0  0  0
 21 22  1  0  0  0
 21 25  1  0  0  0
 21 26  1  0  0  0
 22 23  1  0  0  0
 22 24  1  0  0  0
 27 28  1  0  0  0
 27 48  1  0  0  0
 27 49  1  0  0  0
 28 29  1  0  0  0
 29 30  2  0  0  0
 29 31  1  0  0  0
 31 32  1  0  0  0
 31 46  1  0  0  0
 31 47  1  0  0  0
 32 33  1  0  0  0
 32 35  1  0  0  0
 32 42  1  0  0  0
 33 34  1  0  0  0
 35 36  1  0  0  0
 35 40  1  0  0  0
 35 41  1  0  0  0
 36 37  2  0  0  0
 36 38  1  0  0  0
 38 39  1  0  0  0
 42 43  1  0  0  0
 42 44  1  0  0  0
 42 45  1  0  0  0
 52 53  1  0  0  0
 52 69  1  0  0  0
 52 70  1  0  0  0
 53 54  1  0  0  0
 53 67  1  0  0  0
 53 68  1  0  0  0
 54 55  1  0  0  0
 54 66  1  0  0  0
 55 56  1  0  0  0
 55 58  1  0  0  0
 55 62  1  0  0  0
 56 57  1  0  0  0
 58 59  1  0  0  0
 58 60  1  0  0  0
 58 61  1  0  0  0
 62 63  1  0  0  0
 62 64  1  0  0  0
 62 65  1  0  0  0
 71 72  1  0  0  0
 71 73  1  0  0  0
 71 74  1  0  0  0
M  END
> <Tumorigenic>
none

> <Score>
34.947174

> <Active/Decoy>
active

> <InChI>
InChI=1S/C28H42O9/c1-17-7-9-21-20(26(3,4)34)11-12-28(21,6)23(37-18(2)29)13-19(8-10-22(17)30)16-36-25(33)15-27(5,35)14-24(31)32/h13,20-21,23,34-35H,1,7-12,14-16H2,2-6H3,(H,31,32)/b19-13-/t20-,21+,23-,27+,28-/m1/s1

> <Matching Features>
H:14924486185440016873||HBA:14924321692640012300|HBA:14924486112070016868

> <Mol. Index>
519

> <Pharmacophore Match>
Model -1

> <# Confs.>
25

> <Source Database>
Pharm-Screening-input-NANPDB_After_DataWarror.ldb

> <Pharmacophore-Fit Score>
34.95

> <formula>
C28H42O9

> <Mutagenic>
none

> <Reproductive Effective>
none

> <Irritant>
none

$$$$
coladonin
XX    ILIB03122402123D

 58 61  0  0  1  0              1 V2000
    5.6837    1.5102   -1.5365 O   0  0  0  0  0
    5.0217    1.1242   -0.5790 C   0  0  0  0  0
    3.6780    0.7898   -0.6987 O   0  0  0  0  0
    2.9241    0.3454    0.4081 C   0  0  0  0  0
    3.5176    0.2173    1.6603 C   0  0  0  0  0
    2.7406   -0.2299    2.7285 C   0  0  0  0  0
    1.3919   -0.5396    2.5291 C   0  0  0  0  0
    0.8007   -0.3936    1.2665 C   0  0  0  0  0
    1.5759    0.0554    0.1945 C   0  0  0  0  0
    1.1653    0.1740   -0.8031 H   0  0  0  0  0
   -0.5266   -0.7367    1.2051 O   0  0  0  0  0
   -1.1426   -0.6303   -0.0721 C   0  0  0  0  0
   -2.6045   -1.0207    0.0040 C   0  0  1  0  0
   -3.4276   -0.9571   -1.3588 C   0  0  1  0  0
   -4.9533   -1.1917   -0.9841 C   0  0  1  0  0
   -6.0166   -0.8771   -2.1034 C   0  0  0  0  0
   -5.7267    0.5345   -2.6880 C   0  0  2  0  0
   -6.5834    0.8033   -3.7977 O   0  0  0  0  0
   -6.4022    1.7104   -4.0983 H   0  0  0  0  0
   -4.2809    0.7251   -3.1293 C   0  0  0  0  0
   -3.3021    0.4631   -1.9900 C   0  0  0  0  0
   -2.2890    0.6160   -2.3791 H   0  0  0  0  0
   -3.4651    1.2267   -1.2190 H   0  0  0  0  0
   -4.1457    1.7544   -3.4852 H   0  0  0  0  0
   -4.0558    0.0983   -3.9982 H   0  0  0  0  0
   -5.9560    1.2890   -1.9248 H   0  0  0  0  0
   -6.0995   -1.9406   -3.2193 C   0  0  0  0  0
   -6.1840   -2.9524   -2.8123 H   0  0  0  0  0
   -5.2465   -1.9163   -3.8959 H   0  0  0  0  0
   -6.9844   -1.7830   -3.8463 H   0  0  0  0  0
   -7.4344   -0.8245   -1.4684 C   0  0  0  0  0
   -8.1821   -0.4625   -2.1830 H   0  0  0  0  0
   -7.7714   -1.8120   -1.1378 H   0  0  0  0  0
   -7.4586   -0.1525   -0.6036 H   0  0  0  0  0
   -5.1485   -2.5606   -0.2901 C   0  0  0  0  0
   -4.2685   -2.6998    0.9543 C   0  0  0  0  0
   -2.8249   -2.3981    0.6427 C   0  0  0  0  0
   -1.8716   -3.3071    0.9037 C   0  0  0  0  0
   -0.8272   -3.1392    0.6689 H   0  0  0  0  0
   -2.1164   -4.2637    1.3534 H   0  0  0  0  0
   -4.6147   -2.0056    1.7299 H   0  0  0  0  0
   -4.3918   -3.7095    1.3646 H   0  0  0  0  0
   -6.1861   -2.6891    0.0305 H   0  0  0  0  0
   -4.9344   -3.3820   -0.9814 H   0  0  0  0  0
   -5.1696   -0.4455   -0.2013 H   0  0  0  0  0
   -2.8668   -1.9840   -2.3571 C   0  0  0  0  0
   -2.9991   -3.0147   -2.0191 H   0  0  0  0  0
   -1.7837   -1.8318   -2.5242 H   0  0  0  0  0
   -3.3161   -1.9104   -3.3458 H   0  0  0  0  0
   -3.0571   -0.2958    0.6878 H   0  0  0  0  0
   -0.6084   -1.2027   -0.8426 H   0  0  0  0  0
   -1.0671    0.4274   -0.3927 H   0  0  0  0  0
    0.7950   -0.8698    3.3757 H   0  0  0  0  0
    3.1682   -0.3382    3.7221 H   0  0  0  0  0
    4.9203    0.5610    1.8105 C   0  0  0  0  0
    5.6262    0.9813    0.7580 C   0  0  0  0  0
    6.6767    1.2314    0.8603 H   0  0  0  0  0
    5.3854    0.4622    2.7847 H   0  0  0  0  0
  1  2  2  0  0  0
  2  3  1  0  0  0
  2 56  1  0  0  0
  3  4  1  0  0  0
  4  5  2  0  0  0
  4  9  1  0  0  0
  5  6  1  0  0  0
  5 55  1  0  0  0
  6  7  2  0  0  0
  6 54  1  0  0  0
  7  8  1  0  0  0
  7 53  1  0  0  0
  8  9  2  0  0  0
  8 11  1  0  0  0
  9 10  1  0  0  0
 11 12  1  0  0  0
 12 13  1  0  0  0
 12 51  1  0  0  0
 12 52  1  0  0  0
 13 14  1  0  0  0
 13 37  1  0  0  0
 13 50  1  0  0  0
 14 15  1  0  0  0
 14 21  1  0  0  0
 14 46  1  0  0  0
 15 16  1  0  0  0
 15 35  1  0  0  0
 15 45  1  0  0  0
 16 17  1  0  0  0
 16 27  1  0  0  0
 16 31  1  0  0  0
 17 18  1  0  0  0
 17 20  1  0  0  0
 17 26  1  0  0  0
 18 19  1  0  0  0
 20 21  1  0  0  0
 20 24  1  0  0  0
 20 25  1  0  0  0
 21 22  1  0  0  0
 21 23  1  0  0  0
 27 28  1  0  0  0
 27 29  1  0  0  0
 27 30  1  0  0  0
 31 32  1  0  0  0
 31 33  1  0  0  0
 31 34  1  0  0  0
 35 36  1  0  0  0
 35 43  1  0  0  0
 35 44  1  0  0  0
 36 37  1  0  0  0
 36 41  1  0  0  0
 36 42  1  0  0  0
 37 38  2  0  0  0
 38 39  1  0  0  0
 38 40  1  0  0  0
 46 47  1  0  0  0
 46 48  1  0  0  0
 46 49  1  0  0  0
 55 56  2  0  0  0
 55 58  1  0  0  0
 56 57  1  0  0  0
M  END
> <Tumorigenic>
none

> <Score>
34.944702

> <Active/Decoy>
active

> <InChI>
InChI=1S/C24H30O4/c1-15-5-9-20-23(2,3)21(25)11-12-24(20,4)18(15)14-27-17-8-6-16-7-10-22(26)28-19(16)13-17/h6-8,10,13,18,20-21,25H,1,5,9,11-12,14H2,2-4H3/t18-,20-,21-,24+/m1/s1

> <Matching Features>
H:14924486185440016873||HBA:14924321692640012300|HBA:14924486112070016868

> <Mol. Index>
892

> <Pharmacophore Match>
Model -1

> <# Confs.>
25

> <Source Database>
Pharm-Screening-input-NANPDB_After_DataWarror.ldb

> <Pharmacophore-Fit Score>
34.94

> <formula>
C24H30O4

> <Mutagenic>
none

> <Reproductive Effective>
none

> <Irritant>
none

$$$$
3-alpha-hydroxycativic acid methyl esther
XX    ILIB03122402123D

 60 61  0  0  1  0              1 V2000
   -4.4091    0.9050   -3.3353 O   0  0  0  0  0
   -3.2275    0.9490   -3.0194 C   0  0  0  0  0
   -2.5146   -0.0537   -2.4520 O   0  0  0  0  0
   -3.2445   -1.2619   -2.2146 C   0  0  0  0  0
   -3.6318   -1.6636   -3.1564 H   0  0  0  0  0
   -2.5602   -1.9931   -1.7760 H   0  0  0  0  0
   -4.0604   -1.0762   -1.5095 H   0  0  0  0  0
   -2.3720    2.1574   -3.1783 C   0  0  0  0  0
   -2.4076    3.0499   -1.9538 C   0  0  2  0  0
   -1.9256    2.3903   -0.6638 C   0  0  0  0  0
   -0.4731    1.8753   -0.6658 C   0  0  0  0  0
    0.0132    1.2032    0.6257 C   0  0  1  0  0
    1.5233    0.6815    0.5774 C   0  0  2  0  0
    2.4790    1.9289    0.6268 C   0  0  2  0  0
    4.0038    1.6696    0.3075 C   0  0  0  0  0
    4.1485    0.7796   -0.9624 C   0  0  2  0  0
    3.8438    1.5104   -2.1531 O   0  0  0  0  0
    2.9480    1.8778   -2.0748 H   0  0  0  0  0
    3.2777   -0.4778   -0.9253 C   0  0  0  0  0
    1.7999   -0.1488   -0.7043 C   0  0  0  0  0
    1.4687    0.3840   -1.5964 H   0  0  0  0  0
    1.2220   -1.0809   -0.6781 H   0  0  0  0  0
    3.6402   -1.1694   -0.1592 H   0  0  0  0  0
    3.3653   -1.0036   -1.8837 H   0  0  0  0  0
    5.1926    0.4692   -1.0738 H   0  0  0  0  0
    4.7018    3.0301    0.0433 C   0  0  0  0  0
    4.7707    3.6310    0.9557 H   0  0  0  0  0
    5.7244    2.8809   -0.3224 H   0  0  0  0  0
    4.1664    3.6253   -0.7041 H   0  0  0  0  0
    4.7870    1.0098    1.4635 C   0  0  0  0  0
    5.8432    0.8925    1.1897 H   0  0  0  0  0
    4.7739    1.6166    2.3739 H   0  0  0  0  0
    4.4278    0.0152    1.7175 H   0  0  0  0  0
    2.2443    2.7666    1.9053 C   0  0  0  0  0
    0.8162    2.8390    2.3563 C   0  0  0  0  0
   -0.1977    2.1425    1.8151 C   0  0  0  0  0
   -1.5696    2.2125    2.4287 C   0  0  0  0  0
   -1.5494    2.6788    3.4197 H   0  0  0  0  0
   -1.9850    1.2085    2.5569 H   0  0  0  0  0
   -2.2515    2.8004    1.8106 H   0  0  0  0  0
    0.6278    3.4783    3.2167 H   0  0  0  0  0
    2.8177    2.3666    2.7459 H   0  0  0  0  0
    2.5976    3.7904    1.7404 H   0  0  0  0  0
    2.1398    2.5756   -0.1941 H   0  0  0  0  0
    1.6994   -0.2770    1.7937 C   0  0  0  0  0
    1.7015    0.2424    2.7556 H   0  0  0  0  0
    2.6122   -0.8697    1.7447 H   0  0  0  0  0
    0.8809   -1.0070    1.8270 H   0  0  0  0  0
   -0.6203    0.3183    0.7766 H   0  0  0  0  0
    0.2029    2.7038   -0.9135 H   0  0  0  0  0
   -0.3785    1.1521   -1.4871 H   0  0  0  0  0
   -2.5937    1.5630   -0.4170 H   0  0  0  0  0
   -2.0227    3.1223    0.1491 H   0  0  0  0  0
   -3.7923    3.6822   -1.7620 C   0  0  0  0  0
   -3.7891    4.3821   -0.9194 H   0  0  0  0  0
   -4.5582    2.9253   -1.5666 H   0  0  0  0  0
   -4.0908    4.2403   -2.6556 H   0  0  0  0  0
   -1.7128    3.8956   -2.1457 H   0  0  0  0  0
   -2.7147    2.7286   -4.0628 H   0  0  0  0  0
   -1.3381    1.8379   -3.3823 H   0  0  0  0  0
  1  2  2  0  0  0
  2  3  1  0  0  0
  2  8  1  0  0  0
  3  4  1  0  0  0
  4  5  1  0  0  0
  4  6  1  0  0  0
  4  7  1  0  0  0
  8  9  1  0  0  0
  8 59  1  0  0  0
  8 60  1  0  0  0
  9 10  1  0  0  0
  9 54  1  0  0  0
  9 58  1  0  0  0
 10 11  1  0  0  0
 10 52  1  0  0  0
 10 53  1  0  0  0
 11 12  1  0  0  0
 11 50  1  0  0  0
 11 51  1  0  0  0
 12 13  1  0  0  0
 12 36  1  0  0  0
 12 49  1  0  0  0
 13 14  1  0  0  0
 13 20  1  0  0  0
 13 45  1  0  0  0
 14 15  1  0  0  0
 14 34  1  0  0  0
 14 44  1  0  0  0
 15 16  1  0  0  0
 15 26  1  0  0  0
 15 30  1  0  0  0
 16 17  1  0  0  0
 16 19  1  0  0  0
 16 25  1  0  0  0
 17 18  1  0  0  0
 19 20  1  0  0  0
 19 23  1  0  0  0
 19 24  1  0  0  0
 20 21  1  0  0  0
 20 22  1  0  0  0
 26 27  1  0  0  0
 26 28  1  0  0  0
 26 29  1  0  0  0
 30 31  1  0  0  0
 30 32  1  0  0  0
 30 33  1  0  0  0
 34 35  1  0  0  0
 34 42  1  0  0  0
 34 43  1  0  0  0
 35 36  2  0  0  0
 35 41  1  0  0  0
 36 37  1  0  0  0
 37 38  1  0  0  0
 37 39  1  0  0  0
 37 40  1  0  0  0
 45 46  1  0  0  0
 45 47  1  0  0  0
 45 48  1  0  0  0
 54 55  1  0  0  0
 54 56  1  0  0  0
 54 57  1  0  0  0
M  END
> <Tumorigenic>
none

> <Score>
34.937374

> <Active/Decoy>
active

> <InChI>
InChI=1S/C21H36O3/c1-14(13-19(23)24-6)7-9-16-15(2)8-10-17-20(3,4)18(22)11-12-21(16,17)5/h8,14,16-18,22H,7,9-13H2,1-6H3/t14-,16-,17-,18+,21+/m0/s1

> <Matching Features>
H:14924486185440016873||HBA:14924321692640012300|HBA:14924486112070016868

> <Mol. Index>
471

> <Pharmacophore Match>
Model -1

> <# Confs.>
25

> <Source Database>
Pharm-Screening-input-NANPDB_After_DataWarror.ldb

> <Pharmacophore-Fit Score>
34.94

> <formula>
C21H36O3

> <Mutagenic>
none

> <Reproductive Effective>
none

> <Irritant>
none

$$$$
euphoscopin J
XX    ILIB03122402123D

 79 81  0  0  1  0              1 V2000
   -0.7619   -2.2005   -3.3269 O   0  0  0  0  0
   -1.1154   -2.4541   -2.1715 C   0  0  0  0  0
   -0.1256   -3.0401   -1.1375 C   0  0  0  0  0
    0.0978   -1.9344   -0.1265 C   0  0  0  0  0
    1.1899   -1.1694    0.0380 C   0  0  0  0  0
    1.2268   -0.0027    0.9966 C   0  0  2  0  0
    1.7726    1.3201    0.3817 C   0  0  1  0  0
    3.1999    1.2653    0.2839 O   0  0  0  0  0
    3.4427    0.4417   -0.1689 H   0  0  0  0  0
    1.1570    1.8157   -0.9720 C   0  0  1  0  0
    1.4195    0.8861   -2.0374 O   0  0  0  0  0
    2.5630    1.0682   -2.7529 C   0  0  0  0  0
    3.6083    1.5518   -2.3399 O   0  0  0  0  0
    2.3721    0.5555   -4.1485 C   0  0  0  0  0
    3.1661    0.9476   -4.7900 H   0  0  0  0  0
    2.4129   -0.5353   -4.1485 H   0  0  0  0  0
    1.4147    0.9041   -4.5477 H   0  0  0  0  0
   -0.4087    2.0328   -0.8522 C   0  0  1  0  0
   -0.6541    3.4465   -1.3937 C   0  0  1  0  0
   -1.7896    4.0793   -0.7614 O   0  0  0  0  0
   -2.8294    4.4330   -1.5668 C   0  0  0  0  0
   -2.8943    4.3039   -2.7789 O   0  0  0  0  0
   -3.9088    5.0308   -0.7588 C   0  0  0  0  0
   -4.7294    6.0055   -1.3275 C   0  0  0  0  0
   -5.7561    6.5586   -0.5640 C   0  0  0  0  0
   -5.9577    6.1337    0.7507 C   0  0  0  0  0
   -5.1332    5.1536    1.3071 C   0  0  0  0  0
   -4.1026    4.5946    0.5517 C   0  0  0  0  0
   -3.4664    3.8311    0.9887 H   0  0  0  0  0
   -5.2965    4.8261    2.3298 H   0  0  0  0  0
   -6.7602    6.5656    1.3417 H   0  0  0  0  0
   -6.4008    7.3188   -0.9929 H   0  0  0  0  0
   -4.5783    6.3366   -2.3513 H   0  0  0  0  0
    0.6091    4.2055   -0.9674 C   0  0  1  0  0
    1.7035    3.2218   -1.3614 C   0  0  0  0  0
    1.8836    3.2856   -2.4421 H   0  0  0  0  0
    2.6480    3.4674   -0.8654 H   0  0  0  0  0
    0.7582    5.5622   -1.6390 C   0  0  0  0  0
    0.7385    5.4747   -2.7305 H   0  0  0  0  0
   -0.0521    6.2347   -1.3405 H   0  0  0  0  0
    1.7068    6.0287   -1.3554 H   0  0  0  0  0
    0.6116    4.3603    0.1200 H   0  0  0  0  0
   -0.7590    3.4673   -2.4841 H   0  0  0  0  0
   -1.2594    1.0272   -1.5812 C   0  0  0  0  0
   -2.3016    0.3020   -1.1256 C   0  0  0  0  0
   -2.9687   -0.7083   -2.0583 C   0  0  2  0  0
   -4.3953   -0.5896   -1.9214 O   0  0  0  0  0
   -5.0281    0.2902   -2.7473 C   0  0  0  0  0
   -4.5008    0.9938   -3.5979 O   0  0  0  0  0
   -6.5018    0.2587   -2.4811 C   0  0  0  0  0
   -6.9691    1.1424   -2.9259 H   0  0  0  0  0
   -6.9374   -0.6410   -2.9245 H   0  0  0  0  0
   -6.6902    0.2865   -1.4045 H   0  0  0  0  0
   -2.5524   -2.1573   -1.7458 C   0  0  0  0  0
   -3.1931   -2.8653   -2.2828 H   0  0  0  0  0
   -2.7094   -2.3763   -0.6857 H   0  0  0  0  0
   -2.7042   -0.4717   -3.0992 H   0  0  0  0  0
   -2.8738    0.4092    0.2639 C   0  0  0  0  0
   -2.8986   -0.5687    0.7523 H   0  0  0  0  0
   -3.8974    0.7954    0.2193 H   0  0  0  0  0
   -2.3125    1.0764    0.9193 H   0  0  0  0  0
   -0.9774    0.8801   -2.6235 H   0  0  0  0  0
   -0.6661    2.0560    0.2154 H   0  0  0  0  0
    1.5788    2.1047    1.1247 H   0  0  0  0  0
    2.0247   -0.4076    2.2433 C   0  0  0  0  0
    3.0524   -0.6961    1.9960 H   0  0  0  0  0
    2.0661    0.4189    2.9599 H   0  0  0  0  0
    1.5550   -1.2600    2.7463 H   0  0  0  0  0
    0.2023    0.2048    1.3313 H   0  0  0  0  0
    2.0819   -1.3544   -0.5504 H   0  0  0  0  0
   -0.7544   -1.7163    0.5144 H   0  0  0  0  0
   -0.7210   -4.2810   -0.4560 C   0  0  0  0  0
   -1.5817   -4.0426    0.1778 H   0  0  0  0  0
   -1.0601   -5.0121   -1.1988 H   0  0  0  0  0
    0.0190   -4.7734    0.1868 H   0  0  0  0  0
    1.1605   -3.4821   -1.8655 C   0  0  0  0  0
    1.9091   -3.8610   -1.1602 H   0  0  0  0  0
    0.9469   -4.2833   -2.5831 H   0  0  0  0  0
    1.6171   -2.6630   -2.4325 H   0  0  0  0  0
  1  2  2  0  0  0
  2  3  1  0  0  0
  2 54  1  0  0  0
  3  4  1  0  0  0
  3 72  1  0  0  0
  3 76  1  0  0  0
  4  5  2  0  0  0
  4 71  1  0  0  0
  5  6  1  0  0  0
  5 70  1  0  0  0
  6  7  1  0  0  0
  6 65  1  0  0  0
  6 69  1  0  0  0
  7  8  1  0  0  0
  7 10  1  0  0  0
  7 64  1  0  0  0
  8  9  1  0  0  0
 10 11  1  0  0  0
 10 18  1  0  0  0
 10 35  1  0  0  0
 11 12  1  0  0  0
 12 13  2  0  0  0
 12 14  1  0  0  0
 14 15  1  0  0  0
 14 16  1  0  0  0
 14 17  1  0  0  0
 18 19  1  0  0  0
 18 44  1  0  0  0
 18 63  1  0  0  0
 19 20  1  0  0  0
 19 34  1  0  0  0
 19 43  1  0  0  0
 20 21  1  0  0  0
 21 22  2  0  0  0
 21 23  1  0  0  0
 23 24  2  0  0  0
 23 28  1  0  0  0
 24 25  1  0  0  0
 24 33  1  0  0  0
 25 26  2  0  0  0
 25 32  1  0  0  0
 26 27  1  0  0  0
 26 31  1  0  0  0
 27 28  2  0  0  0
 27 30  1  0  0  0
 28 29  1  0  0  0
 34 35  1  0  0  0
 34 38  1  0  0  0
 34 42  1  0  0  0
 35 36  1  0  0  0
 35 37  1  0  0  0
 38 39  1  0  0  0
 38 40  1  0  0  0
 38 41  1  0  0  0
 44 45  2  0  0  0
 44 62  1  0  0  0
 45 46  1  0  0  0
 45 58  1  0  0  0
 46 47  1  0  0  0
 46 54  1  0  0  0
 46 57  1  0  0  0
 47 48  1  0  0  0
 48 49  2  0  0  0
 48 50  1  0  0  0
 50 51  1  0  0  0
 50 52  1  0  0  0
 50 53  1  0  0  0
 54 55  1  0  0  0
 54 56  1  0  0  0
 58 59  1  0  0  0
 58 60  1  0  0  0
 58 61  1  0  0  0
 65 66  1  0  0  0
 65 67  1  0  0  0
 65 68  1  0  0  0
 72 73  1  0  0  0
 72 74  1  0  0  0
 72 75  1  0  0  0
 76 77  1  0  0  0
 76 78  1  0  0  0
 76 79  1  0  0  0
M  END
> <Tumorigenic>
none

> <Score>
34.930733

> <Active/Decoy>
active

> <InChI>
InChI=1S/C31H40O8/c1-18-13-14-30(6,7)26(34)16-25(37-21(4)32)19(2)15-24-27(38-29(36)23-11-9-8-10-12-23)20(3)17-31(24,28(18)35)39-22(5)33/h8-15,18,20,24-25,27-28,35H,16-17H2,1-7H3/b14-13+,19-15+/t18-,20-,24+,25-,27+,28-,31?/m1/s1

> <Matching Features>
H:14924486185440016873||HBA:14924321692640012300|HBA:14924486112070016868

> <Mol. Index>
491

> <Pharmacophore Match>
Model -1

> <# Confs.>
25

> <Source Database>
Pharm-Screening-input-NANPDB_After_DataWarror.ldb

> <Pharmacophore-Fit Score>
34.93

> <formula>
C31H40O8

> <Mutagenic>
none

> <Reproductive Effective>
none

> <Irritant>
none

$$$$
1-(4-hydroxy-3-((Z)-4-hydroxy-3-methylbut-2-enyl)-5-(3-methylbut-2-enyl)phenyl)ethanone
XX    ILIB03122402123D

 45 45  0  0  1  0              1 V2000
    4.7142    1.6987   -2.3533 O   0  0  0  0  0
    3.7056    2.4021   -2.3865 C   0  0  0  0  0
    2.4141    1.8301   -2.0012 C   0  0  0  0  0
    1.2218    2.2832   -2.5741 C   0  0  0  0  0
   -0.0177    1.7379   -2.2073 C   0  0  0  0  0
   -0.0272    0.6868   -1.2564 C   0  0  0  0  0
   -1.1964    0.0909   -0.8570 O   0  0  0  0  0
   -1.9405    0.4276   -1.3797 H   0  0  0  0  0
    1.1634    0.2161   -0.6754 C   0  0  0  0  0
    2.3823    0.7934   -1.0636 C   0  0  0  0  0
    3.3032    0.4453   -0.5989 H   0  0  0  0  0
    1.1647   -0.8731    0.3595 C   0  0  0  0  0
    1.0530   -0.3448    1.7571 C   0  0  0  0  0
    1.9255   -0.4979    2.7724 C   0  0  0  0  0
    3.2027   -1.2857    2.7059 C   0  0  0  0  0
    3.3049   -1.8757    1.7928 H   0  0  0  0  0
    4.0615   -0.6106    2.7702 H   0  0  0  0  0
    3.2542   -1.9902    3.5428 H   0  0  0  0  0
    1.6580    0.1418    4.1084 C   0  0  0  0  0
    1.5775   -0.6238    4.8863 H   0  0  0  0  0
    0.7308    0.7231    4.1171 H   0  0  0  0  0
    2.4772    0.8194    4.3736 H   0  0  0  0  0
    0.1572    0.2482    1.9394 H   0  0  0  0  0
    2.0729   -1.4793    0.2398 H   0  0  0  0  0
    0.3266   -1.5566    0.1735 H   0  0  0  0  0
   -1.2677    2.2561   -2.8422 C   0  0  0  0  0
   -1.6188    1.5260   -4.1109 C   0  0  0  0  0
   -2.8573    1.3175   -4.6133 C   0  0  0  0  0
   -4.1268    1.7829   -3.9761 C   0  0  0  0  0
   -4.6347    0.7857   -3.0994 O   0  0  0  0  0
   -4.8204   -0.0073   -3.6309 H   0  0  0  0  0
   -4.9003    2.0137   -4.7171 H   0  0  0  0  0
   -3.9447    2.6902   -3.3914 H   0  0  0  0  0
   -3.0308    0.5559   -5.9021 C   0  0  0  0  0
   -3.6364   -0.3401   -5.7336 H   0  0  0  0  0
   -3.5311    1.1794   -6.6498 H   0  0  0  0  0
   -2.0747    0.2331   -6.3281 H   0  0  0  0  0
   -0.7771    1.1049   -4.6497 H   0  0  0  0  0
   -1.1330    3.3282   -3.0512 H   0  0  0  0  0
   -2.1000    2.1856   -2.1470 H   0  0  0  0  0
    1.2327    3.0801   -3.3141 H   0  0  0  0  0
    3.7169    3.8388   -2.8177 C   0  0  0  0  0
    4.3349    4.4113   -2.1217 H   0  0  0  0  0
    4.1226    3.9127   -3.8294 H   0  0  0  0  0
    2.7087    4.2607   -2.8164 H   0  0  0  0  0
  1  2  2  0  0  0
  2  3  1  0  0  0
  2 42  1  0  0  0
  3  4  2  0  0  0
  3 10  1  0  0  0
  4  5  1  0  0  0
  4 41  1  0  0  0
  5  6  2  0  0  0
  5 26  1  0  0  0
  6  7  1  0  0  0
  6  9  1  0  0  0
  7  8  1  0  0  0
  9 10  2  0  0  0
  9 12  1  0  0  0
 10 11  1  0  0  0
 12 13  1  0  0  0
 12 24  1  0  0  0
 12 25  1  0  0  0
 13 14  2  0  0  0
 13 23  1  0  0  0
 14 15  1  0  0  0
 14 19  1  0  0  0
 15 16  1  0  0  0
 15 17  1  0  0  0
 15 18  1  0  0  0
 19 20  1  0  0  0
 19 21  1  0  0  0
 19 22  1  0  0  0
 26 27  1  0  0  0
 26 39  1  0  0  0
 26 40  1  0  0  0
 27 28  2  0  0  0
 27 38  1  0  0  0
 28 29  1  0  0  0
 28 34  1  0  0  0
 29 30  1  0  0  0
 29 32  1  0  0  0
 29 33  1  0  0  0
 30 31  1  0  0  0
 34 35  1  0  0  0
 34 36  1  0  0  0
 34 37  1  0  0  0
 42 43  1  0  0  0
 42 44  1  0  0  0
 42 45  1  0  0  0
M  END
> <Tumorigenic>
none

> <Score>
34.902336

> <Active/Decoy>
active

> <InChI>
InChI=1S/C18H24O3/c1-12(2)5-7-15-9-17(14(4)20)10-16(18(15)21)8-6-13(3)11-19/h5-6,9-10,19,21H,7-8,11H2,1-4H3/b13-6-

> <Matching Features>
H:14924486185440016873||HBA:14924321692640012300|HBA:14924486112070016868

> <Mol. Index>
429

> <Pharmacophore Match>
Model -1

> <# Confs.>
25

> <Source Database>
Pharm-Screening-input-NANPDB_After_DataWarror.ldb

> <Pharmacophore-Fit Score>
34.9

> <formula>
C18H24O3

> <Mutagenic>
none

> <Reproductive Effective>
none

> <Irritant>
none

$$$$
euphoscopin N
XX    ILIB03122402123D

 83 85  0  0  1  0              1 V2000
   -1.2651    1.6041    3.9010 O   0  0  0  0  0
   -1.2191    2.1755    2.8108 C   0  0  0  0  0
   -2.4623    2.8128    2.2804 C   0  0  0  0  0
   -3.4530    1.9494    1.9949 C   0  0  0  0  0
   -4.8359    2.2758    1.4870 C   0  0  0  0  0
   -5.1124    1.8091    0.0260 C   0  0  0  0  0
   -4.2235    2.6209   -0.9434 C   0  0  0  0  0
   -3.9377    3.7973   -0.6914 O   0  0  0  0  0
   -3.7926    2.0186   -2.2766 C   0  0  1  0  0
   -4.4779    2.8489   -3.2263 O   0  0  0  0  0
   -5.3493    2.2273   -4.0512 C   0  0  0  0  0
   -5.6079    1.0309   -4.0655 O   0  0  0  0  0
   -5.9813    3.2341   -4.9641 C   0  0  0  0  0
   -6.5881    3.9284   -4.3790 H   0  0  0  0  0
   -6.6255    2.7212   -5.6816 H   0  0  0  0  0
   -5.2069    3.7698   -5.5186 H   0  0  0  0  0
   -2.2720    2.1671   -2.4888 C   0  0  2  0  0
   -1.9584    1.6836   -3.8028 O   0  0  0  0  0
   -1.9987    2.5902   -4.8043 C   0  0  0  0  0
   -2.2743    3.7773   -4.6983 O   0  0  0  0  0
   -1.6361    1.9242   -6.0984 C   0  0  0  0  0
   -0.5969    1.5879   -6.0611 H   0  0  0  0  0
   -1.7466    2.6391   -6.9182 H   0  0  0  0  0
   -2.3081    1.0831   -6.2847 H   0  0  0  0  0
   -1.4611    1.3883   -1.4582 C   0  0  0  0  0
   -0.8391    2.0508   -0.4604 C   0  0  0  0  0
   -0.0100    1.4483    0.6404 C   0  0  2  0  0
    0.0813    2.2542    1.9792 C   0  0  1  0  0
    0.4960    3.6013    1.7065 O   0  0  0  0  0
    0.7550    4.3811    2.7792 C   0  0  0  0  0
    0.6699    4.0500    3.9530 O   0  0  0  0  0
    1.1834    5.7405    2.3176 C   0  0  0  0  0
    2.1351    5.6661    1.7849 H   0  0  0  0  0
    1.3159    6.3933    3.1843 H   0  0  0  0  0
    0.4149    6.1766    1.6757 H   0  0  0  0  0
    1.2222    1.4634    2.6645 C   0  0  0  0  0
    2.2599    1.2125    1.5611 C   0  0  2  0  0
    1.4623    1.2425    0.2262 C   0  0  2  0  0
    1.9211    2.3456   -0.5556 O   0  0  0  0  0
    2.8840    2.0777   -1.4688 C   0  0  0  0  0
    3.7413    1.2108   -1.4050 O   0  0  0  0  0
    2.7541    3.0037   -2.6104 C   0  0  0  0  0
    3.6452    2.8991   -3.6779 C   0  0  0  0  0
    3.5101    3.7675   -4.7611 C   0  0  0  0  0
    2.4926    4.7229   -4.7701 C   0  0  0  0  0
    1.6055    4.8147   -3.6952 C   0  0  0  0  0
    1.7309    3.9515   -2.6084 C   0  0  0  0  0
    1.0362    4.0259   -1.7770 H   0  0  0  0  0
    0.8153    5.5594   -3.7074 H   0  0  0  0  0
    2.3909    5.3975   -5.6151 H   0  0  0  0  0
    4.1961    3.6990   -5.6003 H   0  0  0  0  0
    4.4381    2.1565   -3.6772 H   0  0  0  0  0
    1.5689    0.3067   -0.3380 H   0  0  0  0  0
    2.9990   -0.1021    1.7749 C   0  0  0  0  0
    2.3125   -0.9547    1.7591 H   0  0  0  0  0
    3.5168   -0.1016    2.7395 H   0  0  0  0  0
    3.7466   -0.2563    0.9902 H   0  0  0  0  0
    2.9971    2.0255    1.5778 H   0  0  0  0  0
    0.8504    0.5089    3.0587 H   0  0  0  0  0
    1.6770    2.0017    3.5028 H   0  0  0  0  0
   -0.4336    0.4742    0.9133 H   0  0  0  0  0
   -0.9265    3.1356   -0.4452 H   0  0  0  0  0
   -1.3895   -0.1044   -1.6553 C   0  0  0  0  0
   -0.8182   -0.3372   -2.5596 H   0  0  0  0  0
   -2.3898   -0.5318   -1.7673 H   0  0  0  0  0
   -0.9081   -0.6310   -0.8291 H   0  0  0  0  0
   -2.0169    3.2368   -2.4528 H   0  0  0  0  0
   -4.1123    0.9815   -2.3943 H   0  0  0  0  0
   -4.9303    0.2879   -0.0730 C   0  0  0  0  0
   -5.4642   -0.2252    0.7354 H   0  0  0  0  0
   -3.8763   -0.0006   -0.0114 H   0  0  0  0  0
   -5.3256   -0.1131   -1.0118 H   0  0  0  0  0
   -6.5702    2.1505   -0.3328 C   0  0  0  0  0
   -7.2730    1.6385    0.3328 H   0  0  0  0  0
   -6.7552    3.2264   -0.2564 H   0  0  0  0  0
   -6.8038    1.8542   -1.3613 H   0  0  0  0  0
   -5.5530    1.7909    2.1636 H   0  0  0  0  0
   -5.0436    3.3473    1.5759 H   0  0  0  0  0
   -3.2680    0.8889    2.1482 H   0  0  0  0  0
   -2.5031    4.3036    2.2048 C   0  0  0  0  0
   -1.9530    4.6635    1.3315 H   0  0  0  0  0
   -3.5197    4.6976    2.1412 H   0  0  0  0  0
   -2.0561    4.7481    3.1002 H   0  0  0  0  0
  1  2  2  0  0  0
  2  3  1  0  0  0
  2 28  1  0  0  0
  3  4  2  0  0  0
  3 80  1  0  0  0
  4  5  1  0  0  0
  4 79  1  0  0  0
  5  6  1  0  0  0
  5 77  1  0  0  0
  5 78  1  0  0  0
  6  7  1  0  0  0
  6 69  1  0  0  0
  6 73  1  0  0  0
  7  8  2  0  0  0
  7  9  1  0  0  0
  9 10  1  0  0  0
  9 17  1  0  0  0
  9 68  1  0  0  0
 10 11  1  0  0  0
 11 12  2  0  0  0
 11 13  1  0  0  0
 13 14  1  0  0  0
 13 15  1  0  0  0
 13 16  1  0  0  0
 17 18  1  0  0  0
 17 25  1  0  0  0
 17 67  1  0  0  0
 18 19  1  0  0  0
 19 20  2  0  0  0
 19 21  1  0  0  0
 21 22  1  0  0  0
 21 23  1  0  0  0
 21 24  1  0  0  0
 25 26  2  0  0  0
 25 63  1  0  0  0
 26 27  1  0  0  0
 26 62  1  0  0  0
 27 28  1  0  0  0
 27 38  1  0  0  0
 27 61  1  0  0  0
 28 29  1  0  0  0
 28 36  1  0  0  0
 29 30  1  0  0  0
 30 31  2  0  0  0
 30 32  1  0  0  0
 32 33  1  0  0  0
 32 34  1  0  0  0
 32 35  1  0  0  0
 36 37  1  0  0  0
 36 59  1  0  0  0
 36 60  1  0  0  0
 37 38  1  0  0  0
 37 54  1  0  0  0
 37 58  1  0  0  0
 38 39  1  0  0  0
 38 53  1  0  0  0
 39 40  1  0  0  0
 40 41  2  0  0  0
 40 42  1  0  0  0
 42 43  2  0  0  0
 42 47  1  0  0  0
 43 44  1  0  0  0
 43 52  1  0  0  0
 44 45  2  0  0  0
 44 51  1  0  0  0
 45 46  1  0  0  0
 45 50  1  0  0  0
 46 47  2  0  0  0
 46 49  1  0  0  0
 47 48  1  0  0  0
 54 55  1  0  0  0
 54 56  1  0  0  0
 54 57  1  0  0  0
 63 64  1  0  0  0
 63 65  1  0  0  0
 63 66  1  0  0  0
 69 70  1  0  0  0
 69 71  1  0  0  0
 69 72  1  0  0  0
 73 74  1  0  0  0
 73 75  1  0  0  0
 73 76  1  0  0  0
 80 81  1  0  0  0
 80 82  1  0  0  0
 80 83  1  0  0  0
M  END
> <Tumorigenic>
none

> <Score>
34.88586

> <Active/Decoy>
active

> <InChI>
InChI=1S/C33H40O10/c1-18-14-15-32(7,8)30(38)28(41-22(5)35)27(40-21(4)34)19(2)16-25-26(42-31(39)24-12-10-9-11-13-24)20(3)17-33(25,29(18)37)43-23(6)36/h9-14,16,20,25-28H,15,17H2,1-8H3/b18-14-,19-16+/t20-,25+,26+,27-,28+,33-/m1/s1

> <Matching Features>
H:14924486185440016873||HBA:14924321692640012300|HBA:14924486112070016868

> <Mol. Index>
507

> <Pharmacophore Match>
Model -1

> <# Confs.>
25

> <Source Database>
Pharm-Screening-input-NANPDB_After_DataWarror.ldb

> <Pharmacophore-Fit Score>
34.89

> <formula>
C33H40O10

> <Mutagenic>
none

> <Reproductive Effective>
none

> <Irritant>
none

$$$$
Aspergillus diketopiperazine 6a
XX    ILIB03122402123D

 53 56  0  0  1  0              1 V2000
   -0.2698    1.6468   -4.7078 O   0  0  0  0  0
   -1.3639    1.5900   -4.1522 C   0  0  0  0  0
   -2.4546    2.3745   -4.4896 N   0  0  0  0  0
   -3.6419    2.4780   -3.6545 C   0  0  2  0  0
   -4.0795    1.0656   -3.3266 C   0  0  0  0  0
   -5.2541    0.7377   -3.1813 O   0  0  0  0  0
   -3.0048    0.2222   -3.0759 N   0  0  0  0  0
   -1.6387    0.7239   -2.9184 C   0  0  1  0  0
   -0.6529   -0.4312   -2.7698 C   0  0  0  0  0
    0.6354   -0.0294   -2.1341 C   0  0  0  0  0
    0.9504   -0.0327   -0.7446 C   0  0  0  0  0
    2.2678    0.4300   -0.5990 C   0  0  0  0  0
    2.8482    0.5349    0.6813 C   0  0  0  0  0
    2.0916    0.1811    1.8032 C   0  0  0  0  0
    0.7893   -0.2771    1.6710 C   0  0  0  0  0
    0.2108   -0.3882    0.4066 C   0  0  0  0  0
   -0.8111   -0.7470    0.3154 H   0  0  0  0  0
    0.2163   -0.5478    2.5523 H   0  0  0  0  0
    2.5331    0.2676    2.7935 H   0  0  0  0  0
    3.8612    0.8894    0.8306 H   0  0  0  0  0
    2.7718    0.7007   -1.8741 N   0  0  0  0  0
    1.7609    0.4116   -2.7892 C   0  0  0  0  0
    1.9204    0.5747   -3.8472 H   0  0  0  0  0
    4.0162    1.1493   -2.2686 C   0  0  0  0  0
    4.8851    1.3756   -1.4523 O   0  0  0  0  0
    4.0476    1.2739   -3.6235 O   0  0  0  0  0
    5.2768    1.7347   -4.2093 C   0  0  0  0  0
    5.5336    3.1100   -3.6120 C   0  0  0  0  0
    5.6167    3.0550   -2.5207 H   0  0  0  0  0
    4.6959    3.7839   -3.8237 H   0  0  0  0  0
    6.4501    3.5623   -4.0064 H   0  0  0  0  0
    5.1409    1.8419   -5.7324 C   0  0  0  0  0
    6.0341    2.2862   -6.1821 H   0  0  0  0  0
    4.9826    0.8628   -6.1971 H   0  0  0  0  0
    4.2741    2.4579   -5.9959 H   0  0  0  0  0
    6.4381    0.7884   -3.8365 C   0  0  0  0  0
    6.3003   -0.2105   -4.2658 H   0  0  0  0  0
    7.3964    1.1768   -4.1922 H   0  0  0  0  0
    6.4966    0.6559   -2.7503 H   0  0  0  0  0
   -1.1167   -1.2175   -2.1609 H   0  0  0  0  0
   -0.4563   -0.8790   -3.7521 H   0  0  0  0  0
   -1.6240    1.3715   -2.0331 H   0  0  0  0  0
   -3.2133   -0.7291   -2.7856 H   0  0  0  0  0
   -4.6265    3.2647   -4.5123 C   0  0  0  0  0
   -3.7126    4.1603   -5.3470 C   0  0  0  0  0
   -2.5087    3.2724   -5.6279 C   0  0  0  0  0
   -2.6573    2.6619   -6.5243 H   0  0  0  0  0
   -1.5730    3.8297   -5.7294 H   0  0  0  0  0
   -3.4052    5.0277   -4.7510 H   0  0  0  0  0
   -4.1892    4.5236   -6.2595 H   0  0  0  0  0
   -5.2017    2.6038   -5.1717 H   0  0  0  0  0
   -5.3358    3.8383   -3.9105 H   0  0  0  0  0
   -3.3794    3.0101   -2.7341 H   0  0  0  0  0
  1  2  2  0  0  0
  2  3  1  0  0  0
  2  8  1  0  0  0
  3  4  1  0  0  0
  3 46  1  0  0  0
  4  5  1  0  0  0
  4 44  1  0  0  0
  4 53  1  0  0  0
  5  6  2  0  0  0
  5  7  1  0  0  0
  7  8  1  0  0  0
  7 43  1  0  0  0
  8  9  1  0  0  0
  8 42  1  0  0  0
  9 10  1  0  0  0
  9 40  1  0  0  0
  9 41  1  0  0  0
 10 11  1  0  0  0
 10 22  2  0  0  0
 11 12  2  0  0  0
 11 16  1  0  0  0
 12 13  1  0  0  0
 12 21  1  0  0  0
 13 14  2  0  0  0
 13 20  1  0  0  0
 14 15  1  0  0  0
 14 19  1  0  0  0
 15 16  2  0  0  0
 15 18  1  0  0  0
 16 17  1  0  0  0
 21 22  1  0  0  0
 21 24  1  0  0  0
 22 23  1  0  0  0
 24 25  2  0  0  0
 24 26  1  0  0  0
 26 27  1  0  0  0
 27 28  1  0  0  0
 27 32  1  0  0  0
 27 36  1  0  0  0
 28 29  1  0  0  0
 28 30  1  0  0  0
 28 31  1  0  0  0
 32 33  1  0  0  0
 32 34  1  0  0  0
 32 35  1  0  0  0
 36 37  1  0  0  0
 36 38  1  0  0  0
 36 39  1  0  0  0
 44 45  1  0  0  0
 44 51  1  0  0  0
 44 52  1  0  0  0
 45 46  1  0  0  0
 45 49  1  0  0  0
 45 50  1  0  0  0
 46 47  1  0  0  0
 46 48  1  0  0  0
M  END
> <Tumorigenic>
none

> <Score>
34.880806

> <Active/Decoy>
active

> <InChI>
InChI=1S/C21H25N3O4/c1-21(2,3)28-20(27)24-12-13(14-7-4-5-8-16(14)24)11-15-19(26)23-10-6-9-17(23)18(25)22-15/h4-5,7-8,12,15,17H,6,9-11H2,1-3H3,(H,22,25)/t15-,17-/m0/s1

> <Matching Features>
H:14924486185440016873||HBA:14924321692640012300|HBA:14924486112070016868

> <Mol. Index>
835

> <Pharmacophore Match>
Model -1

> <# Confs.>
25

> <Source Database>
Pharm-Screening-input-NANPDB_After_DataWarror.ldb

> <Pharmacophore-Fit Score>
34.88

> <formula>
C21H25N3O4

> <Mutagenic>
none

> <Reproductive Effective>
none

> <Irritant>
none

$$$$
1beta acetoxy, 8beta-hydroxyeudesman-4(15),7(11)-dien-8alpha,12-olide
XX    ILIB03122402123D

 44 46  0  0  1  0              1 V2000
   -4.6544    0.8062   -3.1595 O   0  0  0  0  0
   -3.6097    0.3876   -2.6924 C   0  0  0  0  0
   -2.5259   -0.0178   -3.4177 O   0  0  0  0  0
   -1.5196   -0.5207   -2.5329 C   0  0  2  0  0
   -1.3742   -1.9236   -2.7063 O   0  0  0  0  0
   -0.7445   -2.0728   -3.4313 H   0  0  0  0  0
   -2.0738   -0.2411   -1.1857 C   0  0  0  0  0
   -3.3025    0.2700   -1.2576 C   0  0  0  0  0
   -4.2364    0.7362   -0.2093 C   0  0  0  0  0
   -5.1768    0.1793   -0.2659 H   0  0  0  0  0
   -3.8323    0.6008    0.7973 H   0  0  0  0  0
   -4.4597    1.7999   -0.3396 H   0  0  0  0  0
   -1.1916   -0.4449    0.0030 C   0  0  0  0  0
    0.1036    0.3771   -0.1931 C   0  0  2  0  0
    0.8159    0.0642   -1.5600 C   0  0  2  0  0
    1.9890    1.0796   -1.7472 C   0  0  2  0  0
    2.7197    0.7915   -2.9420 O   0  0  0  0  0
    3.7761    1.5820   -3.2472 C   0  0  0  0  0
    4.7628    1.7864   -2.5661 O   0  0  0  0  0
    3.5513    2.1989   -4.6037 C   0  0  0  0  0
    4.2310    3.0451   -4.7333 H   0  0  0  0  0
    3.7485    1.4561   -5.3795 H   0  0  0  0  0
    2.5275    2.5762   -4.6838 H   0  0  0  0  0
    2.9585    1.1216   -0.5515 C   0  0  0  0  0
    2.2467    1.3141    0.7857 C   0  0  0  0  0
    1.1034    0.3412    0.9525 C   0  0  0  0  0
    1.0244   -0.4540    2.0304 C   0  0  0  0  0
    0.2152   -1.1604    2.1708 H   0  0  0  0  0
    1.7794   -0.4194    2.8090 H   0  0  0  0  0
    1.8484    2.3351    0.8432 H   0  0  0  0  0
    2.9776    1.2192    1.5973 H   0  0  0  0  0
    3.6834    1.9331   -0.6936 H   0  0  0  0  0
    3.5623    0.2065   -0.5319 H   0  0  0  0  0
    1.5417    2.0937   -1.8465 H   0  0  0  0  0
   -0.1939    0.2300   -2.7323 C   0  0  0  0  0
   -0.4135    1.2988   -2.8621 H   0  0  0  0  0
    0.2685   -0.0895   -3.6753 H   0  0  0  0  0
    1.3948   -1.3839   -1.5764 C   0  0  0  0  0
    0.6431   -2.1371   -1.3283 H   0  0  0  0  0
    1.7913   -1.6360   -2.5658 H   0  0  0  0  0
    2.2076   -1.5210   -0.8584 H   0  0  0  0  0
   -0.2293    1.4269   -0.2486 H   0  0  0  0  0
   -1.6950   -0.1233    0.9213 H   0  0  0  0  0
   -0.9790   -1.5134    0.1186 H   0  0  0  0  0
  1  2  2  0  0  0
  2  3  1  0  0  0
  2  8  1  0  0  0
  3  4  1  0  0  0
  4  5  1  0  0  0
  4  7  1  0  0  0
  4 35  1  0  0  0
  5  6  1  0  0  0
  7  8  2  0  0  0
  7 13  1  0  0  0
  8  9  1  0  0  0
  9 10  1  0  0  0
  9 11  1  0  0  0
  9 12  1  0  0  0
 13 14  1  0  0  0
 13 43  1  0  0  0
 13 44  1  0  0  0
 14 15  1  0  0  0
 14 26  1  0  0  0
 14 42  1  0  0  0
 15 16  1  0  0  0
 15 35  1  0  0  0
 15 38  1  0  0  0
 16 17  1  0  0  0
 16 24  1  0  0  0
 16 34  1  0  0  0
 17 18  1  0  0  0
 18 19  2  0  0  0
 18 20  1  0  0  0
 20 21  1  0  0  0
 20 22  1  0  0  0
 20 23  1  0  0  0
 24 25  1  0  0  0
 24 32  1  0  0  0
 24 33  1  0  0  0
 25 26  1  0  0  0
 25 30  1  0  0  0
 25 31  1  0  0  0
 26 27  2  0  0  0
 27 28  1  0  0  0
 27 29  1  0  0  0
 35 36  1  0  0  0
 35 37  1  0  0  0
 38 39  1  0  0  0
 38 40  1  0  0  0
 38 41  1  0  0  0
M  END
> <Tumorigenic>
none

> <Score>
34.861153

> <Active/Decoy>
active

> <InChI>
InChI=1S/C17H22O5/c1-9-5-6-14(21-11(3)18)16(4)8-17(20)13(7-12(9)16)10(2)15(19)22-17/h12,14,20H,1,5-8H2,2-4H3/t12-,14+,16+,17-/m0/s1

> <Matching Features>
H:14924486185440016873||HBA:14924321692640012300|HBA:14924486112070016868

> <Mol. Index>
952

> <Pharmacophore Match>
Model -1

> <# Confs.>
5

> <Source Database>
Pharm-Screening-input-NANPDB_After_DataWarror.ldb

> <Pharmacophore-Fit Score>
34.86

> <formula>
C17H22O5

> <Mutagenic>
none

> <Reproductive Effective>
none

> <Irritant>
none

$$$$
6,8-di-C-methylkaempferol 3-methyl ether
XX    ILIB03122402123D

 40 42  0  0  1  0              1 V2000
    3.1351    2.0336   -3.3804 O   0  0  0  0  0
    2.3356    1.7206   -2.6663 C   0  0  0  0  0
    1.0153    1.8395   -2.9377 C   0  0  0  0  0
    0.6330    2.4402   -3.9796 O   0  0  0  0  0
    1.3071    3.5043   -4.2886 C   0  0  0  0  0
    0.8369    4.3477   -3.8760 H   0  0  0  0  0
    1.3474    3.6019   -5.3330 H   0  0  0  0  0
    2.2814    3.4249   -3.9064 H   0  0  0  0  0
    0.2330    1.2779   -2.1733 C   0  0  0  0  0
    0.5864    0.7430   -1.0754 O   0  0  0  0  0
    1.7916    0.7517   -0.7362 C   0  0  0  0  0
    2.6938    1.1903   -1.5010 C   0  0  0  0  0
    3.9250    1.1316   -1.1650 C   0  0  0  0  0
    4.8299    1.5474   -1.9195 O   0  0  0  0  0
    4.4295    1.7773   -2.8403 H   0  0  0  0  0
    4.2751    0.6448   -0.0445 C   0  0  0  0  0
    5.5993    0.5786    0.2966 C   0  0  0  0  0
    6.1402    0.1344   -0.4864 H   0  0  0  0  0
    5.7074    0.0026    1.1667 H   0  0  0  0  0
    5.9655    1.5471    0.4696 H   0  0  0  0  0
    3.3522    0.2333    0.7369 C   0  0  0  0  0
    2.1107    0.2795    0.4087 C   0  0  0  0  0
    1.1381   -0.1496    1.2703 C   0  0  0  0  0
    1.5784   -0.4481    2.1756 H   0  0  0  0  0
    0.4606    0.6314    1.4529 H   0  0  0  0  0
    0.6278   -0.9629    0.8459 H   0  0  0  0  0
    3.6290   -0.2330    1.8591 O   0  0  0  0  0
    3.8869   -1.2255    1.7640 H   0  0  0  0  0
   -1.1016    1.1582   -2.4174 C   0  0  0  0  0
   -1.5675    1.0583   -3.6072 C   0  0  0  0  0
   -2.8130    0.9251   -3.8358 C   0  0  0  0  0
   -3.6148    0.8646   -2.8682 C   0  0  0  0  0
   -4.8355    0.7393   -3.0453 O   0  0  0  0  0
   -5.0527    0.8750   -4.0435 H   0  0  0  0  0
   -3.1889    0.9193   -1.6821 C   0  0  0  0  0
   -1.9428    1.0723   -1.4582 C   0  0  0  0  0
   -1.6111    1.1281   -0.4646 H   0  0  0  0  0
   -3.8601    0.8393   -0.8795 H   0  0  0  0  0
   -3.1620    0.8670   -4.8244 H   0  0  0  0  0
   -0.9159    1.0850   -4.4299 H   0  0  0  0  0
  1  2  2  0  0  0
  2  3  1  0  0  0
  2 12  1  0  0  0
  3  4  1  0  0  0
  3  9  2  0  0  0
  4  5  1  0  0  0
  5  6  1  0  0  0
  5  7  1  0  0  0
  5  8  1  0  0  0
  9 10  1  0  0  0
  9 29  1  0  0  0
 10 11  1  0  0  0
 11 12  2  0  0  0
 11 22  1  0  0  0
 12 13  1  0  0  0
 13 14  1  0  0  0
 13 16  2  0  0  0
 14 15  1  0  0  0
 16 17  1  0  0  0
 16 21  1  0  0  0
 17 18  1  0  0  0
 17 19  1  0  0  0
 17 20  1  0  0  0
 21 22  2  0  0  0
 21 27  1  0  0  0
 22 23  1  0  0  0
 23 24  1  0  0  0
 23 25  1  0  0  0
 23 26  1  0  0  0
 27 28  1  0  0  0
 29 30  2  0  0  0
 29 36  1  0  0  0
 30 31  1  0  0  0
 30 40  1  0  0  0
 31 32  2  0  0  0
 31 39  1  0  0  0
 32 33  1  0  0  0
 32 35  1  0  0  0
 33 34  1  0  0  0
 35 36  2  0  0  0
 35 38  1  0  0  0
 36 37  1  0  0  0
M  END
> <Tumorigenic>
none

> <Score>
34.860954

> <Active/Decoy>
active

> <InChI>
InChI=1S/C18H16O6/c1-8-13(20)9(2)16-12(14(8)21)15(22)18(23-3)17(24-16)10-4-6-11(19)7-5-10/h4-7,19-21H,1-3H3

> <Matching Features>
H:14924486185440016873||HBA:14924321692640012300|HBA:14924486112070016868

> <Mol. Index>
629

> <Pharmacophore Match>
Model -1

> <# Confs.>
2

> <Source Database>
Pharm-Screening-input-NANPDB_After_DataWarror.ldb

> <Pharmacophore-Fit Score>
34.86

> <formula>
C18H16O6

> <Mutagenic>
none

> <Reproductive Effective>
none

> <Irritant>
none

$$$$
euphornin I
XX    ILIB03122402123D

 79 81  0  0  1  0              1 V2000
   -3.4503    4.0181   -5.4266 O   0  0  0  0  0
   -2.8318    2.9549   -5.5443 C   0  0  0  0  0
   -1.3895    2.9387   -6.0937 C   0  0  0  0  0
   -0.5003    3.3842   -4.9468 C   0  0  0  0  0
    0.5768    2.7474   -4.4560 C   0  0  0  0  0
    1.4844    3.3540   -3.4099 C   0  0  1  0  0
    1.9819    2.3739   -2.3081 C   0  0  2  0  0
    2.4579    1.1623   -2.9123 O   0  0  0  0  0
    3.7932    0.9577   -2.8809 C   0  0  0  0  0
    4.6309    1.7018   -2.3892 O   0  0  0  0  0
    4.1166   -0.3510   -3.5350 C   0  0  0  0  0
    5.2021   -0.4516   -3.6285 H   0  0  0  0  0
    3.6830   -0.3840   -4.5380 H   0  0  0  0  0
    3.7364   -1.1734   -2.9264 H   0  0  0  0  0
    0.9985    2.0429   -1.1446 C   0  0  1  0  0
    0.4063    3.2349   -0.6077 O   0  0  0  0  0
    1.2561    4.1500   -0.0908 C   0  0  0  0  0
    2.4748    4.0609   -0.0370 O   0  0  0  0  0
    0.4800    5.3307    0.4085 C   0  0  0  0  0
    1.1528    6.0070    0.9451 H   0  0  0  0  0
   -0.2974    5.0005    1.1025 H   0  0  0  0  0
    0.0387    5.8658   -0.4351 H   0  0  0  0  0
   -0.1273    1.0146   -1.4393 C   0  0  1  0  0
   -0.5650    0.4796   -0.0516 C   0  0  1  0  0
   -0.8217   -0.9208   -0.1577 O   0  0  0  0  0
   -2.0640   -1.3321    0.1686 C   0  0  0  0  0
   -2.9949   -0.6322    0.5354 O   0  0  0  0  0
   -2.1675   -2.7952    0.0071 C   0  0  0  0  0
   -3.3791   -3.4284    0.2838 C   0  0  0  0  0
   -3.4757   -4.8099    0.1178 C   0  0  0  0  0
   -2.3714   -5.5403   -0.3247 C   0  0  0  0  0
   -1.1657   -4.8940   -0.6034 C   0  0  0  0  0
   -1.0583   -3.5123   -0.4398 C   0  0  0  0  0
   -0.1194   -3.0146   -0.6606 H   0  0  0  0  0
   -0.3107   -5.4666   -0.9492 H   0  0  0  0  0
   -2.4514   -6.6169   -0.4547 H   0  0  0  0  0
   -4.4114   -5.3176    0.3315 H   0  0  0  0  0
   -4.2419   -2.8639    0.6246 H   0  0  0  0  0
    0.6213    0.7837    0.9062 C   0  0  2  0  0
    1.7384    1.2767   -0.0158 C   0  0  0  0  0
    2.2959    0.4223   -0.4183 H   0  0  0  0  0
    2.4441    1.9054    0.5375 H   0  0  0  0  0
    1.0733   -0.3596    1.8022 C   0  0  0  0  0
    1.9031   -0.0390    2.4405 H   0  0  0  0  0
    0.2583   -0.6887    2.4542 H   0  0  0  0  0
    1.4165   -1.2199    1.2190 H   0  0  0  0  0
    0.3271    1.6217    1.5528 H   0  0  0  0  0
   -1.4491    1.0120    0.3303 H   0  0  0  0  0
   -1.3537    1.5371   -2.1638 C   0  0  0  0  0
   -2.1712    0.8580   -2.9957 C   0  0  0  0  0
   -3.4230    1.5400   -3.5277 C   0  0  2  0  0
   -4.5717    0.7973   -3.1086 O   0  0  0  0  0
   -4.5541    0.7506   -2.1369 H   0  0  0  0  0
   -3.4866    1.6759   -5.0509 C   0  0  0  0  0
   -4.5391    1.7412   -5.3642 H   0  0  0  0  0
   -3.1160    0.7947   -5.5755 H   0  0  0  0  0
   -3.5346    2.5353   -3.0814 H   0  0  0  0  0
   -1.9842   -0.5879   -3.3761 C   0  0  0  0  0
   -1.8675   -0.6956   -4.4580 H   0  0  0  0  0
   -2.8515   -1.1797   -3.0660 H   0  0  0  0  0
   -1.1080   -1.0514   -2.9194 H   0  0  0  0  0
   -1.6270    2.5634   -1.9247 H   0  0  0  0  0
    0.3026    0.1900   -2.0130 H   0  0  0  0  0
    2.8345    2.8802   -1.8288 H   0  0  0  0  0
    2.6886    3.9534   -4.1569 C   0  0  0  0  0
    3.3782    4.4391   -3.4585 H   0  0  0  0  0
    2.3631    4.7165   -4.8737 H   0  0  0  0  0
    3.2467    3.1922   -4.7121 H   0  0  0  0  0
    0.9724    4.1925   -2.9226 H   0  0  0  0  0
    0.8808    1.7951   -4.8761 H   0  0  0  0  0
   -0.7453    4.3553   -4.5164 H   0  0  0  0  0
   -1.0046    1.5981   -6.7365 C   0  0  0  0  0
   -0.9371    0.7889   -6.0051 H   0  0  0  0  0
   -0.0309    1.6597   -7.2380 H   0  0  0  0  0
   -1.7421    1.2977   -7.4901 H   0  0  0  0  0
   -1.2969    4.0089   -7.2045 C   0  0  0  0  0
   -1.9986    3.7889   -8.0174 H   0  0  0  0  0
   -1.5391    5.0118   -6.8326 H   0  0  0  0  0
   -0.2879    4.0554   -7.6320 H   0  0  0  0  0
  1  2  2  0  0  0
  2  3  1  0  0  0
  2 54  1  0  0  0
  3  4  1  0  0  0
  3 72  1  0  0  0
  3 76  1  0  0  0
  4  5  2  0  0  0
  4 71  1  0  0  0
  5  6  1  0  0  0
  5 70  1  0  0  0
  6  7  1  0  0  0
  6 65  1  0  0  0
  6 69  1  0  0  0
  7  8  1  0  0  0
  7 15  1  0  0  0
  7 64  1  0  0  0
  8  9  1  0  0  0
  9 10  2  0  0  0
  9 11  1  0  0  0
 11 12  1  0  0  0
 11 13  1  0  0  0
 11 14  1  0  0  0
 15 16  1  0  0  0
 15 23  1  0  0  0
 15 40  1  0  0  0
 16 17  1  0  0  0
 17 18  2  0  0  0
 17 19  1  0  0  0
 19 20  1  0  0  0
 19 21  1  0  0  0
 19 22  1  0  0  0
 23 24  1  0  0  0
 23 49  1  0  0  0
 23 63  1  0  0  0
 24 25  1  0  0  0
 24 39  1  0  0  0
 24 48  1  0  0  0
 25 26  1  0  0  0
 26 27  2  0  0  0
 26 28  1  0  0  0
 28 29  2  0  0  0
 28 33  1  0  0  0
 29 30  1  0  0  0
 29 38  1  0  0  0
 30 31  2  0  0  0
 30 37  1  0  0  0
 31 32  1  0  0  0
 31 36  1  0  0  0
 32 33  2  0  0  0
 32 35  1  0  0  0
 33 34  1  0  0  0
 39 40  1  0  0  0
 39 43  1  0  0  0
 39 47  1  0  0  0
 40 41  1  0  0  0
 40 42  1  0  0  0
 43 44  1  0  0  0
 43 45  1  0  0  0
 43 46  1  0  0  0
 49 50  2  0  0  0
 49 62  1  0  0  0
 50 51  1  0  0  0
 50 58  1  0  0  0
 51 52  1  0  0  0
 51 54  1  0  0  0
 51 57  1  0  0  0
 52 53  1  0  0  0
 54 55  1  0  0  0
 54 56  1  0  0  0
 58 59  1  0  0  0
 58 60  1  0  0  0
 58 61  1  0  0  0
 65 66  1  0  0  0
 65 67  1  0  0  0
 65 68  1  0  0  0
 72 73  1  0  0  0
 72 74  1  0  0  0
 72 75  1  0  0  0
 76 77  1  0  0  0
 76 78  1  0  0  0
 76 79  1  0  0  0
M  END
> <Tumorigenic>
none

> <Score>
34.864265

> <Active/Decoy>
active

> <InChI>
InChI=1S/C31H40O8/c1-18-13-14-30(6,7)26(35)16-25(34)19(2)15-24-27(38-29(36)23-11-9-8-10-12-23)20(3)17-31(24,39-22(5)33)28(18)37-21(4)32/h8-15,18,20,24-25,27-28,34H,16-17H2,1-7H3/b14-13-,19-15-/t18-,20-,24-,25+,27-,28-,31-/m0/s1

> <Matching Features>
H:14924486185440016873||HBA:14924321692640012300|HBA:14924486112070016868

> <Mol. Index>
487

> <Pharmacophore Match>
Model -1

> <# Confs.>
25

> <Source Database>
Pharm-Screening-input-NANPDB_After_DataWarror.ldb

> <Pharmacophore-Fit Score>
34.86

> <formula>
C31H40O8

> <Mutagenic>
none

> <Reproductive Effective>
none

> <Irritant>
none

$$$$
2-hydroxyswietenine
XX    ILIB03122402123D

 82 86  0  0  1  0              1 V2000
   -3.8173   -2.6412   -2.1082 O   0  0  0  0  0
   -3.3540   -1.5673   -1.7278 C   0  0  0  0  0
   -2.8370   -0.5322   -2.7091 C   0  0  1  0  0
   -2.8331   -1.0821   -4.0138 O   0  0  0  0  0
   -3.7292   -1.3902   -4.2269 H   0  0  0  0  0
   -3.7412    0.7020   -2.6145 C   0  0  1  0  0
   -5.0513    0.4502   -3.2994 C   0  0  0  0  0
   -5.4626    1.1169   -4.2414 O   0  0  0  0  0
   -5.7318   -0.5535   -2.6780 O   0  0  0  0  0
   -6.9890   -0.8107   -3.2408 C   0  0  0  0  0
   -7.2955   -2.0091   -3.7680 C   0  0  0  0  0
   -6.3704   -3.1777   -3.8742 C   0  0  0  0  0
   -6.2273   -3.4449   -4.9252 H   0  0  0  0  0
   -6.8040   -4.0400   -3.3599 H   0  0  0  0  0
   -5.3871   -2.9833   -3.4355 H   0  0  0  0  0
   -8.2974   -2.1688   -4.1594 H   0  0  0  0  0
   -7.9903    0.2982   -3.1111 C   0  0  0  0  0
   -8.9980   -0.0265   -3.3940 H   0  0  0  0  0
   -8.0346    0.6504   -2.0765 H   0  0  0  0  0
   -7.7211    1.1427   -3.7521 H   0  0  0  0  0
   -3.8618    1.3350   -1.1721 C   0  0  0  0  0
   -2.6652    2.2950   -0.9119 C   0  0  0  0  0
   -2.4656    2.9254   -1.7861 H   0  0  0  0  0
   -2.8692    2.9818   -0.0825 H   0  0  0  0  0
   -1.7420    1.7824   -0.6554 H   0  0  0  0  0
   -5.1016    2.2852   -1.1610 C   0  0  0  0  0
   -5.1047    2.9607   -0.3017 H   0  0  0  0  0
   -6.0453    1.7313   -1.1373 H   0  0  0  0  0
   -5.1083    2.9285   -2.0489 H   0  0  0  0  0
   -4.0076    0.2147   -0.0287 C   0  0  2  0  0
   -3.8070    0.7969    1.3672 C   0  0  1  0  0
   -4.5169    2.0121    1.5234 O   0  0  0  0  0
   -5.4476    1.8444    1.2978 H   0  0  0  0  0
   -4.2413   -0.1869    2.4324 C   0  0  0  0  0
   -3.4840   -0.6228    3.2913 O   0  0  0  0  0
   -5.5503   -0.5304    2.2773 O   0  0  0  0  0
   -6.0458   -1.4864    3.2181 C   0  0  0  0  0
   -5.5093   -2.4339    3.1132 H   0  0  0  0  0
   -7.1044   -1.6571    3.0054 H   0  0  0  0  0
   -5.9506   -1.0998    4.2374 H   0  0  0  0  0
   -2.7456    1.0055    1.5380 H   0  0  0  0  0
   -3.2191   -1.1708   -0.2574 C   0  0  2  0  0
   -1.6681   -1.0928    0.0125 C   0  0  2  0  0
   -0.8487   -0.5224   -1.1488 C   0  0  0  0  0
   -1.4062   -0.2653   -2.3476 C   0  0  0  0  0
   -0.8091    0.1752   -3.1408 H   0  0  0  0  0
    0.6221   -0.2811   -0.8077 C   0  0  1  0  0
    1.3055   -1.6026   -0.3746 C   0  0  1  0  0
    2.7558   -1.2784    0.0959 C   0  0  1  0  0
    3.4870   -0.4853   -0.8793 O   0  0  0  0  0
    2.9239    0.5307   -1.5740 C   0  0  0  0  0
    1.4540    0.4171   -1.8842 C   0  0  0  0  0
    1.3851   -0.0948   -2.8502 H   0  0  0  0  0
    1.0698    1.4360   -2.0226 H   0  0  0  0  0
    3.6072    1.4381   -2.0436 O   0  0  0  0  0
    2.8950   -0.6706    1.4428 C   0  0  0  0  0
    3.0652    0.6683    1.7373 C   0  0  0  0  0
    3.1623    0.8666    3.0762 O   0  0  0  0  0
    3.0590   -0.3544    3.6591 C   0  0  0  0  0
    2.8945   -1.3299    2.7055 C   0  0  0  0  0
    2.7843   -2.3899    2.8921 H   0  0  0  0  0
    3.1182   -0.3655    4.7358 H   0  0  0  0  0
    3.1347    1.5595    1.1304 H   0  0  0  0  0
    3.3060   -2.2292    0.1360 H   0  0  0  0  0
    0.4707   -2.2815    0.7440 C   0  0  0  0  0
   -1.0165   -2.4418    0.3983 C   0  0  0  0  0
   -1.5004   -2.8614    1.2868 H   0  0  0  0  0
   -1.1418   -3.1766   -0.4058 H   0  0  0  0  0
    0.8929   -3.2630    0.9905 H   0  0  0  0  0
    0.5155   -1.6880    1.6657 H   0  0  0  0  0
    1.4141   -2.5973   -1.5650 C   0  0  0  0  0
    2.0771   -2.2315   -2.3550 H   0  0  0  0  0
    0.4447   -2.8067   -2.0278 H   0  0  0  0  0
    1.8242   -3.5573   -1.2286 H   0  0  0  0  0
    0.6073    0.3999    0.0541 H   0  0  0  0  0
   -1.5218   -0.4245    0.8704 H   0  0  0  0  0
   -3.9033   -2.2960    0.5671 C   0  0  0  0  0
   -3.6076   -3.2956    0.2246 H   0  0  0  0  0
   -4.9937   -2.2518    0.4689 H   0  0  0  0  0
   -3.6582   -2.2590    1.6302 H   0  0  0  0  0
   -5.0668   -0.0824   -0.0799 H   0  0  0  0  0
   -3.2797    1.4781   -3.2660 H   0  0  0  0  0
  1  2  2  0  0  0
  2  3  1  0  0  0
  2 42  1  0  0  0
  3  4  1  0  0  0
  3  6  1  0  0  0
  3 45  1  0  0  0
  4  5  1  0  0  0
  6  7  1  0  0  0
  6 21  1  0  0  0
  6 82  1  0  0  0
  7  8  2  0  0  0
  7  9  1  0  0  0
  9 10  1  0  0  0
 10 11  2  0  0  0
 10 17  1  0  0  0
 11 12  1  0  0  0
 11 16  1  0  0  0
 12 13  1  0  0  0
 12 14  1  0  0  0
 12 15  1  0  0  0
 17 18  1  0  0  0
 17 19  1  0  0  0
 17 20  1  0  0  0
 21 22  1  0  0  0
 21 26  1  0  0  0
 21 30  1  0  0  0
 22 23  1  0  0  0
 22 24  1  0  0  0
 22 25  1  0  0  0
 26 27  1  0  0  0
 26 28  1  0  0  0
 26 29  1  0  0  0
 30 31  1  0  0  0
 30 42  1  0  0  0
 30 81  1  0  0  0
 31 32  1  0  0  0
 31 34  1  0  0  0
 31 41  1  0  0  0
 32 33  1  0  0  0
 34 35  2  0  0  0
 34 36  1  0  0  0
 36 37  1  0  0  0
 37 38  1  0  0  0
 37 39  1  0  0  0
 37 40  1  0  0  0
 42 43  1  0  0  0
 42 77  1  0  0  0
 43 44  1  0  0  0
 43 66  1  0  0  0
 43 76  1  0  0  0
 44 45  2  0  0  0
 44 47  1  0  0  0
 45 46  1  0  0  0
 47 48  1  0  0  0
 47 52  1  0  0  0
 47 75  1  0  0  0
 48 49  1  0  0  0
 48 65  1  0  0  0
 48 71  1  0  0  0
 49 50  1  0  0  0
 49 56  1  0  0  0
 49 64  1  0  0  0
 50 51  1  0  0  0
 51 52  1  0  0  0
 51 55  2  0  0  0
 52 53  1  0  0  0
 52 54  1  0  0  0
 56 57  2  0  0  0
 56 60  1  0  0  0
 57 58  1  0  0  0
 57 63  1  0  0  0
 58 59  1  0  0  0
 59 60  2  0  0  0
 59 62  1  0  0  0
 60 61  1  0  0  0
 65 66  1  0  0  0
 65 69  1  0  0  0
 65 70  1  0  0  0
 66 67  1  0  0  0
 66 68  1  0  0  0
 71 72  1  0  0  0
 71 73  1  0  0  0
 71 74  1  0  0  0
 77 78  1  0  0  0
 77 79  1  0  0  0
 77 80  1  0  0  0
M  END
> <Tumorigenic>
none

> <Score>
34.852036

> <Active/Decoy>
active

> <InChI>
InChI=1S/C32H40O10/c1-8-16(2)41-27(36)24-29(3,4)23(22(34)26(35)39-7)31(6)19-9-11-30(5)20(18(19)14-32(24,38)28(31)37)13-21(33)42-25(30)17-10-12-40-15-17/h8,10,12,14-15,19-20,22-25,34,38H,9,11,13H2,1-7H3/b16-8+/t19-,20-,22+,23-,24-,25-,30-,31-,32-/m0/s1

> <Matching Features>
H:14924486185440016873||HBA:14924321692640012300|HBA:14924486112070016868

> <Mol. Index>
630

> <Pharmacophore Match>
Model -1

> <# Confs.>
25

> <Source Database>
Pharm-Screening-input-NANPDB_After_DataWarror.ldb

> <Pharmacophore-Fit Score>
34.85

> <formula>
C32H40O10

> <Mutagenic>
none

> <Reproductive Effective>
none

> <Irritant>
none

$$$$
(+)-austrosene
XX    ILIB03122402123D

 41 41  0  0  1  0              1 V2000
   -4.5450    0.7890   -3.0780 O   0  0  0  0  0
   -3.9029    1.3083   -2.1814 C   0  0  0  0  0
   -4.1596    2.5274   -1.6557 O   0  0  0  0  0
   -4.9335    2.9541   -2.0812 H   0  0  0  0  0
   -2.7395    0.6880   -1.5259 C   0  0  0  0  0
   -2.0813    1.3762   -0.5107 C   0  0  0  0  0
   -0.9852    0.7807    0.1176 C   0  0  0  0  0
   -0.5469   -0.5031   -0.2514 C   0  0  0  0  0
    0.6505   -1.1600    0.4250 C   0  0  1  0  0
    0.2733   -2.3832    1.0522 O   0  0  0  0  0
   -0.2233   -2.9219    0.4022 H   0  0  0  0  0
    1.7836   -1.4741   -0.5645 C   0  0  0  0  0
    2.3303   -0.2665   -1.3164 C   0  0  0  0  0
    3.4662   -0.5926   -2.2900 C   0  0  0  0  0
    3.9998    0.6193   -3.0580 C   0  0  0  0  0
    4.4981    1.5903   -2.1426 O   0  0  0  0  0
    3.7496    1.9439   -1.6342 H   0  0  0  0  0
    5.1662    0.2264   -3.9705 C   0  0  0  0  0
    6.0148   -0.1506   -3.3876 H   0  0  0  0  0
    4.8745   -0.5395   -4.6968 H   0  0  0  0  0
    5.5426    1.0972   -4.5203 H   0  0  0  0  0
    2.8937    1.2775   -3.9001 C   0  0  0  0  0
    2.4672    0.5782   -4.6266 H   0  0  0  0  0
    3.2834    2.1452   -4.4409 H   0  0  0  0  0
    2.0834    1.6558   -3.2659 H   0  0  0  0  0
    3.1122   -1.3455   -3.0153 H   0  0  0  0  0
    4.2886   -1.0527   -1.7394 H   0  0  0  0  0
    2.6727    0.4845   -0.6073 H   0  0  0  0  0
    1.5000    0.1936   -1.8871 H   0  0  0  0  0
    1.4403   -2.2323   -1.2769 H   0  0  0  0  0
    2.6164   -1.9395   -0.0006 H   0  0  0  0  0
    1.1798   -0.2397    1.5254 C   0  0  0  0  0
    1.5206    0.7252    1.1341 H   0  0  0  0  0
    2.0146   -0.7115    2.0559 H   0  0  0  0  0
    0.4068   -0.0474    2.2796 H   0  0  0  0  0
   -1.2335   -1.1698   -1.2851 C   0  0  0  0  0
   -2.3290   -0.5821   -1.9202 C   0  0  0  0  0
   -2.8437   -1.1178   -2.7122 H   0  0  0  0  0
   -0.9146   -2.1580   -1.6077 H   0  0  0  0  0
   -0.4787    1.3389    0.9006 H   0  0  0  0  0
   -2.4045    2.3659   -0.2033 H   0  0  0  0  0
  1  2  2  0  0  0
  2  3  1  0  0  0
  2  5  1  0  0  0
  3  4  1  0  0  0
  5  6  2  0  0  0
  5 37  1  0  0  0
  6  7  1  0  0  0
  6 41  1  0  0  0
  7  8  2  0  0  0
  7 40  1  0  0  0
  8  9  1  0  0  0
  8 36  1  0  0  0
  9 10  1  0  0  0
  9 12  1  0  0  0
  9 32  1  0  0  0
 10 11  1  0  0  0
 12 13  1  0  0  0
 12 30  1  0  0  0
 12 31  1  0  0  0
 13 14  1  0  0  0
 13 28  1  0  0  0
 13 29  1  0  0  0
 14 15  1  0  0  0
 14 26  1  0  0  0
 14 27  1  0  0  0
 15 16  1  0  0  0
 15 18  1  0  0  0
 15 22  1  0  0  0
 16 17  1  0  0  0
 18 19  1  0  0  0
 18 20  1  0  0  0
 18 21  1  0  0  0
 22 23  1  0  0  0
 22 24  1  0  0  0
 22 25  1  0  0  0
 32 33  1  0  0  0
 32 34  1  0  0  0
 32 35  1  0  0  0
 36 37  2  0  0  0
 36 39  1  0  0  0
 37 38  1  0  0  0
M  END
> <Tumorigenic>
none

> <Score>
34.845226

> <Active/Decoy>
active

> <InChI>
InChI=1S/C15H22O4/c1-14(2,18)9-4-10-15(3,19)12-7-5-11(6-8-12)13(16)17/h5-8,18-19H,4,9-10H2,1-3H3,(H,16,17)/t15-/m0/s1

> <Matching Features>
H:14924486185440016873||HBA:14924321692640012300|HBA:14924486112070016868

> <Mol. Index>
539

> <Pharmacophore Match>
Model -1

> <# Confs.>
25

> <Source Database>
Pharm-Screening-input-NANPDB_After_DataWarror.ldb

> <Pharmacophore-Fit Score>
34.85

> <formula>
C15H22O4

> <Mutagenic>
none

> <Reproductive Effective>
none

> <Irritant>
none

$$$$
(7E,8?R)-7,8-didehydroarctigenin
XX    ILIB03122402123D

 49 51  0  0  1  0              1 V2000
    4.1470    1.5769   -2.5091 O   0  0  0  0  0
    3.0068    1.2326   -2.7647 C   0  0  0  0  0
    2.4320    1.2582   -4.0000 O   0  0  0  0  0
    1.1475    0.6229   -3.9708 C   0  0  0  0  0
    0.6766    0.6259   -2.5321 C   0  0  1  0  0
    1.9855    0.7417   -1.8095 C   0  0  0  0  0
    2.3267    0.4859   -0.5381 C   0  0  0  0  0
    1.4388    0.0043    0.5231 C   0  0  0  0  0
    0.7673   -1.2245    0.3940 C   0  0  0  0  0
   -0.0767   -1.7017    1.4053 C   0  0  0  0  0
   -0.6938   -2.8967    1.1618 O   0  0  0  0  0
   -0.0139   -4.0459    1.6604 C   0  0  0  0  0
    0.9686   -4.1585    1.1907 H   0  0  0  0  0
    0.0729   -4.0110    2.7520 H   0  0  0  0  0
   -0.6116   -4.9244    1.3996 H   0  0  0  0  0
   -0.2990   -0.9257    2.5431 C   0  0  0  0  0
   -1.1838   -1.3412    3.4968 O   0  0  0  0  0
   -1.2195   -0.6741    4.2047 H   0  0  0  0  0
    0.3545    0.2951    2.6902 C   0  0  0  0  0
    1.2193    0.7527    1.6927 C   0  0  0  0  0
    1.7033    1.7147    1.8423 H   0  0  0  0  0
    0.1930    0.9079    3.5745 H   0  0  0  0  0
    0.9051   -1.8378   -0.4944 H   0  0  0  0  0
    3.3521    0.6644   -0.2183 H   0  0  0  0  0
   -0.2854    1.7760   -2.2036 C   0  0  0  0  0
   -1.7063    1.4785   -2.6450 C   0  0  0  0  0
   -2.6131    0.8305   -1.7859 C   0  0  0  0  0
   -3.9257    0.5602   -2.1955 C   0  0  0  0  0
   -4.8596   -0.0937   -1.4417 O   0  0  0  0  0
   -4.4248   -0.4916   -0.1442 C   0  0  0  0  0
   -3.5948   -1.2035   -0.2064 H   0  0  0  0  0
   -4.1533    0.3772    0.4656 H   0  0  0  0  0
   -5.2630   -0.9964    0.3473 H   0  0  0  0  0
   -4.3286    0.9624   -3.4758 C   0  0  0  0  0
   -5.5847    0.7048   -3.9492 O   0  0  0  0  0
   -6.5556    1.7108   -3.6781 C   0  0  0  0  0
   -6.7037    1.8387   -2.6002 H   0  0  0  0  0
   -6.2845    2.6602   -4.1533 H   0  0  0  0  0
   -7.5062    1.3818   -4.1084 H   0  0  0  0  0
   -3.4319    1.5827   -4.3469 C   0  0  0  0  0
   -2.1289    1.8448   -3.9286 C   0  0  0  0  0
   -1.4447    2.3357   -4.6154 H   0  0  0  0  0
   -3.7425    1.8715   -5.3461 H   0  0  0  0  0
   -2.2656    0.5385   -0.7979 H   0  0  0  0  0
   -0.2809    1.9893   -1.1344 H   0  0  0  0  0
    0.0381    2.6850   -2.7118 H   0  0  0  0  0
    0.1769   -0.3126   -2.3141 H   0  0  0  0  0
    0.4684    1.1481   -4.6491 H   0  0  0  0  0
    1.2733   -0.4002   -4.3437 H   0  0  0  0  0
  1  2  2  0  0  0
  2  3  1  0  0  0
  2  6  1  0  0  0
  3  4  1  0  0  0
  4  5  1  0  0  0
  4 48  1  0  0  0
  4 49  1  0  0  0
  5  6  1  0  0  0
  5 25  1  0  0  0
  5 47  1  0  0  0
  6  7  2  0  0  0
  7  8  1  0  0  0
  7 24  1  0  0  0
  8  9  2  0  0  0
  8 20  1  0  0  0
  9 10  1  0  0  0
  9 23  1  0  0  0
 10 11  1  0  0  0
 10 16  2  0  0  0
 11 12  1  0  0  0
 12 13  1  0  0  0
 12 14  1  0  0  0
 12 15  1  0  0  0
 16 17  1  0  0  0
 16 19  1  0  0  0
 17 18  1  0  0  0
 19 20  2  0  0  0
 19 22  1  0  0  0
 20 21  1  0  0  0
 25 26  1  0  0  0
 25 45  1  0  0  0
 25 46  1  0  0  0
 26 27  2  0  0  0
 26 41  1  0  0  0
 27 28  1  0  0  0
 27 44  1  0  0  0
 28 29  1  0  0  0
 28 34  2  0  0  0
 29 30  1  0  0  0
 30 31  1  0  0  0
 30 32  1  0  0  0
 30 33  1  0  0  0
 34 35  1  0  0  0
 34 40  1  0  0  0
 35 36  1  0  0  0
 36 37  1  0  0  0
 36 38  1  0  0  0
 36 39  1  0  0  0
 40 41  2  0  0  0
 40 43  1  0  0  0
 41 42  1  0  0  0
M  END
> <Tumorigenic>
none

> <Score>
34.82956

> <Active/Decoy>
active

> <InChI>
InChI=1S/C21H22O6/c1-24-18-7-5-13(11-20(18)26-3)8-15-12-27-21(23)16(15)9-14-4-6-17(22)19(10-14)25-2/h4-7,9-11,15,22H,8,12H2,1-3H3/b16-9+/t15-/m0/s1

> <Matching Features>
H:14924486185440016873||HBA:14924321692640012300|HBA:14924486112070016868

> <Mol. Index>
1126

> <Pharmacophore Match>
Model -1

> <# Confs.>
25

> <Source Database>
Pharm-Screening-input-NANPDB_After_DataWarror.ldb

> <Pharmacophore-Fit Score>
34.83

> <formula>
C21H22O6

> <Mutagenic>
none

> <Reproductive Effective>
none

> <Irritant>
none

$$$$
coniferyl alcohol 4-O-sulphate
XX    ILIB03122402123D

 32 32  0  0  1  0              1 V2000
   -3.4122    0.9351   -3.1882 S   0  0  0  0  0
   -2.9393    2.1431   -3.8377 O   0  0  0  0  0
   -2.8546   -0.3578   -3.5355 O   0  0  0  0  0
   -3.2799    1.1440   -1.5649 O   0  0  0  0  0
   -2.1127    0.7620   -0.9568 C   0  0  0  0  0
   -2.1091    0.3083    0.3657 C   0  0  0  0  0
   -3.3225    0.2620    0.9926 O   0  0  0  0  0
   -3.2947   -0.1967    2.3420 C   0  0  0  0  0
   -2.9247   -1.2260    2.4013 H   0  0  0  0  0
   -2.7009    0.4722    2.9740 H   0  0  0  0  0
   -4.3213   -0.1874    2.7171 H   0  0  0  0  0
   -0.8849   -0.0298    0.9581 C   0  0  0  0  0
    0.3249    0.0689    0.2512 C   0  0  0  0  0
    1.5582   -0.3113    0.9191 C   0  0  0  0  0
    2.6436    0.4461    1.1440 C   0  0  0  0  0
    2.9475    1.8621    0.7467 C   0  0  0  0  0
    4.2040    1.9668   -0.1195 C   0  0  0  0  0
    4.0575    1.2167   -1.3146 O   0  0  0  0  0
    3.8948    0.2924   -1.0607 H   0  0  0  0  0
    5.0821    1.5995    0.4236 H   0  0  0  0  0
    4.4109    3.0092   -0.3857 H   0  0  0  0  0
    2.0913    2.3058    0.2216 H   0  0  0  0  0
    3.0860    2.4500    1.6627 H   0  0  0  0  0
    3.4384   -0.0419    1.7111 H   0  0  0  0  0
    1.5894   -1.3478    1.2576 H   0  0  0  0  0
    0.2832    0.5209   -1.0873 C   0  0  0  0  0
   -0.9280    0.8732   -1.6813 C   0  0  0  0  0
   -0.9376    1.2516   -2.6998 H   0  0  0  0  0
    1.1934    0.6387   -1.6700 H   0  0  0  0  0
   -0.8491   -0.3841    1.9864 H   0  0  0  0  0
   -5.0254    0.8554   -3.4123 O   0  0  0  0  0
   -5.5487    1.5534   -2.9526 H   0  0  0  0  0
  1  2  2  0  0  0
  1  3  2  0  0  0
  1  4  1  0  0  0
  1 31  1  0  0  0
  4  5  1  0  0  0
  5  6  2  0  0  0
  5 27  1  0  0  0
  6  7  1  0  0  0
  6 12  1  0  0  0
  7  8  1  0  0  0
  8  9  1  0  0  0
  8 10  1  0  0  0
  8 11  1  0  0  0
 12 13  2  0  0  0
 12 30  1  0  0  0
 13 14  1  0  0  0
 13 26  1  0  0  0
 14 15  2  0  0  0
 14 25  1  0  0  0
 15 16  1  0  0  0
 15 24  1  0  0  0
 16 17  1  0  0  0
 16 22  1  0  0  0
 16 23  1  0  0  0
 17 18  1  0  0  0
 17 20  1  0  0  0
 17 21  1  0  0  0
 18 19  1  0  0  0
 26 27  2  0  0  0
 26 29  1  0  0  0
 27 28  1  0  0  0
 31 32  1  0  0  0
M  END
> <Tumorigenic>
none

> <Score>
34.815678

> <Active/Decoy>
active

> <InChI>
InChI=1S/C11H14O6S/c1-16-11-8-9(4-2-3-7-12)5-6-10(11)17-18(13,14)15/h2,4-6,8,12H,3,7H2,1H3,(H,13,14,15)/b4-2+

> <Matching Features>
H:14924486185440016873||HBA:14924321692640012300|HBA:14924486112070016868

> <Mol. Index>
807

> <Pharmacophore Match>
Model -1

> <# Confs.>
25

> <Source Database>
Pharm-Screening-input-NANPDB_After_DataWarror.ldb

> <Pharmacophore-Fit Score>
34.82

> <formula>
C11H14O6S

> <Mutagenic>
none

> <Reproductive Effective>
none

> <Irritant>
none

$$$$
2-methyl-2-butenyl (E)-caffeate
XX    ILIB03122402123D

 34 34  0  0  1  0              1 V2000
    3.4231    1.5050   -2.2799 O   0  0  0  0  0
    2.3322    0.9700   -2.1482 C   0  0  0  0  0
    1.9659    0.0878   -1.1887 O   0  0  0  0  0
    2.9588   -0.2597   -0.2217 C   0  0  0  0  0
    2.3749   -1.2313    0.7401 C   0  0  0  0  0
    2.2595   -1.0273    2.0728 C   0  0  0  0  0
    2.7014    0.1536    2.8753 C   0  0  0  0  0
    3.2275    0.9132    2.2945 H   0  0  0  0  0
    3.3774   -0.1772    3.6698 H   0  0  0  0  0
    1.8318    0.6254    3.3438 H   0  0  0  0  0
    1.7968   -1.8119    2.6685 H   0  0  0  0  0
    1.8619   -2.5014    0.1274 C   0  0  0  0  0
    1.4000   -3.1665    0.8663 H   0  0  0  0  0
    1.1061   -2.2809   -0.6322 H   0  0  0  0  0
    2.6807   -3.0530   -0.3442 H   0  0  0  0  0
    3.2895    0.6552    0.2992 H   0  0  0  0  0
    3.8197   -0.7031   -0.7232 H   0  0  0  0  0
    1.2123    1.2649   -3.0787 C   0  0  0  0  0
   -0.0059    0.7094   -2.9854 C   0  0  0  0  0
   -1.1061    0.9631   -3.9221 C   0  0  0  0  0
   -2.4415    0.9000   -3.4830 C   0  0  0  0  0
   -3.4933    1.1481   -4.3684 C   0  0  0  0  0
   -4.7712    1.0702   -3.8880 O   0  0  0  0  0
   -5.3808    1.2658   -4.6201 H   0  0  0  0  0
   -3.2379    1.4634   -5.6976 C   0  0  0  0  0
   -4.2839    1.7025   -6.5413 O   0  0  0  0  0
   -3.9302    1.8998   -7.4250 H   0  0  0  0  0
   -1.9253    1.5317   -6.1535 C   0  0  0  0  0
   -0.8703    1.2844   -5.2706 C   0  0  0  0  0
    0.1421    1.3423   -5.6639 H   0  0  0  0  0
   -1.7081    1.7726   -7.1899 H   0  0  0  0  0
   -2.6789    0.6585   -2.4493 H   0  0  0  0  0
   -0.2323    0.0045   -2.1897 H   0  0  0  0  0
    1.4610    1.9531   -3.8816 H   0  0  0  0  0
  1  2  2  0  0  0
  2  3  1  0  0  0
  2 18  1  0  0  0
  3  4  1  0  0  0
  4  5  1  0  0  0
  4 16  1  0  0  0
  4 17  1  0  0  0
  5  6  2  0  0  0
  5 12  1  0  0  0
  6  7  1  0  0  0
  6 11  1  0  0  0
  7  8  1  0  0  0
  7  9  1  0  0  0
  7 10  1  0  0  0
 12 13  1  0  0  0
 12 14  1  0  0  0
 12 15  1  0  0  0
 18 19  2  0  0  0
 18 34  1  0  0  0
 19 20  1  0  0  0
 19 33  1  0  0  0
 20 21  2  0  0  0
 20 29  1  0  0  0
 21 22  1  0  0  0
 21 32  1  0  0  0
 22 23  1  0  0  0
 22 25  2  0  0  0
 23 24  1  0  0  0
 25 26  1  0  0  0
 25 28  1  0  0  0
 26 27  1  0  0  0
 28 29  2  0  0  0
 28 31  1  0  0  0
 29 30  1  0  0  0
M  END
> <Tumorigenic>
none

> <Score>
34.807228

> <Active/Decoy>
active

> <InChI>
InChI=1S/C14H16O4/c1-3-10(2)9-18-14(17)7-5-11-4-6-12(15)13(16)8-11/h3-8,15-16H,9H2,1-2H3/b7-5+,10-3+

> <Matching Features>
H:14924486185440016873||HBA:14924321692640012300|HBA:14924486112070016868

> <Mol. Index>
698

> <Pharmacophore Match>
Model -1

> <# Confs.>
25

> <Source Database>
Pharm-Screening-input-NANPDB_After_DataWarror.ldb

> <Pharmacophore-Fit Score>
34.81

> <formula>
C14H16O4

> <Mutagenic>
none

> <Reproductive Effective>
none

> <Irritant>
none

$$$$
tetrahydroaltersolanol B
XX    ILIB03122402123D

 42 44  0  0  1  0              1 V2000
    0.4807    2.0767   -4.4705 O   0  0  0  0  0
   -0.1184    1.4571   -3.5958 C   0  0  0  0  0
   -1.6059    1.3459   -3.6334 C   0  0  0  0  0
   -2.3457    1.7887   -4.7413 C   0  0  0  0  0
   -1.7897    2.3665   -5.8504 O   0  0  0  0  0
   -0.8274    2.4181   -5.7400 H   0  0  0  0  0
   -3.7355    1.6513   -4.7741 C   0  0  0  0  0
   -4.4170    1.0428   -3.7268 C   0  0  0  0  0
   -5.7622    0.9404   -3.8807 O   0  0  0  0  0
   -6.4590    0.3460   -2.7796 C   0  0  0  0  0
   -7.5235    0.3284   -3.0317 H   0  0  0  0  0
   -6.3374    0.9108   -1.8621 H   0  0  0  0  0
   -6.1353   -0.7035   -2.6456 H   0  0  0  0  0
   -3.6814    0.6023   -2.6105 C   0  0  0  0  0
   -2.2830    0.7751   -2.5395 C   0  0  0  0  0
   -1.5469    0.2543   -1.3202 C   0  0  2  0  0
   -2.2875    0.5547   -0.1262 O   0  0  0  0  0
   -2.4799    1.5083   -0.1177 H   0  0  0  0  0
   -0.1467    0.8769   -1.1678 C   0  0  2  0  0
    0.6221    0.7258   -2.4830 C   0  0  2  0  0
    2.0599    1.2478   -2.3511 C   0  0  0  0  0
    2.8009    0.5887   -1.1877 C   0  0  1  0  0
    4.1117    1.1432   -1.1045 O   0  0  0  0  0
    4.0176    2.0814   -0.8677 H   0  0  0  0  0
    2.0523    0.7597    0.1445 C   0  0  1  0  0
    1.9977    2.1554    0.4585 O   0  0  0  0  0
    1.5047    2.2568    1.2908 H   0  0  0  0  0
    0.6157    0.2283    0.0089 C   0  0  0  0  0
    0.0649    0.4258    0.9383 H   0  0  0  0  0
    0.6386   -0.8607   -0.1269 H   0  0  0  0  0
    2.7830    0.0561    1.2897 C   0  0  0  0  0
    2.8938   -1.0160    1.0981 H   0  0  0  0  0
    3.7750    0.4863    1.4504 H   0  0  0  0  0
    2.2400    0.1815    2.2334 H   0  0  0  0  0
    2.9223   -0.4787   -1.4062 H   0  0  0  0  0
    2.0621    2.3393   -2.2303 H   0  0  0  0  0
    2.6173    1.0655   -3.2795 H   0  0  0  0  0
    0.6682   -0.3327   -2.7735 H   0  0  0  0  0
   -0.2597    1.9472   -0.9386 H   0  0  0  0  0
   -1.4743   -0.8267   -1.3959 H   0  0  0  0  0
   -4.1862    0.1262   -1.7740 H   0  0  0  0  0
   -4.2913    1.9969   -5.6434 H   0  0  0  0  0
  1  2  2  0  0  0
  2  3  1  0  0  0
  2 20  1  0  0  0
  3  4  2  0  0  0
  3 15  1  0  0  0
  4  5  1  0  0  0
  4  7  1  0  0  0
  5  6  1  0  0  0
  7  8  2  0  0  0
  7 42  1  0  0  0
  8  9  1  0  0  0
  8 14  1  0  0  0
  9 10  1  0  0  0
 10 11  1  0  0  0
 10 12  1  0  0  0
 10 13  1  0  0  0
 14 15  2  0  0  0
 14 41  1  0  0  0
 15 16  1  0  0  0
 16 17  1  0  0  0
 16 19  1  0  0  0
 16 40  1  0  0  0
 17 18  1  0  0  0
 19 20  1  0  0  0
 19 28  1  0  0  0
 19 39  1  0  0  0
 20 21  1  0  0  0
 20 38  1  0  0  0
 21 22  1  0  0  0
 21 36  1  0  0  0
 21 37  1  0  0  0
 22 23  1  0  0  0
 22 25  1  0  0  0
 22 35  1  0  0  0
 23 24  1  0  0  0
 25 26  1  0  0  0
 25 28  1  0  0  0
 25 31  1  0  0  0
 26 27  1  0  0  0
 28 29  1  0  0  0
 28 30  1  0  0  0
 31 32  1  0  0  0
 31 33  1  0  0  0
 31 34  1  0  0  0
M  END
> <Tumorigenic>
none

> <Score>
34.80628

> <Active/Decoy>
active

> <InChI>
InChI=1S/C16H20O6/c1-16(21)6-10-8(5-12(16)18)15(20)13-9(14(10)19)3-7(22-2)4-11(13)17/h3-4,8,10,12,14,17-19,21H,5-6H2,1-2H3/t8-,10-,12+,14-,16-/m0/s1

> <Matching Features>
H:14924486185440016873||HBA:14924321692640012300|HBA:14924486112070016868

> <Mol. Index>
666

> <Pharmacophore Match>
Model -1

> <# Confs.>
4

> <Source Database>
Pharm-Screening-input-NANPDB_After_DataWarror.ldb

> <Pharmacophore-Fit Score>
34.81

> <formula>
C16H20O6

> <Mutagenic>
none

> <Reproductive Effective>
none

> <Irritant>
none

$$$$
altersolanol J
XX    ILIB03122402123D

 42 44  0  0  1  0              1 V2000
   -2.1056   -0.0677   -0.4120 O   0  0  0  0  0
   -1.5472    0.5878   -1.2855 C   0  0  0  0  0
   -2.2815    0.9565   -2.5235 C   0  0  0  0  0
   -1.6082    1.5616   -3.5976 C   0  0  0  0  0
   -2.3825    1.9756   -4.6948 C   0  0  0  0  0
   -1.7832    2.6508   -5.7281 O   0  0  0  0  0
   -2.4569    2.8720   -6.3932 H   0  0  0  0  0
   -3.7608    1.7474   -4.7480 C   0  0  0  0  0
   -4.4020    1.1220   -3.6924 C   0  0  0  0  0
   -3.6669    0.7187   -2.5732 C   0  0  0  0  0
   -4.1561    0.2441   -1.7277 H   0  0  0  0  0
   -5.7522    0.9345   -3.8621 O   0  0  0  0  0
   -6.4200    0.2901   -2.7705 C   0  0  0  0  0
   -6.3310    0.8552   -1.8472 H   0  0  0  0  0
   -7.4809    0.2153   -3.0292 H   0  0  0  0  0
   -6.0418   -0.7398   -2.6428 H   0  0  0  0  0
   -4.3357    2.0830   -5.6078 H   0  0  0  0  0
   -0.1127    1.8014   -3.5583 C   0  0  2  0  0
    0.4560    1.4422   -4.8191 O   0  0  0  0  0
    1.3138    1.8907   -4.8949 H   0  0  0  0  0
    0.6063    0.9854   -2.4660 C   0  0  2  0  0
   -0.1337    1.1259   -1.1312 C   0  0  2  0  0
    0.6030    0.3933    0.0052 C   0  0  0  0  0
    2.0666    0.8375    0.1410 C   0  0  2  0  0
    2.0708    2.2209    0.5085 O   0  0  0  0  0
    2.9955    2.5178    0.5324 H   0  0  0  0  0
    2.7905    0.6614   -1.2038 C   0  0  2  0  0
    4.1280    1.1431   -1.0988 O   0  0  0  0  0
    4.5593    0.9987   -1.9579 H   0  0  0  0  0
    2.0796    1.4052   -2.3362 C   0  0  0  0  0
    2.6177    1.2122   -3.2723 H   0  0  0  0  0
    2.1570    2.4886   -2.1745 H   0  0  0  0  0
    2.8463   -0.4065   -1.4512 H   0  0  0  0  0
    2.7567    0.0620    1.2652 C   0  0  0  0  0
    3.7779    0.4199    1.4282 H   0  0  0  0  0
    2.2274    0.2048    2.2152 H   0  0  0  0  0
    2.7935   -1.0107    1.0494 H   0  0  0  0  0
    0.5583   -0.6908   -0.1640 H   0  0  0  0  0
    0.0719    0.5888    0.9466 H   0  0  0  0  0
   -0.2252    2.1865   -0.8599 H   0  0  0  0  0
    0.5961   -0.0738   -2.7669 H   0  0  0  0  0
    0.0476    2.8761   -3.4008 H   0  0  0  0  0
  1  2  2  0  0  0
  2  3  1  0  0  0
  2 22  1  0  0  0
  3  4  2  0  0  0
  3 10  1  0  0  0
  4  5  1  0  0  0
  4 18  1  0  0  0
  5  6  1  0  0  0
  5  8  2  0  0  0
  6  7  1  0  0  0
  8  9  1  0  0  0
  8 17  1  0  0  0
  9 10  2  0  0  0
  9 12  1  0  0  0
 10 11  1  0  0  0
 12 13  1  0  0  0
 13 14  1  0  0  0
 13 15  1  0  0  0
 13 16  1  0  0  0
 18 19  1  0  0  0
 18 21  1  0  0  0
 18 42  1  0  0  0
 19 20  1  0  0  0
 21 22  1  0  0  0
 21 30  1  0  0  0
 21 41  1  0  0  0
 22 23  1  0  0  0
 22 40  1  0  0  0
 23 24  1  0  0  0
 23 38  1  0  0  0
 23 39  1  0  0  0
 24 25  1  0  0  0
 24 27  1  0  0  0
 24 34  1  0  0  0
 25 26  1  0  0  0
 27 28  1  0  0  0
 27 30  1  0  0  0
 27 33  1  0  0  0
 28 29  1  0  0  0
 30 31  1  0  0  0
 30 32  1  0  0  0
 34 35  1  0  0  0
 34 36  1  0  0  0
 34 37  1  0  0  0
M  END
> <Tumorigenic>
none

> <Score>
34.811897

> <Active/Decoy>
active

> <InChI>
InChI=1S/C16H20O6/c1-16(21)6-10-8(5-12(16)18)15(20)13-9(14(10)19)3-7(22-2)4-11(13)17/h3-4,8,10,12,15,17-18,20-21H,5-6H2,1-2H3/t8-,10-,12+,15+,16-/m0/s1

> <Matching Features>
H:14924486185440016873||HBA:14924321692640012300|HBA:14924486112070016868

> <Mol. Index>
660

> <Pharmacophore Match>
Model -1

> <# Confs.>
3

> <Source Database>
Pharm-Screening-input-NANPDB_After_DataWarror.ldb

> <Pharmacophore-Fit Score>
34.81

> <formula>
C16H20O6

> <Mutagenic>
none

> <Reproductive Effective>
none

> <Irritant>
none

$$$$
ampelanol
XX    ILIB03122402123D

 44 46  0  0  1  0              1 V2000
    0.5896    1.7137   -4.6522 O   0  0  0  0  0
   -0.0889    1.5761   -3.6390 C   0  0  0  0  0
   -1.5650    1.3897   -3.7499 C   0  0  0  0  0
   -2.2479    1.6191   -4.9561 C   0  0  0  0  0
   -1.6333    2.0175   -6.1137 O   0  0  0  0  0
   -0.6824    2.1251   -5.9552 H   0  0  0  0  0
   -3.6366    1.4744   -5.0376 C   0  0  0  0  0
   -4.3721    1.0874   -3.9223 C   0  0  0  0  0
   -5.7197    0.9345   -3.8513 O   0  0  0  0  0
   -6.4102    1.1604   -5.0854 C   0  0  0  0  0
   -7.4757    0.9887   -4.9054 H   0  0  0  0  0
   -6.0878    0.4724   -5.8652 H   0  0  0  0  0
   -6.2908    2.2073   -5.4076 H   0  0  0  0  0
   -3.6893    0.8665   -2.7107 C   0  0  0  0  0
   -2.2885    0.9805   -2.6175 C   0  0  0  0  0
   -1.6218    0.7319   -1.2805 C   0  0  1  0  0
   -2.1927   -0.4111   -0.6399 O   0  0  0  0  0
   -2.1210   -1.1650   -1.2498 H   0  0  0  0  0
   -0.1024    0.5054   -1.4012 C   0  0  2  0  0
    0.5702    0.3540   -0.0144 C   0  0  2  0  0
    0.2368    1.4519    0.8332 O   0  0  0  0  0
    0.5318    2.2729    0.4053 H   0  0  0  0  0
    2.0991    0.1972   -0.1273 C   0  0  1  0  0
    2.3505   -1.0240   -0.8347 O   0  0  0  0  0
    3.3125   -1.1038   -0.9556 H   0  0  0  0  0
    2.7034    1.3700   -0.9182 C   0  0  1  0  0
    4.1027    1.1403   -1.0999 O   0  0  0  0  0
    4.4567    1.8851   -1.6166 H   0  0  0  0  0
    2.0522    1.5434   -2.2958 C   0  0  2  0  0
    2.5723    2.7464   -2.8765 O   0  0  0  0  0
    2.3107    3.4902   -2.3075 H   0  0  0  0  0
    0.5150    1.6383   -2.2343 C   0  0  1  0  0
    0.2360    2.6198   -1.8263 H   0  0  0  0  0
    2.3661    0.7278   -2.9587 H   0  0  0  0  0
    2.6181    2.3009   -0.3446 H   0  0  0  0  0
    2.7495    0.0647    1.2556 C   0  0  0  0  0
    2.2988   -0.7609    1.8163 H   0  0  0  0  0
    2.6468    0.9812    1.8440 H   0  0  0  0  0
    3.8166   -0.1716    1.1709 H   0  0  0  0  0
    0.1606   -0.5445    0.4645 H   0  0  0  0  0
    0.0555   -0.4433   -1.9378 H   0  0  0  0  0
   -1.8289    1.6000   -0.6437 H   0  0  0  0  0
   -4.2649    0.5818   -1.8315 H   0  0  0  0  0
   -4.1204    1.6453   -5.9956 H   0  0  0  0  0
  1  2  2  0  0  0
  2  3  1  0  0  0
  2 32  1  0  0  0
  3  4  2  0  0  0
  3 15  1  0  0  0
  4  5  1  0  0  0
  4  7  1  0  0  0
  5  6  1  0  0  0
  7  8  2  0  0  0
  7 44  1  0  0  0
  8  9  1  0  0  0
  8 14  1  0  0  0
  9 10  1  0  0  0
 10 11  1  0  0  0
 10 12  1  0  0  0
 10 13  1  0  0  0
 14 15  2  0  0  0
 14 43  1  0  0  0
 15 16  1  0  0  0
 16 17  1  0  0  0
 16 19  1  0  0  0
 16 42  1  0  0  0
 17 18  1  0  0  0
 19 20  1  0  0  0
 19 32  1  0  0  0
 19 41  1  0  0  0
 20 21  1  0  0  0
 20 23  1  0  0  0
 20 40  1  0  0  0
 21 22  1  0  0  0
 23 24  1  0  0  0
 23 26  1  0  0  0
 23 36  1  0  0  0
 24 25  1  0  0  0
 26 27  1  0  0  0
 26 29  1  0  0  0
 26 35  1  0  0  0
 27 28  1  0  0  0
 29 30  1  0  0  0
 29 32  1  0  0  0
 29 34  1  0  0  0
 30 31  1  0  0  0
 32 33  1  0  0  0
 36 37  1  0  0  0
 36 38  1  0  0  0
 36 39  1  0  0  0
M  END
> <Tumorigenic>
none

> <Score>
34.799034

> <Active/Decoy>
active

> <InChI>
InChI=1S/C16H20O8/c1-16(23)14(21)10-9(13(20)15(16)22)12(19)8-6(11(10)18)3-5(24-2)4-7(8)17/h3-4,9-11,13-15,17-18,20-23H,1-2H3/t9-,10-,11-,13-,14+,15+,16-/m1/s1

> <Matching Features>
H:14924486185440016873||HBA:14924321692640012300|HBA:14924486112070016868

> <Mol. Index>
669

> <Pharmacophore Match>
Model -1

> <# Confs.>
2

> <Source Database>
Pharm-Screening-input-NANPDB_After_DataWarror.ldb

> <Pharmacophore-Fit Score>
34.8

> <formula>
C16H20O8

> <Mutagenic>
none

> <Reproductive Effective>
none

> <Irritant>
none

$$$$
methylscopolamine
XX    ILIB03122402123D

 47 50  0  0  1  0              1 V2000
    0.4863    1.9548   -0.5536 O   0  0  0  0  0
    0.9637    0.9076   -0.9647 C   0  0  0  0  0
    0.3362    0.0243   -1.8069 O   0  0  0  0  0
   -0.9896    0.3615   -2.2488 C   0  0  0  0  0
   -1.7648   -0.9587   -2.5037 C   0  0  0  0  0
   -2.9418   -0.7844   -3.4909 C   0  0  2  0  0
   -2.3522   -0.2198   -4.8211 N   0  3  0  0  0
   -1.0843   -0.9060   -5.3367 C   0  0  0  0  0
   -1.3325   -1.9468   -5.5623 H   0  0  0  0  0
   -0.2813   -0.8823   -4.6009 H   0  0  0  0  0
   -0.7594   -0.3793   -6.2384 H   0  0  0  0  0
   -3.3451   -0.3505   -5.9900 C   0  0  0  0  0
   -2.9150    0.1611   -6.8559 H   0  0  0  0  0
   -4.3085    0.0921   -5.7527 H   0  0  0  0  0
   -3.4786   -1.4159   -6.1992 H   0  0  0  0  0
   -2.1835    1.2612   -4.3567 C   0  0  1  0  0
   -3.3733    1.5907   -3.4673 C   0  0  1  0  0
   -4.6536    1.0551   -3.8091 O   0  0  0  0  0
   -3.8564    0.2875   -2.9152 C   0  0  1  0  0
   -4.1557    0.1896   -1.8853 H   0  0  0  0  0
   -3.3091    2.4727   -2.8524 H   0  0  0  0  0
   -0.9201    1.3254   -3.4662 C   0  0  0  0  0
   -0.7996    2.3480   -3.0834 H   0  0  0  0  0
   -0.0132    1.1483   -4.0556 H   0  0  0  0  0
   -2.1094    1.8995   -5.2424 H   0  0  0  0  0
   -3.4550   -1.7258   -3.7089 H   0  0  0  0  0
   -2.1477   -1.3179   -1.5386 H   0  0  0  0  0
   -1.0877   -1.7546   -2.8366 H   0  0  0  0  0
   -1.5052    0.8841   -1.4301 H   0  0  0  0  0
    2.3279    0.3858   -0.5748 C   0  0  1  0  0
    3.4423    1.3288   -0.9517 C   0  0  0  0  0
    3.4472    1.5368   -2.3547 O   0  0  0  0  0
    4.1755    2.1505   -2.5498 H   0  0  0  0  0
    4.4172    0.9328   -0.6442 H   0  0  0  0  0
    3.3073    2.2929   -0.4499 H   0  0  0  0  0
    2.3392   -0.0148    0.8829 C   0  0  0  0  0
    1.9845   -1.3162    1.2645 C   0  0  0  0  0
    1.9887   -1.6888    2.6103 C   0  0  0  0  0
    2.3426   -0.7640    3.5904 C   0  0  0  0  0
    2.6913    0.5348    3.2262 C   0  0  0  0  0
    2.6873    0.9084    1.8811 C   0  0  0  0  0
    2.9566    1.9276    1.6175 H   0  0  0  0  0
    2.9634    1.2584    3.9889 H   0  0  0  0  0
    2.3452   -1.0540    4.6359 H   0  0  0  0  0
    1.7137   -2.7002    2.8929 H   0  0  0  0  0
    1.7027   -2.0521    0.5155 H   0  0  0  0  0
    2.4737   -0.5296   -1.1799 H   0  0  0  0  0
  1  2  2  0  0  0
  2  3  1  0  0  0
  2 30  1  0  0  0
  3  4  1  0  0  0
  4  5  1  0  0  0
  4 22  1  0  0  0
  4 29  1  0  0  0
  5  6  1  0  0  0
  5 27  1  0  0  0
  5 28  1  0  0  0
  6  7  1  0  0  0
  6 19  1  0  0  0
  6 26  1  0  0  0
  7  8  1  0  0  0
  7 12  1  0  0  0
  7 16  1  0  0  0
  8  9  1  0  0  0
  8 10  1  0  0  0
  8 11  1  0  0  0
 12 13  1  0  0  0
 12 14  1  0  0  0
 12 15  1  0  0  0
 16 17  1  0  0  0
 16 22  1  0  0  0
 16 25  1  0  0  0
 17 18  1  0  0  0
 17 19  1  0  0  0
 17 21  1  0  0  0
 18 19  1  0  0  0
 19 20  1  0  0  0
 22 23  1  0  0  0
 22 24  1  0  0  0
 30 31  1  0  0  0
 30 36  1  0  0  0
 30 47  1  0  0  0
 31 32  1  0  0  0
 31 34  1  0  0  0
 31 35  1  0  0  0
 32 33  1  0  0  0
 36 37  2  0  0  0
 36 41  1  0  0  0
 37 38  1  0  0  0
 37 46  1  0  0  0
 38 39  2  0  0  0
 38 45  1  0  0  0
 39 40  1  0  0  0
 39 44  1  0  0  0
 40 41  2  0  0  0
 40 43  1  0  0  0
 41 42  1  0  0  0
M  END
> <Tumorigenic>
none

> <Score>
34.775146

> <Active/Decoy>
active

> <InChI>
InChI=1S/C18H24NO4/c1-19(2)14-8-12(9-15(19)17-16(14)23-17)22-18(21)13(10-20)11-6-4-3-5-7-11/h3-7,12-17,20H,8-10H2,1-2H3/q+1/t12-,13-,14-,15+,16-,17+/m0/s1

> <Matching Features>
H:14924486185440016873||HBA:14924321692640012300|HBA:14924486112070016868

> <Mol. Index>
790

> <Pharmacophore Match>
Model -1

> <# Confs.>
25

> <Source Database>
Pharm-Screening-input-NANPDB_After_DataWarror.ldb

> <Pharmacophore-Fit Score>
34.78

> <formula>
C18H24NO4+

> <Mutagenic>
none

> <Reproductive Effective>
none

> <Irritant>
none

$$$$
kaempferol 3-O-rhamnoside
XX    ILIB03122402123D

 51 54  0  0  1  0              1 V2000
   -4.3581   -0.2757   -2.3310 O   0  0  0  0  0
   -3.5747    0.5804   -2.7184 C   0  0  0  0  0
   -2.1104    0.4201   -2.5214 C   0  0  0  0  0
   -1.6301   -0.7137   -1.9346 O   0  0  0  0  0
   -2.1229   -0.9822   -0.6231 C   0  0  2  0  0
   -1.2983   -0.4205    0.4114 O   0  0  0  0  0
    0.0292   -0.9516    0.4525 C   0  0  2  0  0
    0.0117   -2.4627    0.7018 C   0  0  2  0  0
    1.3409   -2.9691    0.6059 O   0  0  0  0  0
    1.2955   -3.9323    0.7409 H   0  0  0  0  0
   -0.8687   -3.1569   -0.3380 C   0  0  1  0  0
   -1.0100   -4.5382   -0.0162 O   0  0  0  0  0
   -1.4787   -4.5976    0.8338 H   0  0  0  0  0
   -2.2460   -2.4981   -0.4298 C   0  0  1  0  0
   -2.9894   -2.7514    0.7635 O   0  0  0  0  0
   -2.5808   -2.2499    1.4884 H   0  0  0  0  0
   -2.8074   -2.9510   -1.2539 H   0  0  0  0  0
   -0.3735   -3.1174   -1.3155 H   0  0  0  0  0
   -0.3515   -2.6842    1.7121 H   0  0  0  0  0
    0.7817   -0.2097    1.5536 C   0  0  0  0  0
    0.7674    0.8691    1.3614 H   0  0  0  0  0
    1.8239   -0.5355    1.6206 H   0  0  0  0  0
    0.3011   -0.3617    2.5253 H   0  0  0  0  0
    0.5356   -0.7294   -0.4958 H   0  0  0  0  0
   -3.1228   -0.5429   -0.4975 H   0  0  0  0  0
   -1.2973    1.4470   -2.8805 C   0  0  0  0  0
   -1.7404    2.6152   -3.4805 O   0  0  0  0  0
   -3.0761    2.7614   -3.7492 C   0  0  0  0  0
   -4.0308    1.8012   -3.4150 C   0  0  0  0  0
   -5.3758    2.0321   -3.7298 C   0  0  0  0  0
   -6.3321    1.1027   -3.4206 O   0  0  0  0  0
   -7.1981    1.4309   -3.7182 H   0  0  0  0  0
   -5.7606    3.2140   -4.3690 C   0  0  0  0  0
   -4.7948    4.1621   -4.6900 C   0  0  0  0  0
   -3.4534    3.9455   -4.3855 C   0  0  0  0  0
   -2.7038    4.6902   -4.6386 H   0  0  0  0  0
   -5.1988    5.3103   -5.3118 O   0  0  0  0  0
   -4.4190    5.8698   -5.4675 H   0  0  0  0  0
   -6.8033    3.3947   -4.6136 H   0  0  0  0  0
    0.1652    1.4218   -2.6875 C   0  0  0  0  0
    0.9550    0.4371   -3.3080 C   0  0  0  0  0
    2.3415    0.4025   -3.1299 C   0  0  0  0  0
    2.9551    1.3561   -2.3252 C   0  0  0  0  0
    4.3065    1.3482   -2.1295 O   0  0  0  0  0
    4.6865    0.6000   -2.6212 H   0  0  0  0  0
    2.2004    2.3401   -1.6976 C   0  0  0  0  0
    0.8160    2.3712   -1.8779 C   0  0  0  0  0
    0.2570    3.1527   -1.3686 H   0  0  0  0  0
    2.6780    3.0855   -1.0684 H   0  0  0  0  0
    2.9254   -0.3692   -3.6238 H   0  0  0  0  0
    0.5072   -0.3209   -3.9467 H   0  0  0  0  0
  1  2  2  0  0  0
  2  3  1  0  0  0
  2 29  1  0  0  0
  3  4  1  0  0  0
  3 26  2  0  0  0
  4  5  1  0  0  0
  5  6  1  0  0  0
  5 14  1  0  0  0
  5 25  1  0  0  0
  6  7  1  0  0  0
  7  8  1  0  0  0
  7 20  1  0  0  0
  7 24  1  0  0  0
  8  9  1  0  0  0
  8 11  1  0  0  0
  8 19  1  0  0  0
  9 10  1  0  0  0
 11 12  1  0  0  0
 11 14  1  0  0  0
 11 18  1  0  0  0
 12 13  1  0  0  0
 14 15  1  0  0  0
 14 17  1  0  0  0
 15 16  1  0  0  0
 20 21  1  0  0  0
 20 22  1  0  0  0
 20 23  1  0  0  0
 26 27  1  0  0  0
 26 40  1  0  0  0
 27 28  1  0  0  0
 28 29  2  0  0  0
 28 35  1  0  0  0
 29 30  1  0  0  0
 30 31  1  0  0  0
 30 33  2  0  0  0
 31 32  1  0  0  0
 33 34  1  0  0  0
 33 39  1  0  0  0
 34 35  2  0  0  0
 34 37  1  0  0  0
 35 36  1  0  0  0
 37 38  1  0  0  0
 40 41  2  0  0  0
 40 47  1  0  0  0
 41 42  1  0  0  0
 41 51  1  0  0  0
 42 43  2  0  0  0
 42 50  1  0  0  0
 43 44  1  0  0  0
 43 46  1  0  0  0
 44 45  1  0  0  0
 46 47  2  0  0  0
 46 49  1  0  0  0
 47 48  1  0  0  0
M  END
> <Tumorigenic>
none

> <Score>
34.783455

> <Active/Decoy>
active

> <InChI>
InChI=1S/C21H20O10/c1-8-15(25)17(27)18(28)21(29-8)31-20-16(26)14-12(24)6-11(23)7-13(14)30-19(20)9-2-4-10(22)5-3-9/h2-8,15,17-18,21-25,27-28H,1H3/t8-,15-,17+,18+,21-/m0/s1

> <Matching Features>
H:14924486185440016873||HBA:14924321692640012300|HBA:14924486112070016868

> <Mol. Index>
645

> <Pharmacophore Match>
Model -1

> <# Confs.>
25

> <Source Database>
Pharm-Screening-input-NANPDB_After_DataWarror.ldb

> <Pharmacophore-Fit Score>
34.78

> <formula>
C21H20O10

> <Mutagenic>
none

> <Reproductive Effective>
none

> <Irritant>
none

$$$$
ent-kaurane-3beta,16beta,17-triol
XX    ILIB03122402123D

 62 64  0  0  1  0              1 V2000
    4.9713    1.5595   -1.9038 O   0  0  0  0  0
    4.9808    0.5635   -0.8798 C   0  0  1  0  0
    5.6380    1.1523    0.3580 C   0  0  0  0  0
    5.4561    2.5471    0.4511 O   0  0  0  0  0
    5.9096    2.9562   -0.3050 H   0  0  0  0  0
    6.7228    0.9344    0.3727 H   0  0  0  0  0
    5.2194    0.7005    1.2692 H   0  0  0  0  0
    3.5162    0.0757   -0.6623 C   0  0  1  0  0
    2.5887    1.2313   -0.2217 C   0  0  0  0  0
    1.1085    0.7944    0.0023 C   0  0  2  0  0
    0.5869    0.1548   -1.3278 C   0  0  2  0  0
   -0.9740   -0.1113   -1.3884 C   0  0  1  0  0
   -1.6851    1.2639   -1.0798 C   0  0  1  0  0
   -3.2362    1.3119   -1.3367 C   0  0  0  0  0
   -3.5107    0.8153   -2.7863 C   0  0  2  0  0
   -4.9159    0.7210   -3.0246 O   0  0  0  0  0
   -5.0391    0.4531   -3.9507 H   0  0  0  0  0
   -2.8676   -0.5289   -3.1073 C   0  0  0  0  0
   -1.3666   -0.5378   -2.8342 C   0  0  0  0  0
   -0.8843    0.1337   -3.5572 H   0  0  0  0  0
   -0.9932   -1.5457   -3.0505 H   0  0  0  0  0
   -3.0390   -0.7631   -4.1672 H   0  0  0  0  0
   -3.3784   -1.3325   -2.5665 H   0  0  0  0  0
   -3.1194    1.5585   -3.4934 H   0  0  0  0  0
   -4.0636    0.5235   -0.3030 C   0  0  0  0  0
   -5.1365    0.7357   -0.4105 H   0  0  0  0  0
   -3.9577   -0.5558   -0.4047 H   0  0  0  0  0
   -3.7937    0.7959    0.7227 H   0  0  0  0  0
   -3.7370    2.7804   -1.2564 C   0  0  0  0  0
   -3.1396    3.4396   -1.8945 H   0  0  0  0  0
   -4.7791    2.8665   -1.5827 H   0  0  0  0  0
   -3.6983    3.1707   -0.2347 H   0  0  0  0  0
   -1.2356    1.8405    0.2795 C   0  0  0  0  0
    0.2786    2.0590    0.3246 C   0  0  0  0  0
    0.5247    2.8514   -0.3951 H   0  0  0  0  0
    0.5550    2.4537    1.3105 H   0  0  0  0  0
   -1.5527    1.2039    1.1097 H   0  0  0  0  0
   -1.6991    2.8155    0.4558 H   0  0  0  0  0
   -1.2750    1.9661   -1.8259 H   0  0  0  0  0
   -1.3868   -1.2551   -0.4331 C   0  0  0  0  0
   -1.6183   -0.9068    0.5740 H   0  0  0  0  0
   -0.6104   -2.0203   -0.3504 H   0  0  0  0  0
   -2.2727   -1.7930   -0.7777 H   0  0  0  0  0
    1.4818   -1.0269   -1.7602 C   0  0  0  0  0
    2.9414   -0.5952   -1.9230 C   0  0  0  0  0
    3.5341   -1.4794   -2.1848 H   0  0  0  0  0
    3.0104    0.0912   -2.7766 H   0  0  0  0  0
    1.4303   -1.8540   -1.0462 H   0  0  0  0  0
    1.1526   -1.4288   -2.7238 H   0  0  0  0  0
    0.7600    0.9226   -2.1007 H   0  0  0  0  0
    1.0771   -0.1410    1.2329 C   0  0  0  0  0
    1.4974   -1.1287    1.0274 H   0  0  0  0  0
    0.0727   -0.2904    1.6307 H   0  0  0  0  0
    1.6595    0.2881    2.0576 H   0  0  0  0  0
    2.6170    2.0212   -0.9848 H   0  0  0  0  0
    2.9733    1.6882    0.6991 H   0  0  0  0  0
    3.5390   -0.6765    0.1367 H   0  0  0  0  0
    5.8330   -0.5925   -1.4203 C   0  0  0  0  0
    5.4096   -0.9967   -2.3470 H   0  0  0  0  0
    5.9300   -1.4088   -0.6976 H   0  0  0  0  0
    6.8381   -0.2373   -1.6747 H   0  0  0  0  0
    4.5516    2.3616   -1.5330 H   0  0  0  0  0
  1  2  1  0  0  0
  1 62  1  0  0  0
  2  3  1  0  0  0
  2  8  1  0  0  0
  2 58  1  0  0  0
  3  4  1  0  0  0
  3  6  1  0  0  0
  3  7  1  0  0  0
  4  5  1  0  0  0
  8  9  1  0  0  0
  8 45  1  0  0  0
  8 57  1  0  0  0
  9 10  1  0  0  0
  9 55  1  0  0  0
  9 56  1  0  0  0
 10 11  1  0  0  0
 10 34  1  0  0  0
 10 51  1  0  0  0
 11 12  1  0  0  0
 11 44  1  0  0  0
 11 50  1  0  0  0
 12 13  1  0  0  0
 12 19  1  0  0  0
 12 40  1  0  0  0
 13 14  1  0  0  0
 13 33  1  0  0  0
 13 39  1  0  0  0
 14 15  1  0  0  0
 14 25  1  0  0  0
 14 29  1  0  0  0
 15 16  1  0  0  0
 15 18  1  0  0  0
 15 24  1  0  0  0
 16 17  1  0  0  0
 18 19  1  0  0  0
 18 22  1  0  0  0
 18 23  1  0  0  0
 19 20  1  0  0  0
 19 21  1  0  0  0
 25 26  1  0  0  0
 25 27  1  0  0  0
 25 28  1  0  0  0
 29 30  1  0  0  0
 29 31  1  0  0  0
 29 32  1  0  0  0
 33 34  1  0  0  0
 33 37  1  0  0  0
 33 38  1  0  0  0
 34 35  1  0  0  0
 34 36  1  0  0  0
 40 41  1  0  0  0
 40 42  1  0  0  0
 40 43  1  0  0  0
 44 45  1  0  0  0
 44 48  1  0  0  0
 44 49  1  0  0  0
 45 46  1  0  0  0
 45 47  1  0  0  0
 51 52  1  0  0  0
 51 53  1  0  0  0
 51 54  1  0  0  0
 58 59  1  0  0  0
 58 60  1  0  0  0
 58 61  1  0  0  0
M  END
> <Tumorigenic>
none

> <Score>
34.77519

> <Active/Decoy>
active

> <InChI>
InChI=1S/C21H38O3/c1-18(2)15-8-10-19(3)12-14(21(5,24)13-22)6-7-16(19)20(15,4)11-9-17(18)23/h14-17,22-24H,6-13H2,1-5H3/t14-,15-,16-,17-,19-,20-,21+/m1/s1

> <Matching Features>
H:14924486185440016873||HBA:14924321692640012300|HBA:14924486112070016868

> <Mol. Index>
511

> <Pharmacophore Match>
Model -1

> <# Confs.>
6

> <Source Database>
Pharm-Screening-input-NANPDB_After_DataWarror.ldb

> <Pharmacophore-Fit Score>
34.78

> <formula>
C21H38O3

> <Mutagenic>
none

> <Reproductive Effective>
none

> <Irritant>
none

$$$$
hierochin C
XX    ILIB03122402123D

 39 41  0  0  1  0              1 V2000
   -5.7812    0.8586   -3.6736 O   0  0  0  0  0
   -5.2008    1.1822   -2.6480 C   0  0  0  0  0
   -3.8935    0.6188   -2.3303 C   0  0  0  0  0
   -3.2878   -0.3043   -3.1994 C   0  0  0  0  0
   -2.0337   -0.8217   -2.8838 C   0  0  0  0  0
   -1.4462   -1.7065   -3.7359 O   0  0  0  0  0
   -0.5809   -1.9542   -3.3661 H   0  0  0  0  0
   -1.4239   -0.4228   -1.7101 C   0  0  0  0  0
   -0.1904   -0.8573   -1.2862 O   0  0  0  0  0
   -0.1182   -0.4281    0.0964 C   0  0  1  0  0
    1.2983   -0.0920    0.4460 C   0  0  0  0  0
    2.1990    0.3837   -0.5059 C   0  0  0  0  0
    3.5217    0.6902   -0.1630 C   0  0  0  0  0
    4.4687    1.1593   -1.0269 O   0  0  0  0  0
    4.0357    1.3303   -2.3738 C   0  0  0  0  0
    3.7288    0.3749   -2.8128 H   0  0  0  0  0
    4.8839    1.7059   -2.9519 H   0  0  0  0  0
    3.2312    2.0694   -2.4396 H   0  0  0  0  0
    3.9281    0.5276    1.1592 C   0  0  0  0  0
    5.2101    0.8018    1.5534 O   0  0  0  0  0
    5.7049    1.1039    0.7713 H   0  0  0  0  0
    3.0487    0.0480    2.1326 C   0  0  0  0  0
    1.7348   -0.2566    1.7815 C   0  0  0  0  0
    1.0557   -0.6205    2.5483 H   0  0  0  0  0
    3.3759   -0.0824    3.1603 H   0  0  0  0  0
    1.8415    0.5142   -1.5241 H   0  0  0  0  0
   -1.0937    0.7770    0.2828 C   0  0  2  0  0
   -1.7336    0.8021    1.6592 C   0  0  0  0  0
   -2.6036    1.9160    1.7678 O   0  0  0  0  0
   -2.9895    1.8917    2.6603 H   0  0  0  0  0
   -0.9729    0.8621    2.4453 H   0  0  0  0  0
   -2.3084   -0.1154    1.8282 H   0  0  0  0  0
   -2.0215    0.4877   -0.8497 C   0  0  0  0  0
   -3.2616    1.0289   -1.1501 C   0  0  0  0  0
   -3.7212    1.7593   -0.4931 H   0  0  0  0  0
   -0.6022    1.7354    0.0708 H   0  0  0  0  0
   -0.4628   -1.2851    0.6929 H   0  0  0  0  0
   -3.7821   -0.6145   -4.1165 H   0  0  0  0  0
   -5.6200    1.9008   -1.9241 H   0  0  0  0  0
  1  2  2  0  0  0
  2  3  1  0  0  0
  2 39  1  0  0  0
  3  4  2  0  0  0
  3 34  1  0  0  0
  4  5  1  0  0  0
  4 38  1  0  0  0
  5  6  1  0  0  0
  5  8  2  0  0  0
  6  7  1  0  0  0
  8  9  1  0  0  0
  8 33  1  0  0  0
  9 10  1  0  0  0
 10 11  1  0  0  0
 10 27  1  0  0  0
 10 37  1  0  0  0
 11 12  2  0  0  0
 11 23  1  0  0  0
 12 13  1  0  0  0
 12 26  1  0  0  0
 13 14  1  0  0  0
 13 19  2  0  0  0
 14 15  1  0  0  0
 15 16  1  0  0  0
 15 17  1  0  0  0
 15 18  1  0  0  0
 19 20  1  0  0  0
 19 22  1  0  0  0
 20 21  1  0  0  0
 22 23  2  0  0  0
 22 25  1  0  0  0
 23 24  1  0  0  0
 27 28  1  0  0  0
 27 33  1  0  0  0
 27 36  1  0  0  0
 28 29  1  0  0  0
 28 31  1  0  0  0
 28 32  1  0  0  0
 29 30  1  0  0  0
 33 34  2  0  0  0
 34 35  1  0  0  0
M  END
> <Tumorigenic>
none

> <Score>
34.780293

> <Active/Decoy>
active

> <InChI>
InChI=1S/C17H16O6/c1-22-15-6-10(2-3-13(15)20)16-12(8-19)11-4-9(7-18)5-14(21)17(11)23-16/h2-7,12,16,19-21H,8H2,1H3/t12-,16+/m1/s1

> <Matching Features>
H:14924486185440016873||HBA:14924321692640012300|HBA:14924486112070016868

> <Mol. Index>
256

> <Pharmacophore Match>
Model -1

> <# Confs.>
25

> <Source Database>
Pharm-Screening-input-NANPDB_After_DataWarror.ldb

> <Pharmacophore-Fit Score>
34.78

> <formula>
C17H16O6

> <Mutagenic>
none

> <Reproductive Effective>
none

> <Irritant>
none

$$$$
3beta,8alpha-dihydroxyguaia-4(15),10(14)-dien-1alpha,5alpha,6beta,11betaH-12,6-olide 8-O-[2?(S)-3-hydroxy-2-methylpropionate]
XX    ILIB03122402123D

 51 53  0  0  1  0              1 V2000
   -2.1108    0.8527    3.3226 O   0  0  0  0  0
   -1.6187    1.1638    2.2494 C   0  0  0  0  0
   -0.2860    1.1118    1.9755 O   0  0  0  0  0
   -0.0386    1.4360    0.5935 C   0  0  1  0  0
   -1.2635    2.2412    0.1646 C   0  0  1  0  0
   -1.5481    2.1199   -1.3431 C   0  0  1  0  0
   -2.8250    2.7045   -1.6248 O   0  0  0  0  0
   -3.5137    2.2012   -2.6764 C   0  0  0  0  0
   -3.1462    1.2855   -3.3935 O   0  0  0  0  0
   -4.8618    2.8931   -2.8244 C   0  0  2  0  0
   -5.6068    2.2878   -4.0013 C   0  0  0  0  0
   -5.8277    0.9009   -3.7997 O   0  0  0  0  0
   -4.9583    0.4788   -3.6948 H   0  0  0  0  0
   -5.0436    2.4247   -4.9308 H   0  0  0  0  0
   -6.5768    2.7774   -4.1459 H   0  0  0  0  0
   -4.6592    4.4003   -2.9786 C   0  0  0  0  0
   -4.0530    4.7974   -2.1571 H   0  0  0  0  0
   -4.1440    4.6407   -3.9149 H   0  0  0  0  0
   -5.6165    4.9316   -2.9714 H   0  0  0  0  0
   -5.4271    2.7302   -1.8978 H   0  0  0  0  0
   -0.5218    2.8517   -2.2328 C   0  0  0  0  0
    0.9189    2.4497   -2.0161 C   0  0  0  0  0
    1.5543    3.0164   -0.7577 C   0  0  1  0  0
    1.3037    2.1835    0.5168 C   0  0  2  0  0
    2.5509    1.3162    0.5978 C   0  0  0  0  0
    2.6518    0.0949    1.1401 C   0  0  0  0  0
    3.5947   -0.4426    1.1284 H   0  0  0  0  0
    1.8127   -0.3994    1.6126 H   0  0  0  0  0
    3.7022    2.0016   -0.0872 C   0  0  1  0  0
    4.3098    1.1425   -1.0363 O   0  0  0  0  0
    5.0160    1.6454   -1.4764 H   0  0  0  0  0
    3.0837    3.2235   -0.7652 C   0  0  0  0  0
    3.4860    3.4158   -1.7655 H   0  0  0  0  0
    3.3096    4.1084   -0.1555 H   0  0  0  0  0
    4.4612    2.3107    0.6395 H   0  0  0  0  0
    1.3632    2.8694    1.3763 H   0  0  0  0  0
    1.1170    4.0154   -0.6156 H   0  0  0  0  0
    1.5489    1.7101   -2.9416 C   0  0  0  0  0
    1.0314    1.3640   -3.8309 H   0  0  0  0  0
    2.5883    1.4231   -2.8521 H   0  0  0  0  0
   -0.6209    3.9370   -2.0951 H   0  0  0  0  0
   -0.8044    2.6967   -3.2832 H   0  0  0  0  0
   -1.5692    1.0607   -1.6250 H   0  0  0  0  0
   -2.3729    1.6342    1.0337 C   0  0  2  0  0
   -3.4569    2.6263    1.4319 C   0  0  0  0  0
   -4.1842    2.1532    2.1018 H   0  0  0  0  0
   -4.0050    3.0014    0.5647 H   0  0  0  0  0
   -3.0364    3.4850    1.9677 H   0  0  0  0  0
   -2.8123    0.7510    0.5552 H   0  0  0  0  0
   -1.1441    3.2976    0.4417 H   0  0  0  0  0
    0.0144    0.4849    0.0473 H   0  0  0  0  0
  1  2  2  0  0  0
  2  3  1  0  0  0
  2 44  1  0  0  0
  3  4  1  0  0  0
  4  5  1  0  0  0
  4 24  1  0  0  0
  4 51  1  0  0  0
  5  6  1  0  0  0
  5 44  1  0  0  0
  5 50  1  0  0  0
  6  7  1  0  0  0
  6 21  1  0  0  0
  6 43  1  0  0  0
  7  8  1  0  0  0
  8  9  2  0  0  0
  8 10  1  0  0  0
 10 11  1  0  0  0
 10 16  1  0  0  0
 10 20  1  0  0  0
 11 12  1  0  0  0
 11 14  1  0  0  0
 11 15  1  0  0  0
 12 13  1  0  0  0
 16 17  1  0  0  0
 16 18  1  0  0  0
 16 19  1  0  0  0
 21 22  1  0  0  0
 21 41  1  0  0  0
 21 42  1  0  0  0
 22 23  1  0  0  0
 22 38  2  0  0  0
 23 24  1  0  0  0
 23 32  1  0  0  0
 23 37  1  0  0  0
 24 25  1  0  0  0
 24 36  1  0  0  0
 25 26  2  0  0  0
 25 29  1  0  0  0
 26 27  1  0  0  0
 26 28  1  0  0  0
 29 30  1  0  0  0
 29 32  1  0  0  0
 29 35  1  0  0  0
 30 31  1  0  0  0
 32 33  1  0  0  0
 32 34  1  0  0  0
 38 39  1  0  0  0
 38 40  1  0  0  0
 44 45  1  0  0  0
 44 49  1  0  0  0
 45 46  1  0  0  0
 45 47  1  0  0  0
 45 48  1  0  0  0
M  END
> <Tumorigenic>
none

> <Score>
34.77167

> <Active/Decoy>
active

> <InChI>
InChI=1S/C19H26O6/c1-8-5-14(24-18(22)9(2)7-20)16-11(4)19(23)25-17(16)15-10(3)13(21)6-12(8)15/h9,11-17,20-21H,1,3,5-7H2,2,4H3/t9-,11-,12-,13-,14-,15-,16+,17+/m0/s1

> <Matching Features>
H:14924486185440016873||HBA:14924321692640012300|HBA:14924486112070016868

> <Mol. Index>
1127

> <Pharmacophore Match>
Model -1

> <# Confs.>
25

> <Source Database>
Pharm-Screening-input-NANPDB_After_DataWarror.ldb

> <Pharmacophore-Fit Score>
34.77

> <formula>
C19H26O6

> <Mutagenic>
none

> <Reproductive Effective>
none

> <Irritant>
none

$$$$
4beta-hydroxy-6alpha-(4-hydroxy-3-methoxybenzoyl)-7-daucen-9-one
XX    ILIB03122402123D

 59 61  0  0  1  0              1 V2000
   -5.1703    0.7018   -3.0596 O   0  0  0  0  0
   -4.0343    0.7573   -2.5786 C   0  0  0  0  0
   -2.8590    0.8944   -3.4940 C   0  0  0  0  0
   -1.6221    1.2023   -3.0754 C   0  0  0  0  0
   -1.1586    1.4986   -1.6827 C   0  0  2  0  0
    0.2233    1.8643   -1.7646 O   0  0  0  0  0
    0.4982    3.1676   -1.9729 C   0  0  0  0  0
   -0.2994    4.0771   -2.0847 O   0  0  0  0  0
    1.9667    3.3701   -2.0103 C   0  0  0  0  0
    2.8544    2.2940   -1.8596 C   0  0  0  0  0
    4.2370    2.5091   -1.9171 C   0  0  0  0  0
    5.1903    1.5406   -1.7810 O   0  0  0  0  0
    4.6942    0.2183   -1.5882 C   0  0  0  0  0
    4.1250    0.1573   -0.6465 H   0  0  0  0  0
    4.0918   -0.1174   -2.4313 H   0  0  0  0  0
    5.5548   -0.4522   -1.5049 H   0  0  0  0  0
    4.7116    3.8079   -2.1299 C   0  0  0  0  0
    6.0535    4.0716   -2.1916 O   0  0  0  0  0
    6.5311    3.2320   -2.0681 H   0  0  0  0  0
    3.8370    4.8800   -2.2836 C   0  0  0  0  0
    2.4622    4.6618   -2.2211 C   0  0  0  0  0
    1.7942    5.5080   -2.3648 H   0  0  0  0  0
    4.2157    5.8857   -2.4443 H   0  0  0  0  0
    2.4639    1.2939   -1.6999 H   0  0  0  0  0
   -1.2924    0.2775   -0.7395 C   0  0  1  0  0
   -0.7172    0.4935    0.7013 C   0  0  2  0  0
   -1.0389    1.8245    1.1271 O   0  0  0  0  0
   -0.8267    1.9012    2.0722 H   0  0  0  0  0
    0.8032    0.2950    0.8433 C   0  0  0  0  0
    1.3022    0.4726    2.2806 C   0  0  0  0  0
    0.8567   -0.2623    2.9569 H   0  0  0  0  0
    2.3895    0.3483    2.3249 H   0  0  0  0  0
    1.0713    1.4720    2.6606 H   0  0  0  0  0
    1.2318   -1.0761    0.3137 C   0  0  0  0  0
    0.9059   -1.2114   -0.7230 H   0  0  0  0  0
    0.8136   -1.8912    0.9125 H   0  0  0  0  0
    2.3226   -1.1734    0.3354 H   0  0  0  0  0
    1.2999    1.0546    0.2251 H   0  0  0  0  0
   -1.5281   -0.4912    1.5506 C   0  0  0  0  0
   -2.9368   -0.3308    1.0052 C   0  0  0  0  0
   -2.7676   -0.2252   -0.5315 C   0  0  1  0  0
   -3.8616    0.7151   -1.0726 C   0  0  0  0  0
   -4.8262    0.3758   -0.6698 H   0  0  0  0  0
   -3.7387    1.7408   -0.7091 H   0  0  0  0  0
   -2.9326   -1.6414   -1.1281 C   0  0  0  0  0
   -2.7189   -1.6630   -2.2008 H   0  0  0  0  0
   -3.9540   -2.0129   -0.9828 H   0  0  0  0  0
   -2.2528   -2.3571   -0.6515 H   0  0  0  0  0
   -3.3813    0.5852    1.4159 H   0  0  0  0  0
   -3.5824   -1.1612    1.3095 H   0  0  0  0  0
   -1.1872   -1.5221    1.4157 H   0  0  0  0  0
   -1.5075   -0.2530    2.6192 H   0  0  0  0  0
   -0.7203   -0.5427   -1.1945 H   0  0  0  0  0
   -1.7156    2.3598   -1.2839 H   0  0  0  0  0
   -0.8471    1.2699   -3.8393 H   0  0  0  0  0
   -3.1492    0.6640   -4.9519 C   0  0  0  0  0
   -2.2497    0.7431   -5.5725 H   0  0  0  0  0
   -3.5645   -0.3382   -5.1024 H   0  0  0  0  0
   -3.8702    1.4002   -5.3217 H   0  0  0  0  0
  1  2  2  0  0  0
  2  3  1  0  0  0
  2 42  1  0  0  0
  3  4  2  0  0  0
  3 56  1  0  0  0
  4  5  1  0  0  0
  4 55  1  0  0  0
  5  6  1  0  0  0
  5 25  1  0  0  0
  5 54  1  0  0  0
  6  7  1  0  0  0
  7  8  2  0  0  0
  7  9  1  0  0  0
  9 10  2  0  0  0
  9 21  1  0  0  0
 10 11  1  0  0  0
 10 24  1  0  0  0
 11 12  1  0  0  0
 11 17  2  0  0  0
 12 13  1  0  0  0
 13 14  1  0  0  0
 13 15  1  0  0  0
 13 16  1  0  0  0
 17 18  1  0  0  0
 17 20  1  0  0  0
 18 19  1  0  0  0
 20 21  2  0  0  0
 20 23  1  0  0  0
 21 22  1  0  0  0
 25 26  1  0  0  0
 25 41  1  0  0  0
 25 53  1  0  0  0
 26 27  1  0  0  0
 26 29  1  0  0  0
 26 39  1  0  0  0
 27 28  1  0  0  0
 29 30  1  0  0  0
 29 34  1  0  0  0
 29 38  1  0  0  0
 30 31  1  0  0  0
 30 32  1  0  0  0
 30 33  1  0  0  0
 34 35  1  0  0  0
 34 36  1  0  0  0
 34 37  1  0  0  0
 39 40  1  0  0  0
 39 51  1  0  0  0
 39 52  1  0  0  0
 40 41  1  0  0  0
 40 49  1  0  0  0
 40 50  1  0  0  0
 41 42  1  0  0  0
 41 45  1  0  0  0
 42 43  1  0  0  0
 42 44  1  0  0  0
 45 46  1  0  0  0
 45 47  1  0  0  0
 45 48  1  0  0  0
 56 57  1  0  0  0
 56 58  1  0  0  0
 56 59  1  0  0  0
M  END
> <Tumorigenic>
none

> <Score>
34.771477

> <Active/Decoy>
active

> <InChI>
InChI=1S/C23H30O6/c1-13(2)23(27)9-8-22(4)12-17(25)14(3)10-19(20(22)23)29-21(26)15-6-7-16(24)18(11-15)28-5/h6-7,10-11,13,19-20,24,27H,8-9,12H2,1-5H3/t19-,20+,22-,23+/m0/s1

> <Matching Features>
H:14924486185440016873||HBA:14924321692640012300|HBA:14924486112070016868

> <Mol. Index>
937

> <Pharmacophore Match>
Model -1

> <# Confs.>
25

> <Source Database>
Pharm-Screening-input-NANPDB_After_DataWarror.ldb

> <Pharmacophore-Fit Score>
34.77

> <formula>
C23H30O6

> <Mutagenic>
none

> <Reproductive Effective>
none

> <Irritant>
none

$$$$
5,8-dimethoxy-2-(3'-methoxyphenyl)-3-propyl-1H-quinolin-4- one
XX    ILIB03122402123D

 49 51  0  0  1  0              1 V2000
   -2.9352    0.7354   -1.1748 O   0  0  0  0  0
   -2.1732    1.3738   -1.8937 C   0  0  0  0  0
   -2.5732    1.7829   -3.2779 C   0  0  0  0  0
   -1.6426    2.5148   -4.0424 C   0  0  0  0  0
   -0.4001    2.8530   -3.4875 N   0  0  0  0  0
   -0.0132    2.4834   -2.2264 C   0  0  0  0  0
   -0.8055    1.7583   -1.3916 C   0  0  0  0  0
   -0.4829    1.3614    0.0196 C   0  0  0  0  0
    0.1703   -0.0184    0.1369 C   0  0  0  0  0
    1.1225   -0.1674    1.3161 C   0  0  0  0  0
    0.6204    0.0393    2.2659 H   0  0  0  0  0
    1.5057   -1.1919    1.3592 H   0  0  0  0  0
    1.9811    0.5045    1.2231 H   0  0  0  0  0
    0.7196   -0.2385   -0.7875 H   0  0  0  0  0
   -0.6138   -0.7806    0.2216 H   0  0  0  0  0
   -1.4125    1.3713    0.6026 H   0  0  0  0  0
    0.1768    2.1072    0.4822 H   0  0  0  0  0
    1.3293    2.8827   -1.8242 C   0  0  0  0  0
    2.4323    2.0678   -2.0860 C   0  0  0  0  0
    3.7198    2.4532   -1.6919 C   0  0  0  0  0
    4.7086    1.5566   -1.9843 O   0  0  0  0  0
    4.9879    0.6040   -0.9802 C   0  0  0  0  0
    5.3419    1.0904   -0.0642 H   0  0  0  0  0
    4.1143   -0.0257   -0.7800 H   0  0  0  0  0
    5.7893   -0.0443   -1.3444 H   0  0  0  0  0
    3.9041    3.6873   -1.0638 C   0  0  0  0  0
    2.8088    4.5172   -0.8153 C   0  0  0  0  0
    1.5251    4.1228   -1.1910 C   0  0  0  0  0
    0.6868    4.7836   -0.9856 H   0  0  0  0  0
    2.9589    5.4772   -0.3280 H   0  0  0  0  0
    4.8863    4.0347   -0.7546 H   0  0  0  0  0
    2.2888    1.1071   -2.5769 H   0  0  0  0  0
    0.2592    3.3641   -4.0606 H   0  0  0  0  0
   -1.9845    2.9506   -5.3366 C   0  0  0  0  0
   -1.0223    3.6536   -6.0044 O   0  0  0  0  0
   -1.3743    4.0686   -7.3216 C   0  0  0  0  0
   -1.5592    3.2067   -7.9718 H   0  0  0  0  0
   -2.2374    4.7425   -7.3057 H   0  0  0  0  0
   -0.5254    4.6228   -7.7351 H   0  0  0  0  0
   -3.2351    2.6239   -5.8646 C   0  0  0  0  0
   -4.1548    1.8973   -5.1049 C   0  0  0  0  0
   -3.8362    1.4593   -3.8140 C   0  0  0  0  0
   -4.6980    0.7501   -3.0275 O   0  0  0  0  0
   -4.5982   -0.6664   -3.1518 C   0  0  0  0  0
   -4.8388   -0.9916   -4.1697 H   0  0  0  0  0
   -3.6068   -1.0208   -2.8492 H   0  0  0  0  0
   -5.3335   -1.1124   -2.4756 H   0  0  0  0  0
   -5.1040    1.6555   -5.5735 H   0  0  0  0  0
   -3.5308    2.9235   -6.8655 H   0  0  0  0  0
  1  2  2  0  0  0
  2  3  1  0  0  0
  2  7  1  0  0  0
  3  4  2  0  0  0
  3 42  1  0  0  0
  4  5  1  0  0  0
  4 34  1  0  0  0
  5  6  1  0  0  0
  5 33  1  0  0  0
  6  7  2  0  0  0
  6 18  1  0  0  0
  7  8  1  0  0  0
  8  9  1  0  0  0
  8 16  1  0  0  0
  8 17  1  0  0  0
  9 10  1  0  0  0
  9 14  1  0  0  0
  9 15  1  0  0  0
 10 11  1  0  0  0
 10 12  1  0  0  0
 10 13  1  0  0  0
 18 19  2  0  0  0
 18 28  1  0  0  0
 19 20  1  0  0  0
 19 32  1  0  0  0
 20 21  1  0  0  0
 20 26  2  0  0  0
 21 22  1  0  0  0
 22 23  1  0  0  0
 22 24  1  0  0  0
 22 25  1  0  0  0
 26 27  1  0  0  0
 26 31  1  0  0  0
 27 28  2  0  0  0
 27 30  1  0  0  0
 28 29  1  0  0  0
 34 35  1  0  0  0
 34 40  2  0  0  0
 35 36  1  0  0  0
 36 37  1  0  0  0
 36 38  1  0  0  0
 36 39  1  0  0  0
 40 41  1  0  0  0
 40 49  1  0  0  0
 41 42  2  0  0  0
 41 48  1  0  0  0
 42 43  1  0  0  0
 43 44  1  0  0  0
 44 45  1  0  0  0
 44 46  1  0  0  0
 44 47  1  0  0  0
M  END
> <Tumorigenic>
none

> <Score>
34.773872

> <Active/Decoy>
active

> <InChI>
InChI=1S/C21H23NO4/c1-5-7-15-19(13-8-6-9-14(12-13)24-2)22-20-17(26-4)11-10-16(25-3)18(20)21(15)23/h6,8-12H,5,7H2,1-4H3,(H,22,23)

> <Matching Features>
H:14924486185440016873||HBA:14924321692640012300|HBA:14924486112070016868

> <Mol. Index>
730

> <Pharmacophore Match>
Model -1

> <# Confs.>
25

> <Source Database>
Pharm-Screening-input-NANPDB_After_DataWarror.ldb

> <Pharmacophore-Fit Score>
34.77

> <formula>
C21H23NO4

> <Mutagenic>
none

> <Reproductive Effective>
none

> <Irritant>
none

$$$$
ent-18-acetoxy-3beta,7alpha,17-trihydroxykaur-15-ene
XX    ILIB03122402123D

 61 64  0  0  1  0              1 V2000
    5.1909    1.5685   -1.8537 O   0  0  0  0  0
    4.1204    2.1342   -1.6791 C   0  0  0  0  0
    2.9132    1.5408   -1.5256 O   0  0  0  0  0
    2.9121    0.1133   -1.5557 C   0  0  0  0  0
    1.5531   -0.3606   -2.0830 C   0  0  1  0  0
    1.5025   -1.9181   -2.1341 C   0  0  2  0  0
    0.4148   -2.3415   -2.9677 O   0  0  0  0  0
    0.4417   -3.3126   -3.0154 H   0  0  0  0  0
    1.3354   -2.5543   -0.7655 C   0  0  0  0  0
    0.0744   -2.0472   -0.0600 C   0  0  0  0  0
    0.0172   -0.5046    0.1164 C   0  0  1  0  0
    0.3126    0.1763   -1.2691 C   0  0  1  0  0
    0.2397    1.7226   -1.1996 C   0  0  0  0  0
   -0.9418    2.2834   -0.3929 C   0  0  2  0  0
   -0.4203    2.8552    0.8105 O   0  0  0  0  0
   -1.1268    3.3832    1.2169 H   0  0  0  0  0
   -2.0059    1.2338   -0.0658 C   0  0  2  0  0
   -1.3961   -0.0052    0.6845 C   0  0  1  0  0
   -2.4770   -1.1039    0.9158 C   0  0  0  0  0
   -3.8402   -0.5359    1.3686 C   0  0  0  0  0
   -4.2369    0.7464    0.6151 C   0  0  2  0  0
   -4.1182    0.5730   -0.8788 C   0  0  0  0  0
   -2.8625    0.8500   -1.2641 C   0  0  0  0  0
   -2.5123    0.7901   -2.2843 H   0  0  0  0  0
   -5.2600    0.1496   -1.7442 C   0  0  0  0  0
   -5.1219    0.7029   -3.0463 O   0  0  0  0  0
   -5.1363    1.6713   -2.9584 H   0  0  0  0  0
   -6.2247    0.4658   -1.3358 H   0  0  0  0  0
   -5.2796   -0.9406   -1.8375 H   0  0  0  0  0
   -3.1381    1.7914    0.8286 C   0  0  0  0  0
   -2.8537    1.8942    1.8815 H   0  0  0  0  0
   -3.4705    2.7806    0.4828 H   0  0  0  0  0
   -5.2115    1.1275    0.9295 H   0  0  0  0  0
   -4.6106   -1.3066    1.2420 H   0  0  0  0  0
   -3.7906   -0.3160    2.4427 H   0  0  0  0  0
   -2.6453   -1.6685   -0.0086 H   0  0  0  0  0
   -2.1308   -1.8226    1.6674 H   0  0  0  0  0
   -1.1940    0.3614    1.7020 H   0  0  0  0  0
   -1.3795    3.1171   -0.9567 H   0  0  0  0  0
    0.1393    2.1045   -2.2224 H   0  0  0  0  0
    1.1747    2.1358   -0.8076 H   0  0  0  0  0
   -0.5364   -0.1264   -1.8963 H   0  0  0  0  0
    1.0632   -0.1318    1.2044 C   0  0  0  0  0
    2.0366   -0.5934    1.0505 H   0  0  0  0  0
    0.7374   -0.4875    2.1898 H   0  0  0  0  0
    1.2183    0.9465    1.2827 H   0  0  0  0  0
   -0.0032   -2.5446    0.9143 H   0  0  0  0  0
   -0.7809   -2.3873   -0.6542 H   0  0  0  0  0
    2.2242   -2.3860   -0.1506 H   0  0  0  0  0
    1.2407   -3.6417   -0.8784 H   0  0  0  0  0
    2.4152   -2.3127   -2.6125 H   0  0  0  0  0
    1.4572    0.1619   -3.5547 C   0  0  0  0  0
    2.1609   -0.3525   -4.2145 H   0  0  0  0  0
    0.4542    0.0232   -3.9715 H   0  0  0  0  0
    1.6880    1.2353   -3.6136 H   0  0  0  0  0
    3.7137   -0.2757   -2.1866 H   0  0  0  0  0
    3.0483   -0.3042   -0.5423 H   0  0  0  0  0
    3.9552    3.6225   -1.6275 C   0  0  0  0  0
    3.3562    3.9562   -2.4783 H   0  0  0  0  0
    4.9380    4.0996   -1.6799 H   0  0  0  0  0
    3.4839    3.9128   -0.6854 H   0  0  0  0  0
  1  2  2  0  0  0
  2  3  1  0  0  0
  2 58  1  0  0  0
  3  4  1  0  0  0
  4  5  1  0  0  0
  4 56  1  0  0  0
  4 57  1  0  0  0
  5  6  1  0  0  0
  5 12  1  0  0  0
  5 52  1  0  0  0
  6  7  1  0  0  0
  6  9  1  0  0  0
  6 51  1  0  0  0
  7  8  1  0  0  0
  9 10  1  0  0  0
  9 49  1  0  0  0
  9 50  1  0  0  0
 10 11  1  0  0  0
 10 47  1  0  0  0
 10 48  1  0  0  0
 11 12  1  0  0  0
 11 18  1  0  0  0
 11 43  1  0  0  0
 12 13  1  0  0  0
 12 42  1  0  0  0
 13 14  1  0  0  0
 13 40  1  0  0  0
 13 41  1  0  0  0
 14 15  1  0  0  0
 14 17  1  0  0  0
 14 39  1  0  0  0
 15 16  1  0  0  0
 17 18  1  0  0  0
 17 23  1  0  0  0
 17 30  1  0  0  0
 18 19  1  0  0  0
 18 38  1  0  0  0
 19 20  1  0  0  0
 19 36  1  0  0  0
 19 37  1  0  0  0
 20 21  1  0  0  0
 20 34  1  0  0  0
 20 35  1  0  0  0
 21 22  1  0  0  0
 21 30  1  0  0  0
 21 33  1  0  0  0
 22 23  2  0  0  0
 22 25  1  0  0  0
 23 24  1  0  0  0
 25 26  1  0  0  0
 25 28  1  0  0  0
 25 29  1  0  0  0
 26 27  1  0  0  0
 30 31  1  0  0  0
 30 32  1  0  0  0
 43 44  1  0  0  0
 43 45  1  0  0  0
 43 46  1  0  0  0
 52 53  1  0  0  0
 52 54  1  0  0  0
 52 55  1  0  0  0
 58 59  1  0  0  0
 58 60  1  0  0  0
 58 61  1  0  0  0
M  END
> <Tumorigenic>
none

> <Score>
34.769512

> <Active/Decoy>
active

> <InChI>
InChI=1S/C22H34O5/c1-13(24)27-12-21(3)17-8-19(26)22-9-14(15(10-22)11-23)4-5-16(22)20(17,2)7-6-18(21)25/h10,14,16-19,23,25-26H,4-9,11-12H2,1-3H3/t14-,16-,17+,18+,19-,20+,21+,22-/m0/s1

> <Matching Features>
H:14924486185440016873||HBA:14924321692640012300|HBA:14924486112070016868

> <Mol. Index>
592

> <Pharmacophore Match>
Model -1

> <# Confs.>
25

> <Source Database>
Pharm-Screening-input-NANPDB_After_DataWarror.ldb

> <Pharmacophore-Fit Score>
34.77

> <formula>
C22H34O5

> <Mutagenic>
none

> <Reproductive Effective>
none

> <Irritant>
none

$$$$
acacetin-7-O-beta-glucopyranoside
XX    ILIB03122402123D

 54 57  0  0  1  0              1 V2000
    3.6943    1.6908   -2.6743 O   0  0  0  0  0
    2.7446    1.4957   -1.9288 C   0  0  0  0  0
    1.3611    1.8695   -2.2850 C   0  0  0  0  0
    0.3551    1.6021   -1.3578 C   0  0  0  0  0
    0.5836    0.9803   -0.1559 O   0  0  0  0  0
    1.8841    0.6426    0.1858 C   0  0  0  0  0
    2.9402    0.8534   -0.6140 C   0  0  0  0  0
    3.9547    0.5697   -0.3574 H   0  0  0  0  0
    2.0081   -0.0143    1.5010 C   0  0  0  0  0
    3.1844    0.1361    2.2621 C   0  0  0  0  0
    3.3061   -0.4590    3.5222 C   0  0  0  0  0
    2.2583   -1.2057    4.0612 C   0  0  0  0  0
    2.4938   -1.7336    5.2964 O   0  0  0  0  0
    1.4227   -2.4971    5.8492 C   0  0  0  0  0
    0.5305   -1.8778    5.9920 H   0  0  0  0  0
    1.7402   -2.8574    6.8318 H   0  0  0  0  0
    1.1976   -3.3712    5.2293 H   0  0  0  0  0
    1.0844   -1.3555    3.3226 C   0  0  0  0  0
    0.9640   -0.7601    2.0607 C   0  0  0  0  0
    0.0273   -0.8989    1.5245 H   0  0  0  0  0
    0.2404   -1.9279    3.6961 H   0  0  0  0  0
    4.2310   -0.3308    4.0794 H   0  0  0  0  0
    4.0287    0.7085    1.8864 H   0  0  0  0  0
   -0.9761    1.9193   -1.6455 C   0  0  0  0  0
   -1.3213    2.5322   -2.8490 C   0  0  0  0  0
   -2.6341    2.8338   -3.0181 O   0  0  0  0  0
   -3.1285    2.8080   -4.3549 C   0  0  2  0  0
   -3.0134    4.1012   -4.9510 O   0  0  0  0  0
   -3.4761    4.1297   -6.3047 C   0  0  1  0  0
   -4.9763    3.8223   -6.3418 C   0  0  1  0  0
   -5.4073    3.7761   -7.6983 O   0  0  0  0  0
   -6.3742    3.6812   -7.6996 H   0  0  0  0  0
   -5.2677    2.4804   -5.6699 C   0  0  2  0  0
   -6.6776    2.3365   -5.4851 O   0  0  0  0  0
   -7.0868    2.3038   -6.3658 H   0  0  0  0  0
   -4.5999    2.3914   -4.2979 C   0  0  1  0  0
   -4.6971    1.0516   -3.8146 O   0  0  0  0  0
   -4.2065    0.4761   -4.4259 H   0  0  0  0  0
   -5.1418    3.0187   -3.5786 H   0  0  0  0  0
   -4.9501    1.6469   -6.3082 H   0  0  0  0  0
   -5.5399    4.6179   -5.8387 H   0  0  0  0  0
   -3.1737    5.5096   -6.8599 C   0  0  0  0  0
   -3.8410    6.4978   -6.0919 O   0  0  0  0  0
   -3.6181    7.3604   -6.4808 H   0  0  0  0  0
   -3.4927    5.5911   -7.9045 H   0  0  0  0  0
   -2.0959    5.7035   -6.8291 H   0  0  0  0  0
   -2.9107    3.3914   -6.8889 H   0  0  0  0  0
   -2.5422    2.0755   -4.9268 H   0  0  0  0  0
   -0.3065    2.8050   -3.7863 C   0  0  0  0  0
    1.0256    2.4904   -3.4935 C   0  0  0  0  0
    1.9366    2.7720   -4.4746 O   0  0  0  0  0
    2.8202    2.4988   -4.1800 H   0  0  0  0  0
   -0.5280    3.2840   -4.7358 H   0  0  0  0  0
   -1.7529    1.6964   -0.9173 H   0  0  0  0  0
  1  2  2  0  0  0
  2  3  1  0  0  0
  2  7  1  0  0  0
  3  4  2  0  0  0
  3 50  1  0  0  0
  4  5  1  0  0  0
  4 24  1  0  0  0
  5  6  1  0  0  0
  6  7  2  0  0  0
  6  9  1  0  0  0
  7  8  1  0  0  0
  9 10  2  0  0  0
  9 19  1  0  0  0
 10 11  1  0  0  0
 10 23  1  0  0  0
 11 12  2  0  0  0
 11 22  1  0  0  0
 12 13  1  0  0  0
 12 18  1  0  0  0
 13 14  1  0  0  0
 14 15  1  0  0  0
 14 16  1  0  0  0
 14 17  1  0  0  0
 18 19  2  0  0  0
 18 21  1  0  0  0
 19 20  1  0  0  0
 24 25  2  0  0  0
 24 54  1  0  0  0
 25 26  1  0  0  0
 25 49  1  0  0  0
 26 27  1  0  0  0
 27 28  1  0  0  0
 27 36  1  0  0  0
 27 48  1  0  0  0
 28 29  1  0  0  0
 29 30  1  0  0  0
 29 42  1  0  0  0
 29 47  1  0  0  0
 30 31  1  0  0  0
 30 33  1  0  0  0
 30 41  1  0  0  0
 31 32  1  0  0  0
 33 34  1  0  0  0
 33 36  1  0  0  0
 33 40  1  0  0  0
 34 35  1  0  0  0
 36 37  1  0  0  0
 36 39  1  0  0  0
 37 38  1  0  0  0
 42 43  1  0  0  0
 42 45  1  0  0  0
 42 46  1  0  0  0
 43 44  1  0  0  0
 49 50  2  0  0  0
 49 53  1  0  0  0
 50 51  1  0  0  0
 51 52  1  0  0  0
M  END
> <Tumorigenic>
none

> <Score>
34.756725

> <Active/Decoy>
active

> <InChI>
InChI=1S/C22H22O10/c1-29-11-4-2-10(3-5-11)15-8-14(25)18-13(24)6-12(7-16(18)31-15)30-22-21(28)20(27)19(26)17(9-23)32-22/h2-8,17,19-24,26-28H,9H2,1H3/t17-,19-,20+,21-,22-/m1/s1

> <Matching Features>
H:14924486185440016873||HBA:14924321692640012300|HBA:14924486112070016868

> <Mol. Index>
1372

> <Pharmacophore Match>
Model -1

> <# Confs.>
25

> <Source Database>
Pharm-Screening-input-NANPDB_After_DataWarror.ldb

> <Pharmacophore-Fit Score>
34.76

> <formula>
C22H22O10

> <Mutagenic>
none

> <Reproductive Effective>
none

> <Irritant>
none

$$$$
(?)-enterofuran
XX    ILIB03122402123D

 41 43  0  0  1  0              1 V2000
   -1.2136   -4.0873   -0.0018 O   0  0  0  0  0
   -1.7405   -3.7026   -1.2796 C   0  0  0  0  0
   -1.6460   -2.1900   -1.3656 C   0  0  1  0  0
   -0.3846   -1.9272   -0.5371 C   0  0  2  0  0
   -0.5509   -2.9540    0.5769 C   0  0  0  0  0
   -1.1836   -2.5824    1.3913 H   0  0  0  0  0
    0.4063   -3.2747    0.9997 H   0  0  0  0  0
   -0.2318   -0.4965   -0.0414 C   0  0  0  0  0
    1.1583   -0.1486    0.3944 C   0  0  0  0  0
    2.0866    0.3492   -0.5286 C   0  0  0  0  0
    3.3842    0.6507   -0.1173 C   0  0  0  0  0
    4.2619    1.1397   -1.0452 O   0  0  0  0  0
    5.1160    1.2966   -0.6095 H   0  0  0  0  0
    3.7788    0.4584    1.2051 C   0  0  0  0  0
    2.8619   -0.0442    2.1251 C   0  0  0  0  0
    1.5585   -0.3501    1.7223 C   0  0  0  0  0
    0.8581   -0.7453    2.4538 H   0  0  0  0  0
    3.1595   -0.2018    3.1572 H   0  0  0  0  0
    4.7889    0.6940    1.5264 H   0  0  0  0  0
    1.7985    0.5028   -1.5653 H   0  0  0  0  0
   -0.5670    0.2105   -0.8181 H   0  0  0  0  0
   -0.9143   -0.3345    0.8120 H   0  0  0  0  0
    0.4936   -2.2030   -1.1389 H   0  0  0  0  0
   -1.5810   -1.6371   -2.7791 C   0  0  0  0  0
   -2.9491   -1.5251   -3.4257 C   0  0  0  0  0
   -3.7097   -0.3575   -3.2816 C   0  0  0  0  0
   -4.9695   -0.2690   -3.8731 C   0  0  0  0  0
   -5.6797    0.8874   -3.7147 O   0  0  0  0  0
   -6.5296    0.7945   -4.1786 H   0  0  0  0  0
   -5.4911   -1.3327   -4.6058 C   0  0  0  0  0
   -4.7427   -2.4997   -4.7449 C   0  0  0  0  0
   -3.4801   -2.5976   -4.1569 C   0  0  0  0  0
   -2.9118   -3.5170   -4.2718 H   0  0  0  0  0
   -5.1430   -3.3359   -5.3110 H   0  0  0  0  0
   -6.4719   -1.2644   -5.0673 H   0  0  0  0  0
   -3.3199    0.4808   -2.7099 H   0  0  0  0  0
   -1.0995   -0.6589   -2.7907 H   0  0  0  0  0
   -0.9735   -2.2993   -3.3968 H   0  0  0  0  0
   -2.5053   -1.7472   -0.8203 H   0  0  0  0  0
   -2.7687   -4.0638   -1.3674 H   0  0  0  0  0
   -1.1326   -4.1925   -2.0490 H   0  0  0  0  0
  1  2  1  0  0  0
  1  5  1  0  0  0
  2  3  1  0  0  0
  2 40  1  0  0  0
  2 41  1  0  0  0
  3  4  1  0  0  0
  3 24  1  0  0  0
  3 39  1  0  0  0
  4  5  1  0  0  0
  4  8  1  0  0  0
  4 23  1  0  0  0
  5  6  1  0  0  0
  5  7  1  0  0  0
  8  9  1  0  0  0
  8 21  1  0  0  0
  8 22  1  0  0  0
  9 10  2  0  0  0
  9 16  1  0  0  0
 10 11  1  0  0  0
 10 20  1  0  0  0
 11 12  1  0  0  0
 11 14  2  0  0  0
 12 13  1  0  0  0
 14 15  1  0  0  0
 14 19  1  0  0  0
 15 16  2  0  0  0
 15 18  1  0  0  0
 16 17  1  0  0  0
 24 25  1  0  0  0
 24 37  1  0  0  0
 24 38  1  0  0  0
 25 26  2  0  0  0
 25 32  1  0  0  0
 26 27  1  0  0  0
 26 36  1  0  0  0
 27 28  1  0  0  0
 27 30  2  0  0  0
 28 29  1  0  0  0
 30 31  1  0  0  0
 30 35  1  0  0  0
 31 32  2  0  0  0
 31 34  1  0  0  0
 32 33  1  0  0  0
M  END
> <Tumorigenic>
none

> <Score>
34.759792

> <Active/Decoy>
active

> <InChI>
InChI=1S/C18H20O3/c19-17-5-1-3-13(9-17)7-15-11-21-12-16(15)8-14-4-2-6-18(20)10-14/h1-6,9-10,15-16,19-20H,7-8,11-12H2/t15-,16-/m0/s1

> <Matching Features>
H:14924486185440016873||HBA:14924321692640012300|HBA:14924486112070016868

> <Mol. Index>
985

> <Pharmacophore Match>
Model -1

> <# Confs.>
25

> <Source Database>
Pharm-Screening-input-NANPDB_After_DataWarror.ldb

> <Pharmacophore-Fit Score>
34.76

> <formula>
C18H20O3

> <Mutagenic>
none

> <Reproductive Effective>
none

> <Irritant>
none

$$$$
wortmannin C
XX    ILIB03122402123D

 59 62  0  0  1  0              1 V2000
    4.9027    1.5933   -2.0149 O   0  0  0  0  0
    3.9425    1.1752   -1.3824 C   0  0  0  0  0
    3.1378    0.1732   -1.8176 O   0  0  0  0  0
    2.3679   -0.5878   -0.8512 C   0  0  1  0  0
    3.3264   -1.4084   -0.0130 C   0  0  0  0  0
    4.0298   -2.3015   -0.8979 O   0  0  0  0  0
    4.9660   -3.1254   -0.2141 C   0  0  0  0  0
    4.4616   -3.7802    0.5025 H   0  0  0  0  0
    5.7132   -2.5114    0.2966 H   0  0  0  0  0
    5.4751   -3.7491   -0.9531 H   0  0  0  0  0
    2.7857   -1.9795    0.7441 H   0  0  0  0  0
    4.0375   -0.7485    0.4876 H   0  0  0  0  0
    1.3665    0.3796   -0.0740 C   0  0  1  0  0
    2.0554    1.7378    0.1263 C   0  0  0  0  0
    3.4915    1.7404   -0.0873 C   0  0  0  0  0
    4.4339    2.1868    0.7586 C   0  0  0  0  0
    4.2958    2.7109    2.0043 N   0  0  0  0  0
    3.3779    2.8117    2.4179 H   0  0  0  0  0
    5.1182    2.9980    2.5199 H   0  0  0  0  0
    5.4843    2.1350    0.4907 H   0  0  0  0  0
    1.3645    2.8761    0.3122 C   0  0  0  0  0
    1.9607    4.1074    0.4761 O   0  0  0  0  0
    1.2506    4.7686    0.5455 H   0  0  0  0  0
   -0.1132    2.8303    0.2537 C   0  0  0  0  0
   -0.7896    3.7138    0.7686 O   0  0  0  0  0
   -0.7182    1.7302   -0.5565 C   0  0  0  0  0
   -0.0081    0.5994   -0.7779 C   0  0  0  0  0
   -0.5942   -0.5130   -1.6411 C   0  0  1  0  0
   -0.8493   -1.6511   -0.8044 O   0  0  0  0  0
   -0.7616   -2.8640   -1.3930 C   0  0  0  0  0
   -0.4862   -3.0836   -2.5652 O   0  0  0  0  0
   -1.0423   -3.9331   -0.3828 C   0  0  0  0  0
   -0.2622   -3.9323    0.3823 H   0  0  0  0  0
   -1.0504   -4.9090   -0.8765 H   0  0  0  0  0
   -2.0255   -3.7710    0.0686 H   0  0  0  0  0
   -1.8803   -0.1398   -2.3994 C   0  0  0  0  0
   -2.8451    0.7207   -1.5619 C   0  0  2  0  0
   -3.8773    1.3416   -2.4998 C   0  0  0  0  0
   -4.8067    0.7314   -3.0152 O   0  0  0  0  0
   -3.6341    2.8132   -2.7109 C   0  0  0  0  0
   -2.2293    2.9916   -2.1554 C   0  0  0  0  0
   -2.1352    1.9653   -1.0173 C   0  0  2  0  0
   -2.7226    2.3455   -0.1687 H   0  0  0  0  0
   -2.0675    4.0170   -1.8071 H   0  0  0  0  0
   -1.4839    2.7883   -2.9351 H   0  0  0  0  0
   -4.3683    3.3791   -2.1299 H   0  0  0  0  0
   -3.6908    3.0780   -3.7697 H   0  0  0  0  0
   -3.5438   -0.0796   -0.4638 C   0  0  0  0  0
   -2.8516   -0.3653    0.3345 H   0  0  0  0  0
   -4.0027   -0.9928   -0.8599 H   0  0  0  0  0
   -4.3493    0.5067   -0.0057 H   0  0  0  0  0
   -2.3959   -1.0433   -2.7510 H   0  0  0  0  0
   -1.5957    0.4094   -3.3071 H   0  0  0  0  0
    0.1325   -0.7800   -2.4183 H   0  0  0  0  0
    1.0364   -0.1851    1.3345 C   0  0  0  0  0
    0.3133    0.4413    1.8719 H   0  0  0  0  0
    1.9251   -0.2373    1.9733 H   0  0  0  0  0
    0.6021   -1.1878    1.2785 H   0  0  0  0  0
    1.7968   -1.3128   -1.4277 H   0  0  0  0  0
  1  2  2  0  0  0
  2  3  1  0  0  0
  2 15  1  0  0  0
  3  4  1  0  0  0
  4  5  1  0  0  0
  4 13  1  0  0  0
  4 59  1  0  0  0
  5  6  1  0  0  0
  5 11  1  0  0  0
  5 12  1  0  0  0
  6  7  1  0  0  0
  7  8  1  0  0  0
  7  9  1  0  0  0
  7 10  1  0  0  0
 13 14  1  0  0  0
 13 27  1  0  0  0
 13 55  1  0  0  0
 14 15  1  0  0  0
 14 21  2  0  0  0
 15 16  2  0  0  0
 16 17  1  0  0  0
 16 20  1  0  0  0
 17 18  1  0  0  0
 17 19  1  0  0  0
 21 22  1  0  0  0
 21 24  1  0  0  0
 22 23  1  0  0  0
 24 25  2  0  0  0
 24 26  1  0  0  0
 26 27  2  0  0  0
 26 42  1  0  0  0
 27 28  1  0  0  0
 28 29  1  0  0  0
 28 36  1  0  0  0
 28 54  1  0  0  0
 29 30  1  0  0  0
 30 31  2  0  0  0
 30 32  1  0  0  0
 32 33  1  0  0  0
 32 34  1  0  0  0
 32 35  1  0  0  0
 36 37  1  0  0  0
 36 52  1  0  0  0
 36 53  1  0  0  0
 37 38  1  0  0  0
 37 42  1  0  0  0
 37 48  1  0  0  0
 38 39  2  0  0  0
 38 40  1  0  0  0
 40 41  1  0  0  0
 40 46  1  0  0  0
 40 47  1  0  0  0
 41 42  1  0  0  0
 41 44  1  0  0  0
 41 45  1  0  0  0
 42 43  1  0  0  0
 48 49  1  0  0  0
 48 50  1  0  0  0
 48 51  1  0  0  0
 55 56  1  0  0  0
 55 57  1  0  0  0
 55 58  1  0  0  0
M  END
> <Tumorigenic>
none

> <Score>
34.76316

> <Active/Decoy>
active

> <InChI>
InChI=1S/C23H27NO8/c1-10(25)31-13-7-22(2)12(5-6-14(22)26)16-18(13)23(3)15(9-30-4)32-21(29)11(8-24)17(23)20(28)19(16)27/h8,12-13,15,28H,5-7,9,24H2,1-4H3/b11-8-/t12-,13+,15+,22+,23+/m1/s1

> <Matching Features>
H:14924486185440016873||HBA:14924321692640012300|HBA:14924486112070016868

> <Mol. Index>
832

> <Pharmacophore Match>
Model -1

> <# Confs.>
25

> <Source Database>
Pharm-Screening-input-NANPDB_After_DataWarror.ldb

> <Pharmacophore-Fit Score>
34.76

> <formula>
C23H27NO8

> <Mutagenic>
none

> <Reproductive Effective>
none

> <Irritant>
none

$$$$
13-O-desacetyl eudesma-afraglaucolide
XX    ILIB03122402123D

 45 47  0  0  1  0              1 V2000
   -2.7489   -2.7256   -1.3599 O   0  0  0  0  0
   -2.5062   -1.5823   -1.0115 C   0  0  0  0  0
   -1.4585   -1.2027   -0.2244 O   0  0  0  0  0
   -1.5321    0.2048    0.0336 C   0  0  2  0  0
   -2.6954    0.6371   -0.7811 C   0  0  0  0  0
   -3.2823   -0.3912   -1.3904 C   0  0  0  0  0
   -4.4642   -0.4510   -2.3026 C   0  0  0  0  0
   -4.5917    0.7641   -3.0286 O   0  0  0  0  0
   -3.7848    0.8773   -3.5599 H   0  0  0  0  0
   -5.3808   -0.5999   -1.7232 H   0  0  0  0  0
   -4.3903   -1.2740   -3.0221 H   0  0  0  0  0
   -2.9818    2.0958   -0.8837 C   0  0  0  0  0
   -1.7052    2.8405   -1.2993 C   0  0  0  0  0
   -0.4529    2.4886   -0.4341 C   0  0  2  0  0
    0.8149    3.1833   -1.0294 C   0  0  2  0  0
    0.9274    2.9478   -2.4340 O   0  0  0  0  0
    1.1278    2.0077   -2.5736 H   0  0  0  0  0
    2.1242    2.7448   -0.3469 C   0  0  0  0  0
    2.2870    1.2061   -0.2505 C   0  0  2  0  0
    2.5413    0.6844   -1.5572 O   0  0  0  0  0
    3.8386    0.6376   -1.9693 C   0  0  0  0  0
    4.6124    1.5790   -2.0749 O   0  0  0  0  0
    4.2106   -0.7872   -2.2499 C   0  0  0  0  0
    5.1357   -0.8111   -2.8319 H   0  0  0  0  0
    4.3625   -1.3200   -1.3086 H   0  0  0  0  0
    3.4287   -1.2695   -2.8430 H   0  0  0  0  0
    1.0303    0.5831    0.3163 C   0  0  0  0  0
   -0.2497    0.9291   -0.4270 C   0  0  1  0  0
   -0.0798    0.5988   -1.4634 H   0  0  0  0  0
    1.1117   -0.2042    1.4082 C   0  0  0  0  0
    2.0641   -0.3984    1.8909 H   0  0  0  0  0
    0.2414   -0.6683    1.8565 H   0  0  0  0  0
    3.1627    1.0196    0.3870 H   0  0  0  0  0
    2.1712    3.1767    0.6594 H   0  0  0  0  0
    2.9691    3.1512   -0.9174 H   0  0  0  0  0
    0.7171    4.2702   -0.9216 H   0  0  0  0  0
   -0.6779    3.0389    1.0006 C   0  0  0  0  0
    0.1660    2.8328    1.6655 H   0  0  0  0  0
   -0.8148    4.1262    0.9782 H   0  0  0  0  0
   -1.5650    2.6141    1.4787 H   0  0  0  0  0
   -1.5070    2.5972   -2.3513 H   0  0  0  0  0
   -1.8929    3.9203   -1.2643 H   0  0  0  0  0
   -3.3479    2.4670    0.0796 H   0  0  0  0  0
   -3.7686    2.3032   -1.6164 H   0  0  0  0  0
   -1.7325    0.3482    1.1008 H   0  0  0  0  0
  1  2  2  0  0  0
  2  3  1  0  0  0
  2  6  1  0  0  0
  3  4  1  0  0  0
  4  5  1  0  0  0
  4 28  1  0  0  0
  4 45  1  0  0  0
  5  6  2  0  0  0
  5 12  1  0  0  0
  6  7  1  0  0  0
  7  8  1  0  0  0
  7 10  1  0  0  0
  7 11  1  0  0  0
  8  9  1  0  0  0
 12 13  1  0  0  0
 12 43  1  0  0  0
 12 44  1  0  0  0
 13 14  1  0  0  0
 13 41  1  0  0  0
 13 42  1  0  0  0
 14 15  1  0  0  0
 14 28  1  0  0  0
 14 37  1  0  0  0
 15 16  1  0  0  0
 15 18  1  0  0  0
 15 36  1  0  0  0
 16 17  1  0  0  0
 18 19  1  0  0  0
 18 34  1  0  0  0
 18 35  1  0  0  0
 19 20  1  0  0  0
 19 27  1  0  0  0
 19 33  1  0  0  0
 20 21  1  0  0  0
 21 22  2  0  0  0
 21 23  1  0  0  0
 23 24  1  0  0  0
 23 25  1  0  0  0
 23 26  1  0  0  0
 27 28  1  0  0  0
 27 30  2  0  0  0
 28 29  1  0  0  0
 30 31  1  0  0  0
 30 32  1  0  0  0
 37 38  1  0  0  0
 37 39  1  0  0  0
 37 40  1  0  0  0
M  END
> <Tumorigenic>
none

> <Score>
34.73493

> <Active/Decoy>
active

> <InChI>
InChI=1S/C17H22O6/c1-8-12(22-9(2)19)6-13(20)17(3)5-4-10-11(7-18)16(21)23-15(10)14(8)17/h12-15,18,20H,1,4-7H2,2-3H3/t12-,13+,14-,15+,17+/m0/s1

> <Matching Features>
H:14924486185440016873||HBA:14924321692640012300|HBA:14924486112070016868

> <Mol. Index>
377

> <Pharmacophore Match>
Model -1

> <# Confs.>
9

> <Source Database>
Pharm-Screening-input-NANPDB_After_DataWarror.ldb

> <Pharmacophore-Fit Score>
34.73

> <formula>
C17H22O6

> <Mutagenic>
none

> <Reproductive Effective>
none

> <Irritant>
none

$$$$
neviotine C
XX    ILIB03122402123D

 86 90  0  0  1  0              1 V2000
   -5.2312    2.2766   -1.1251 O   0  0  0  0  0
   -4.4155    2.8386   -1.8611 C   0  0  0  0  0
   -3.8536    4.2243   -1.5081 C   0  0  0  0  0
   -2.4425    4.2969   -1.6830 O   0  0  0  0  0
   -1.7013    3.1701   -1.1989 C   0  0  1  0  0
   -1.4656    2.0974   -2.3271 C   0  0  1  0  0
   -2.4942    2.2542   -3.5175 C   0  0  2  0  0
   -2.2328    3.4695   -4.2289 O   0  0  0  0  0
   -2.7741    3.4615   -5.0372 H   0  0  0  0  0
   -3.9958    2.2008   -3.1834 C   0  0  1  0  0
   -4.4043    0.8373   -3.1570 O   0  0  0  0  0
   -5.3746    0.8231   -3.0938 H   0  0  0  0  0
   -4.5733    2.6914   -3.9739 H   0  0  0  0  0
   -2.2953    1.4506   -4.2372 H   0  0  0  0  0
    0.0018    2.2524   -2.9102 C   0  0  1  0  0
    1.1825    2.3228   -1.8852 C   0  0  2  0  0
    1.7863    0.8899   -1.9230 C   0  0  2  0  0
    3.1625    0.6160   -1.2788 C   0  0  1  0  0
    4.0660    1.4788   -1.9961 O   0  0  0  0  0
    4.0927    1.1844   -2.9225 H   0  0  0  0  0
    3.3225    1.0400    0.2143 C   0  0  0  0  0
    2.9958   -0.0335    1.2681 C   0  0  1  0  0
    3.7668   -1.3168    0.8966 C   0  0  1  0  0
    3.6828   -2.2017    2.1533 C   0  0  1  0  0
    2.4113   -2.8562    2.1712 O   0  0  0  0  0
    2.2976   -3.2790    3.0395 H   0  0  0  0  0
    4.7687   -3.2911    2.2213 C   0  0  0  0  0
    6.1931   -2.7244    2.2092 C   0  0  0  0  0
    6.3795   -2.0826    3.0763 H   0  0  0  0  0
    6.9276   -3.5362    2.2331 H   0  0  0  0  0
    6.3803   -2.1394    1.3043 H   0  0  0  0  0
    4.5789   -4.1826    3.4510 C   0  0  0  0  0
    3.5743   -4.6178    3.4646 H   0  0  0  0  0
    4.7223   -3.6247    4.3834 H   0  0  0  0  0
    5.3007   -5.0074    3.4448 H   0  0  0  0  0
    4.6602   -3.9292    1.3346 H   0  0  0  0  0
    3.7485   -1.1614    3.3073 C   0  0  0  0  0
    3.6160    0.2344    2.6528 C   0  0  0  0  0
    4.6157    0.6762    2.5539 H   0  0  0  0  0
    3.0208    0.9171    3.2689 H   0  0  0  0  0
    4.6909   -1.2011    3.8610 H   0  0  0  0  0
    2.9354   -1.3155    4.0261 H   0  0  0  0  0
    3.3251   -1.8726   -0.4487 C   0  0  0  0  0
    3.6495   -0.8426   -1.5397 C   0  0  0  0  0
    3.2709   -1.2019   -2.5054 H   0  0  0  0  0
    4.7425   -0.8227   -1.6612 H   0  0  0  0  0
    3.8668   -2.7994   -0.6681 H   0  0  0  0  0
    2.2622   -2.1285   -0.4625 H   0  0  0  0  0
    4.8251   -1.0351    0.7754 H   0  0  0  0  0
    1.4712   -0.1766    1.4578 C   0  0  0  0  0
    1.0114   -0.8390    0.7267 H   0  0  0  0  0
    1.2071   -0.5828    2.4392 H   0  0  0  0  0
    0.9766    0.7993    1.3943 H   0  0  0  0  0
    4.3734    1.3364    0.3516 H   0  0  0  0  0
    2.7682    1.9622    0.4224 H   0  0  0  0  0
    1.7041    0.5160   -3.4065 C   0  0  0  0  0
    0.4210    1.1604   -3.9234 C   0  0  0  0  0
    0.5995    1.6049   -4.9093 H   0  0  0  0  0
   -0.3427    0.3936   -4.0715 H   0  0  0  0  0
    1.6882   -0.5683   -3.5579 H   0  0  0  0  0
    2.5610    0.9059   -3.9652 H   0  0  0  0  0
    1.0671    0.2289   -1.3956 H   0  0  0  0  0
    0.6961    2.7338   -0.4772 C   0  0  0  0  0
   -0.4279    3.7509   -0.5735 C   0  0  0  0  0
   -0.6707    4.1242    0.4303 H   0  0  0  0  0
   -0.0988    4.6376   -1.1290 H   0  0  0  0  0
    0.3549    1.8710    0.1031 H   0  0  0  0  0
    1.5207    3.1672    0.1018 H   0  0  0  0  0
    2.1925    3.3885   -2.3714 C   0  0  0  0  0
    2.6146    3.1392   -3.3496 H   0  0  0  0  0
    3.0188    3.5150   -1.6653 H   0  0  0  0  0
    1.7177    4.3706   -2.4754 H   0  0  0  0  0
    0.0025    3.2051   -3.4571 H   0  0  0  0  0
   -1.6826    0.6990   -1.6878 C   0  0  0  0  0
   -0.9864    0.4965   -0.8737 H   0  0  0  0  0
   -1.5878   -0.1103   -2.4168 H   0  0  0  0  0
   -2.6812    0.6111   -1.2490 H   0  0  0  0  0
   -2.2502    2.7010   -0.3733 H   0  0  0  0  0
   -4.1887    4.6026   -0.0558 C   0  0  0  0  0
   -5.2681    4.7082    0.0950 H   0  0  0  0  0
   -3.8336    3.8478    0.6531 H   0  0  0  0  0
   -3.7045    5.5444    0.2230 H   0  0  0  0  0
   -4.4817    5.2711   -2.4319 C   0  0  0  0  0
   -4.2173    5.0935   -3.4794 H   0  0  0  0  0
   -4.1188    6.2753   -2.1904 H   0  0  0  0  0
   -5.5747    5.2684   -2.3590 H   0  0  0  0  0
  1  2  2  0  0  0
  2  3  1  0  0  0
  2 10  1  0  0  0
  3  4  1  0  0  0
  3 79  1  0  0  0
  3 83  1  0  0  0
  4  5  1  0  0  0
  5  6  1  0  0  0
  5 64  1  0  0  0
  5 78  1  0  0  0
  6  7  1  0  0  0
  6 15  1  0  0  0
  6 74  1  0  0  0
  7  8  1  0  0  0
  7 10  1  0  0  0
  7 14  1  0  0  0
  8  9  1  0  0  0
 10 11  1  0  0  0
 10 13  1  0  0  0
 11 12  1  0  0  0
 15 16  1  0  0  0
 15 57  1  0  0  0
 15 73  1  0  0  0
 16 17  1  0  0  0
 16 63  1  0  0  0
 16 69  1  0  0  0
 17 18  1  0  0  0
 17 56  1  0  0  0
 17 62  1  0  0  0
 18 19  1  0  0  0
 18 21  1  0  0  0
 18 44  1  0  0  0
 19 20  1  0  0  0
 21 22  1  0  0  0
 21 54  1  0  0  0
 21 55  1  0  0  0
 22 23  1  0  0  0
 22 38  1  0  0  0
 22 50  1  0  0  0
 23 24  1  0  0  0
 23 43  1  0  0  0
 23 49  1  0  0  0
 24 25  1  0  0  0
 24 27  1  0  0  0
 24 37  1  0  0  0
 25 26  1  0  0  0
 27 28  1  0  0  0
 27 32  1  0  0  0
 27 36  1  0  0  0
 28 29  1  0  0  0
 28 30  1  0  0  0
 28 31  1  0  0  0
 32 33  1  0  0  0
 32 34  1  0  0  0
 32 35  1  0  0  0
 37 38  1  0  0  0
 37 41  1  0  0  0
 37 42  1  0  0  0
 38 39  1  0  0  0
 38 40  1  0  0  0
 43 44  1  0  0  0
 43 47  1  0  0  0
 43 48  1  0  0  0
 44 45  1  0  0  0
 44 46  1  0  0  0
 50 51  1  0  0  0
 50 52  1  0  0  0
 50 53  1  0  0  0
 56 57  1  0  0  0
 56 60  1  0  0  0
 56 61  1  0  0  0
 57 58  1  0  0  0
 57 59  1  0  0  0
 63 64  1  0  0  0
 63 67  1  0  0  0
 63 68  1  0  0  0
 64 65  1  0  0  0
 64 66  1  0  0  0
 69 70  1  0  0  0
 69 71  1  0  0  0
 69 72  1  0  0  0
 74 75  1  0  0  0
 74 76  1  0  0  0
 74 77  1  0  0  0
 79 80  1  0  0  0
 79 81  1  0  0  0
 79 82  1  0  0  0
 83 84  1  0  0  0
 83 85  1  0  0  0
 83 86  1  0  0  0
M  END
> <Tumorigenic>
none

> <Score>
34.729206

> <Active/Decoy>
active

> <InChI>
InChI=1S/C30H50O6/c1-17(2)30(35)15-14-26(5)16-29(34,13-10-18(26)30)20-9-8-19-27(20,6)12-11-21-28(19,7)24(33)22(31)23(32)25(3,4)36-21/h17-22,24,31,33-35H,8-16H2,1-7H3/t18-,19+,20+,21+,22-,24+,26-,27+,28-,29-,30-/m0/s1

> <Matching Features>
H:14924486185440016873||HBA:14924321692640012300|HBA:14924486112070016868

> <Mol. Index>
169

> <Pharmacophore Match>
Model -1

> <# Confs.>
13

> <Source Database>
Pharm-Screening-input-NANPDB_After_DataWarror.ldb

> <Pharmacophore-Fit Score>
34.73

> <formula>
C30H50O6

> <Mutagenic>
none

> <Reproductive Effective>
none

> <Irritant>
none

$$$$
ent-7alpha,18-diacetoxykaur-16-en-3-one
XX    ILIB03122402123D

 63 66  0  0  1  0              1 V2000
   -3.3926    1.6947    1.9843 O   0  0  0  0  0
   -2.4358    1.0994    1.4663 C   0  0  0  0  0
   -1.9085    1.4677    0.0753 C   0  0  2  0  0
   -2.7338    0.7555   -0.9766 C   0  0  0  0  0
   -4.0972    1.1407   -0.8413 O   0  0  0  0  0
   -4.8390    1.1245   -1.9710 C   0  0  0  0  0
   -4.4536    0.8043   -3.0873 O   0  0  0  0  0
   -6.2400    1.5526   -1.6567 C   0  0  0  0  0
   -6.7101    0.8182   -0.9977 H   0  0  0  0  0
   -6.8170    1.6165   -2.5821 H   0  0  0  0  0
   -6.2317    2.5406   -1.1902 H   0  0  0  0  0
   -2.6298   -0.3403   -0.8350 H   0  0  0  0  0
   -2.3561    0.9939   -1.9719 H   0  0  0  0  0
   -0.3556    1.1745    0.0082 C   0  0  1  0  0
    0.0868   -0.2826    0.4599 C   0  0  2  0  0
    0.4592   -1.1406   -0.8077 C   0  0  1  0  0
    1.5928   -0.5155   -1.7208 C   0  0  2  0  0
    1.6243    1.0299   -1.6311 C   0  0  1  0  0
    2.1359    1.5954   -2.8468 O   0  0  0  0  0
    3.4729    1.7834   -2.9081 C   0  0  0  0  0
    4.2835    1.5197   -2.0301 O   0  0  0  0  0
    3.8372    2.3659   -4.2410 C   0  0  0  0  0
    3.6167    1.6433   -5.0309 H   0  0  0  0  0
    4.9068    2.5910   -4.2591 H   0  0  0  0  0
    3.2879    3.2961   -4.4033 H   0  0  0  0  0
    0.2387    1.5999   -1.3614 C   0  0  0  0  0
    0.2892    2.6947   -1.4083 H   0  0  0  0  0
   -0.4091    1.3096   -2.1940 H   0  0  0  0  0
    2.2896    1.3404   -0.8168 H   0  0  0  0  0
    1.4307   -1.0835   -3.1671 C   0  0  0  0  0
    2.1079   -2.4303   -3.0842 C   0  0  0  0  0
    2.0559   -3.3737   -4.0284 C   0  0  0  0  0
    1.4937   -3.2184   -4.9430 H   0  0  0  0  0
    2.5718   -4.3205   -3.9021 H   0  0  0  0  0
    2.8588   -2.5376   -1.7797 C   0  0  1  0  0
    2.9903   -1.0735   -1.3872 C   0  0  0  0  0
    3.7663   -0.5832   -1.9915 H   0  0  0  0  0
    3.2765   -0.9510   -0.3395 H   0  0  0  0  0
    2.0375   -3.2376   -0.7009 C   0  0  0  0  0
    0.6229   -2.6709   -0.5667 C   0  0  0  0  0
    0.2122   -2.9968    0.3911 H   0  0  0  0  0
    0.0005   -3.1811   -1.3159 H   0  0  0  0  0
    2.5532   -3.1450    0.2632 H   0  0  0  0  0
    1.9738   -4.3122   -0.9117 H   0  0  0  0  0
    3.8413   -3.0067   -1.8968 H   0  0  0  0  0
    1.9621   -0.4839   -3.9116 H   0  0  0  0  0
    0.3818   -1.1613   -3.4698 H   0  0  0  0  0
   -0.4597   -1.0812   -1.4115 H   0  0  0  0  0
   -1.0447   -0.9662    1.2817 C   0  0  0  0  0
   -1.7735   -0.0164    2.2148 C   0  0  0  0  0
   -2.5493   -0.5726    2.7533 H   0  0  0  0  0
   -1.0982    0.4217    2.9551 H   0  0  0  0  0
   -0.6356   -1.7773    1.8974 H   0  0  0  0  0
   -1.7698   -1.4444    0.6153 H   0  0  0  0  0
    1.3027   -0.1844    1.4218 C   0  0  0  0  0
    2.1340    0.3863    1.0100 H   0  0  0  0  0
    1.6801   -1.1782    1.6861 H   0  0  0  0  0
    1.0344    0.3176    2.3572 H   0  0  0  0  0
    0.1001    1.8545    0.7452 H   0  0  0  0  0
   -2.1327    3.0044   -0.1019 C   0  0  0  0  0
   -1.5358    3.5769    0.6172 H   0  0  0  0  0
   -3.1789    3.2873    0.0594 H   0  0  0  0  0
   -1.8680    3.3397   -1.1095 H   0  0  0  0  0
  1  2  2  0  0  0
  2  3  1  0  0  0
  2 50  1  0  0  0
  3  4  1  0  0  0
  3 14  1  0  0  0
  3 60  1  0  0  0
  4  5  1  0  0  0
  4 12  1  0  0  0
  4 13  1  0  0  0
  5  6  1  0  0  0
  6  7  2  0  0  0
  6  8  1  0  0  0
  8  9  1  0  0  0
  8 10  1  0  0  0
  8 11  1  0  0  0
 14 15  1  0  0  0
 14 26  1  0  0  0
 14 59  1  0  0  0
 15 16  1  0  0  0
 15 49  1  0  0  0
 15 55  1  0  0  0
 16 17  1  0  0  0
 16 40  1  0  0  0
 16 48  1  0  0  0
 17 18  1  0  0  0
 17 30  1  0  0  0
 17 36  1  0  0  0
 18 19  1  0  0  0
 18 26  1  0  0  0
 18 29  1  0  0  0
 19 20  1  0  0  0
 20 21  2  0  0  0
 20 22  1  0  0  0
 22 23  1  0  0  0
 22 24  1  0  0  0
 22 25  1  0  0  0
 26 27  1  0  0  0
 26 28  1  0  0  0
 30 31  1  0  0  0
 30 46  1  0  0  0
 30 47  1  0  0  0
 31 32  2  0  0  0
 31 35  1  0  0  0
 32 33  1  0  0  0
 32 34  1  0  0  0
 35 36  1  0  0  0
 35 39  1  0  0  0
 35 45  1  0  0  0
 36 37  1  0  0  0
 36 38  1  0  0  0
 39 40  1  0  0  0
 39 43  1  0  0  0
 39 44  1  0  0  0
 40 41  1  0  0  0
 40 42  1  0  0  0
 49 50  1  0  0  0
 49 53  1  0  0  0
 49 54  1  0  0  0
 50 51  1  0  0  0
 50 52  1  0  0  0
 55 56  1  0  0  0
 55 57  1  0  0  0
 55 58  1  0  0  0
 60 61  1  0  0  0
 60 62  1  0  0  0
 60 63  1  0  0  0
M  END
> <Tumorigenic>
none

> <Score>
34.721718

> <Active/Decoy>
active

> <InChI>
InChI=1S/C24H34O5/c1-14-11-24-12-17(14)6-7-18(24)22(4)9-8-20(27)23(5,13-28-15(2)25)19(22)10-21(24)29-16(3)26/h17-19,21H,1,6-13H2,2-5H3/t17-,18+,19-,21+,22+,23-,24+/m1/s1

> <Matching Features>
H:14924486185440016873||HBA:14924321692640012300|HBA:14924486112070016868

> <Mol. Index>
599

> <Pharmacophore Match>
Model -1

> <# Confs.>
25

> <Source Database>
Pharm-Screening-input-NANPDB_After_DataWarror.ldb

> <Pharmacophore-Fit Score>
34.72

> <formula>
C24H34O5

> <Mutagenic>
none

> <Reproductive Effective>
none

> <Irritant>
none

$$$$
totaradiol
XX    ILIB03122402123D

 52 54  0  0  1  0              1 V2000
   -5.4509    0.8678   -3.5869 O   0  0  0  0  0
   -4.1645    0.9965   -3.1311 C   0  0  0  0  0
   -3.7813    0.3463   -1.9464 C   0  0  0  0  0
   -2.4016    0.4369   -1.5512 C   0  0  0  0  0
   -1.4989    1.2726   -2.2560 C   0  0  0  0  0
   -0.0467    1.5401   -1.7648 C   0  0  1  0  0
    0.4216    0.6065   -0.5740 C   0  0  2  0  0
    1.9726    0.2677   -0.5148 C   0  0  0  0  0
    2.7920    1.4155   -1.1419 C   0  0  1  0  0
    4.1953    1.1452   -1.0818 O   0  0  0  0  0
    4.6587    1.9081   -1.4672 H   0  0  0  0  0
    2.4135    1.6912   -2.5934 C   0  0  0  0  0
    0.9528    1.4056   -2.9419 C   0  0  0  0  0
    0.6963    2.0678   -3.7764 H   0  0  0  0  0
    0.8737    0.3925   -3.3560 H   0  0  0  0  0
    3.0579    1.1237   -3.2773 H   0  0  0  0  0
    2.6386    2.7439   -2.8093 H   0  0  0  0  0
    2.6491    2.3225   -0.5461 H   0  0  0  0  0
    2.3447   -1.0750   -1.1952 C   0  0  0  0  0
    1.9041   -1.9315   -0.6725 H   0  0  0  0  0
    3.4290   -1.2419   -1.1851 H   0  0  0  0  0
    2.0198   -1.1202   -2.2375 H   0  0  0  0  0
    2.3881    0.1266    0.9731 C   0  0  0  0  0
    1.8128   -0.6563    1.4784 H   0  0  0  0  0
    2.2246    1.0627    1.5187 H   0  0  0  0  0
    3.4479   -0.1326    1.0744 H   0  0  0  0  0
   -0.4288   -0.6679   -0.4893 C   0  0  0  0  0
   -1.9016   -0.3312   -0.3554 C   0  0  0  0  0
   -2.4223   -1.2902   -0.2658 H   0  0  0  0  0
   -2.0923    0.2492    0.5544 H   0  0  0  0  0
   -0.2820   -1.2912   -1.3802 H   0  0  0  0  0
   -0.1352   -1.2675    0.3793 H   0  0  0  0  0
    0.1948    1.1655    0.3464 H   0  0  0  0  0
   -0.0677    3.0136   -1.2623 C   0  0  0  0  0
   -0.2663    3.7195   -2.0764 H   0  0  0  0  0
    0.8697    3.3244   -0.8001 H   0  0  0  0  0
   -0.8536    3.1590   -0.5098 H   0  0  0  0  0
   -1.9737    1.9432   -3.4013 C   0  0  0  0  0
   -3.2808    1.7939   -3.8475 C   0  0  0  0  0
   -3.6001    2.3157   -4.7451 H   0  0  0  0  0
   -1.3319    2.6151   -3.9648 H   0  0  0  0  0
   -4.7739   -0.4617   -1.1609 C   0  0  0  0  0
   -5.3780   -1.5863   -1.9794 C   0  0  0  0  0
   -4.5956   -2.2471   -2.3679 H   0  0  0  0  0
   -6.0555   -2.1918   -1.3689 H   0  0  0  0  0
   -5.9483   -1.2064   -2.8342 H   0  0  0  0  0
   -5.8714    0.4461   -0.5786 C   0  0  0  0  0
   -6.4677    0.9134   -1.3701 H   0  0  0  0  0
   -6.5533   -0.1325    0.0549 H   0  0  0  0  0
   -5.4447    1.2475    0.0347 H   0  0  0  0  0
   -4.2509   -0.9126   -0.2978 H   0  0  0  0  0
   -5.5507    1.3860   -4.4042 H   0  0  0  0  0
  1  2  1  0  0  0
  1 52  1  0  0  0
  2  3  2  0  0  0
  2 39  1  0  0  0
  3  4  1  0  0  0
  3 42  1  0  0  0
  4  5  2  0  0  0
  4 28  1  0  0  0
  5  6  1  0  0  0
  5 38  1  0  0  0
  6  7  1  0  0  0
  6 13  1  0  0  0
  6 34  1  0  0  0
  7  8  1  0  0  0
  7 27  1  0  0  0
  7 33  1  0  0  0
  8  9  1  0  0  0
  8 19  1  0  0  0
  8 23  1  0  0  0
  9 10  1  0  0  0
  9 12  1  0  0  0
  9 18  1  0  0  0
 10 11  1  0  0  0
 12 13  1  0  0  0
 12 16  1  0  0  0
 12 17  1  0  0  0
 13 14  1  0  0  0
 13 15  1  0  0  0
 19 20  1  0  0  0
 19 21  1  0  0  0
 19 22  1  0  0  0
 23 24  1  0  0  0
 23 25  1  0  0  0
 23 26  1  0  0  0
 27 28  1  0  0  0
 27 31  1  0  0  0
 27 32  1  0  0  0
 28 29  1  0  0  0
 28 30  1  0  0  0
 34 35  1  0  0  0
 34 36  1  0  0  0
 34 37  1  0  0  0
 38 39  2  0  0  0
 38 41  1  0  0  0
 39 40  1  0  0  0
 42 43  1  0  0  0
 42 47  1  0  0  0
 42 51  1  0  0  0
 43 44  1  0  0  0
 43 45  1  0  0  0
 43 46  1  0  0  0
 47 48  1  0  0  0
 47 49  1  0  0  0
 47 50  1  0  0  0
M  END
> <Tumorigenic>
none

> <Score>
34.71444

> <Active/Decoy>
active

> <InChI>
InChI=1S/C20H30O2/c1-12(2)18-13-6-9-16-19(3,4)17(22)10-11-20(16,5)14(13)7-8-15(18)21/h7-8,12,16-17,21-22H,6,9-11H2,1-5H3/t16-,17-,20-/m0/s1

> <Matching Features>
H:14924486185440016873||HBA:14924321692640012300|HBA:14924486112070016868

> <Mol. Index>
1016

> <Pharmacophore Match>
Model -1

> <# Confs.>
7

> <Source Database>
Pharm-Screening-input-NANPDB_After_DataWarror.ldb

> <Pharmacophore-Fit Score>
34.71

> <formula>
C20H30O2

> <Mutagenic>
none

> <Reproductive Effective>
none

> <Irritant>
none

$$$$
thymoquinol 2-O-beta-glucopyranoside
XX    ILIB03122402123D

 47 48  0  0  1  0              1 V2000
   -2.1062    3.0607   -3.5644 O   0  0  0  0  0
   -2.0427    1.7783   -2.9461 C   0  0  1  0  0
   -1.5040    1.8188   -1.6292 O   0  0  0  0  0
   -0.1565    1.6572   -1.5152 C   0  0  0  0  0
    0.3213    1.0464   -0.3234 C   0  0  0  0  0
    1.7189    0.8305   -0.1442 C   0  0  0  0  0
    2.5886    1.2537   -1.1721 C   0  0  0  0  0
    3.9527    1.1275   -1.1166 O   0  0  0  0  0
    4.2270    0.7968   -0.2486 H   0  0  0  0  0
    2.1056    1.8447   -2.3383 C   0  0  0  0  0
    0.7406    2.0413   -2.5108 C   0  0  0  0  0
    0.4122    2.5047   -3.4363 H   0  0  0  0  0
    2.7908    2.1587   -3.1206 H   0  0  0  0  0
    2.2424    0.1742    1.1111 C   0  0  0  0  0
    3.0001   -1.1168    0.7924 C   0  0  0  0  0
    3.9025   -0.9256    0.2010 H   0  0  0  0  0
    2.3713   -1.8110    0.2233 H   0  0  0  0  0
    3.3068   -1.6217    1.7148 H   0  0  0  0  0
    3.1221    1.1297    1.9209 C   0  0  0  0  0
    2.5735    2.0436    2.1742 H   0  0  0  0  0
    4.0215    1.4238    1.3709 H   0  0  0  0  0
    3.4415    0.6596    2.8582 H   0  0  0  0  0
    1.3867   -0.0954    1.7438 H   0  0  0  0  0
   -0.6605    0.6288    0.7487 C   0  0  0  0  0
   -1.6923    0.9105    0.5224 H   0  0  0  0  0
   -0.4108    1.1120    1.6988 H   0  0  0  0  0
   -0.6449   -0.4592    0.8676 H   0  0  0  0  0
   -3.4198    1.0819   -2.8759 C   0  0  2  0  0
   -3.2124   -0.3253   -3.0072 O   0  0  0  0  0
   -4.0876   -0.7493   -3.0045 H   0  0  0  0  0
   -4.3316    1.5774   -3.9865 C   0  0  1  0  0
   -5.6077    0.9494   -3.8526 O   0  0  0  0  0
   -6.1749    1.2905   -4.5642 H   0  0  0  0  0
   -4.5158    3.0948   -3.9072 C   0  0  2  0  0
   -4.7648    3.5412   -5.2461 O   0  0  0  0  0
   -4.9650    4.4911   -5.2040 H   0  0  0  0  0
   -3.2800    3.8295   -3.3555 C   0  0  1  0  0
   -3.4234    4.2425   -1.9017 C   0  0  0  0  0
   -4.6073    5.0047   -1.7294 O   0  0  0  0  0
   -4.6571    5.2458   -0.7890 H   0  0  0  0  0
   -2.5626    4.8378   -1.5759 H   0  0  0  0  0
   -3.4731    3.3584   -1.2575 H   0  0  0  0  0
   -3.1406    4.7517   -3.9338 H   0  0  0  0  0
   -5.4164    3.3521   -3.3367 H   0  0  0  0  0
   -3.9379    1.2663   -4.9612 H   0  0  0  0  0
   -3.8916    1.2235   -1.8967 H   0  0  0  0  0
   -1.3722    1.1595   -3.5507 H   0  0  0  0  0
  1  2  1  0  0  0
  1 37  1  0  0  0
  2  3  1  0  0  0
  2 28  1  0  0  0
  2 47  1  0  0  0
  3  4  1  0  0  0
  4  5  2  0  0  0
  4 11  1  0  0  0
  5  6  1  0  0  0
  5 24  1  0  0  0
  6  7  2  0  0  0
  6 14  1  0  0  0
  7  8  1  0  0  0
  7 10  1  0  0  0
  8  9  1  0  0  0
 10 11  2  0  0  0
 10 13  1  0  0  0
 11 12  1  0  0  0
 14 15  1  0  0  0
 14 19  1  0  0  0
 14 23  1  0  0  0
 15 16  1  0  0  0
 15 17  1  0  0  0
 15 18  1  0  0  0
 19 20  1  0  0  0
 19 21  1  0  0  0
 19 22  1  0  0  0
 24 25  1  0  0  0
 24 26  1  0  0  0
 24 27  1  0  0  0
 28 29  1  0  0  0
 28 31  1  0  0  0
 28 46  1  0  0  0
 29 30  1  0  0  0
 31 32  1  0  0  0
 31 34  1  0  0  0
 31 45  1  0  0  0
 32 33  1  0  0  0
 34 35  1  0  0  0
 34 37  1  0  0  0
 34 44  1  0  0  0
 35 36  1  0  0  0
 37 38  1  0  0  0
 37 43  1  0  0  0
 38 39  1  0  0  0
 38 41  1  0  0  0
 38 42  1  0  0  0
 39 40  1  0  0  0
M  END
> <Tumorigenic>
none

> <Score>
34.703735

> <Active/Decoy>
active

> <InChI>
InChI=1S/C16H24O7/c1-7(2)12-8(3)10(5-4-9(12)18)22-16-15(21)14(20)13(19)11(6-17)23-16/h4-5,7,11,13-21H,6H2,1-3H3/t11-,13-,14+,15-,16-/m1/s1

> <Matching Features>
H:14924486185440016873||HBA:14924321692640012300|HBA:14924486112070016868

> <Mol. Index>
1375

> <Pharmacophore Match>
Model -1

> <# Confs.>
25

> <Source Database>
Pharm-Screening-input-NANPDB_After_DataWarror.ldb

> <Pharmacophore-Fit Score>
34.7

> <formula>
C16H24O7

> <Mutagenic>
none

> <Reproductive Effective>
none

> <Irritant>
none

$$$$
3-alpha-hydroxycativic acid
XX    ILIB03122402123D

 57 58  0  0  1  0              1 V2000
   -2.4420   -0.4161   -3.3351 O   0  0  0  0  0
   -2.9711    0.6629   -3.1045 C   0  0  0  0  0
   -4.2939    0.9006   -3.2853 O   0  0  0  0  0
   -4.5849    1.8124   -3.0675 H   0  0  0  0  0
   -2.2334    1.8683   -2.5960 C   0  0  0  0  0
   -2.2144    1.8937   -1.0764 C   0  0  2  0  0
   -1.5466    0.6508   -0.4725 C   0  0  0  0  0
   -0.0767    0.4674   -0.8993 C   0  0  0  0  0
    0.6033   -0.7686   -0.3032 C   0  0  1  0  0
    2.1315   -0.9590   -0.7301 C   0  0  2  0  0
    2.9937    0.1310    0.0267 C   0  0  2  0  0
    4.4849    0.3129   -0.4543 C   0  0  0  0  0
    4.5310    0.4013   -2.0069 C   0  0  2  0  0
    3.9489    1.6340   -2.4406 O   0  0  0  0  0
    4.0314    1.6742   -3.4083 H   0  0  0  0  0
    3.7909   -0.7479   -2.6919 C   0  0  0  0  0
    2.3257   -0.8092   -2.2540 C   0  0  0  0  0
    1.8245   -1.6331   -2.7756 H   0  0  0  0  0
    1.8607    0.1104   -2.6194 H   0  0  0  0  0
    4.2965   -1.7005   -2.5066 H   0  0  0  0  0
    3.8103   -0.5945   -3.7781 H   0  0  0  0  0
    5.5738    0.4136   -2.3480 H   0  0  0  0  0
    5.4500   -0.7968    0.0151 C   0  0  0  0  0
    5.2001   -1.7836   -0.3707 H   0  0  0  0  0
    6.4709   -0.5863   -0.3266 H   0  0  0  0  0
    5.4997   -0.8674    1.1064 H   0  0  0  0  0
    5.0462    1.6366    0.1342 C   0  0  0  0  0
    4.3823    2.4853   -0.0660 H   0  0  0  0  0
    6.0257    1.8726   -0.2981 H   0  0  0  0  0
    5.1782    1.5720    1.2194 H   0  0  0  0  0
    2.8435    0.0114    1.5604 C   0  0  0  0  0
    1.4782   -0.3943    2.0308 C   0  0  0  0  0
    0.4651   -0.7601    1.2267 C   0  0  0  0  0
   -0.8232   -1.2626    1.8199 C   0  0  0  0  0
   -1.6156   -0.5149    1.7403 H   0  0  0  0  0
   -1.1483   -2.1778    1.3145 H   0  0  0  0  0
   -0.7133   -1.5077    2.8823 H   0  0  0  0  0
    1.3437   -0.4272    3.1094 H   0  0  0  0  0
    3.0884    0.9717    2.0275 H   0  0  0  0  0
    3.5452   -0.7232    1.9639 H   0  0  0  0  0
    2.5161    1.0895   -0.2274 H   0  0  0  0  0
    2.5214   -2.4132   -0.3413 C   0  0  0  0  0
    2.5917   -2.5729    0.7375 H   0  0  0  0  0
    1.7717   -3.1179   -0.7212 H   0  0  0  0  0
    3.4670   -2.7347   -0.7769 H   0  0  0  0  0
    0.0624   -1.6374   -0.6844 H   0  0  0  0  0
    0.4881    1.3660   -0.5931 H   0  0  0  0  0
   -0.0126    0.4160   -1.9876 H   0  0  0  0  0
   -2.0987   -0.2533   -0.7789 H   0  0  0  0  0
   -1.5934    0.6936    0.6160 H   0  0  0  0  0
   -3.6313    2.1202   -0.5195 C   0  0  0  0  0
   -4.3102    1.2954   -0.7552 H   0  0  0  0  0
   -3.6073    2.2343    0.5687 H   0  0  0  0  0
   -4.0626    3.0377   -0.9353 H   0  0  0  0  0
   -1.6188    2.7577   -0.7913 H   0  0  0  0  0
   -1.2178    1.8366   -3.0075 H   0  0  0  0  0
   -2.7125    2.7630   -3.0120 H   0  0  0  0  0
  1  2  2  0  0  0
  2  3  1  0  0  0
  2  5  1  0  0  0
  3  4  1  0  0  0
  5  6  1  0  0  0
  5 56  1  0  0  0
  5 57  1  0  0  0
  6  7  1  0  0  0
  6 51  1  0  0  0
  6 55  1  0  0  0
  7  8  1  0  0  0
  7 49  1  0  0  0
  7 50  1  0  0  0
  8  9  1  0  0  0
  8 47  1  0  0  0
  8 48  1  0  0  0
  9 10  1  0  0  0
  9 33  1  0  0  0
  9 46  1  0  0  0
 10 11  1  0  0  0
 10 17  1  0  0  0
 10 42  1  0  0  0
 11 12  1  0  0  0
 11 31  1  0  0  0
 11 41  1  0  0  0
 12 13  1  0  0  0
 12 23  1  0  0  0
 12 27  1  0  0  0
 13 14  1  0  0  0
 13 16  1  0  0  0
 13 22  1  0  0  0
 14 15  1  0  0  0
 16 17  1  0  0  0
 16 20  1  0  0  0
 16 21  1  0  0  0
 17 18  1  0  0  0
 17 19  1  0  0  0
 23 24  1  0  0  0
 23 25  1  0  0  0
 23 26  1  0  0  0
 27 28  1  0  0  0
 27 29  1  0  0  0
 27 30  1  0  0  0
 31 32  1  0  0  0
 31 39  1  0  0  0
 31 40  1  0  0  0
 32 33  2  0  0  0
 32 38  1  0  0  0
 33 34  1  0  0  0
 34 35  1  0  0  0
 34 36  1  0  0  0
 34 37  1  0  0  0
 42 43  1  0  0  0
 42 44  1  0  0  0
 42 45  1  0  0  0
 51 52  1  0  0  0
 51 53  1  0  0  0
 51 54  1  0  0  0
M  END
> <Tumorigenic>
none

> <Score>
34.704628

> <Active/Decoy>
active

> <InChI>
InChI=1S/C20H34O3/c1-13(12-18(22)23)6-8-15-14(2)7-9-16-19(3,4)17(21)10-11-20(15,16)5/h7,13,15-17,21H,6,8-12H2,1-5H3,(H,22,23)/t13-,15-,16-,17+,20+/m0/s1

> <Matching Features>
H:14924486185440016873||HBA:14924321692640012300|HBA:14924486112070016868

> <Mol. Index>
470

> <Pharmacophore Match>
Model -1

> <# Confs.>
25

> <Source Database>
Pharm-Screening-input-NANPDB_After_DataWarror.ldb

> <Pharmacophore-Fit Score>
34.7

> <formula>
C20H34O3

> <Mutagenic>
none

> <Reproductive Effective>
none

> <Irritant>
none

$$$$
feselol
XX    ILIB03122402123D

 58 61  0  0  1  0              1 V2000
    5.7773    1.5027   -1.4857 O   0  0  0  0  0
    5.0889    1.1133   -0.5488 C   0  0  0  0  0
    3.7417    0.7986   -0.7026 O   0  0  0  0  0
    2.9556    0.3562    0.3817 C   0  0  0  0  0
    3.5165    0.2148    1.6475 C   0  0  0  0  0
    2.7061   -0.2257    2.6939 C   0  0  0  0  0
    1.3658   -0.5435    2.4532 C   0  0  0  0  0
    0.8078   -0.3817    1.1785 C   0  0  0  0  0
    1.6197    0.0440    0.1244 C   0  0  0  0  0
    1.2372    0.1685   -0.8837 H   0  0  0  0  0
   -0.5041   -0.7184    1.0732 O   0  0  0  0  0
   -1.0944   -0.5697   -0.2114 C   0  0  0  0  0
   -2.5676   -0.9868   -0.1377 C   0  0  1  0  0
   -3.3534   -0.8847   -1.5231 C   0  0  1  0  0
   -4.8160   -1.4042   -1.2592 C   0  0  1  0  0
   -5.9248   -1.0540   -2.3282 C   0  0  0  0  0
   -5.8176    0.4535   -2.7032 C   0  0  2  0  0
   -6.6710    0.7918   -3.7970 O   0  0  0  0  0
   -7.5884    0.7312   -3.4890 H   0  0  0  0  0
   -4.4043    0.8765   -3.0850 C   0  0  0  0  0
   -3.4215    0.6131   -1.9540 C   0  0  0  0  0
   -2.4338    0.9694   -2.2686 H   0  0  0  0  0
   -3.7116    1.2330   -1.0956 H   0  0  0  0  0
   -4.0843    0.3825   -4.0086 H   0  0  0  0  0
   -4.4020    1.9478   -3.3218 H   0  0  0  0  0
   -6.1356    1.0673   -1.8500 H   0  0  0  0  0
   -5.9015   -1.9346   -3.5966 C   0  0  0  0  0
   -5.0556   -1.7188   -4.2503 H   0  0  0  0  0
   -5.8876   -3.0013   -3.3559 H   0  0  0  0  0
   -6.7993   -1.7688   -4.2052 H   0  0  0  0  0
   -7.3204   -1.2835   -1.6852 C   0  0  0  0  0
   -8.1328   -0.9828   -2.3565 H   0  0  0  0  0
   -7.4914   -2.3382   -1.4454 H   0  0  0  0  0
   -7.4322   -0.7073   -0.7596 H   0  0  0  0  0
   -4.7700   -2.8930   -0.8534 C   0  0  0  0  0
   -3.7552   -3.1698    0.2149 C   0  0  0  0  0
   -2.7799   -2.3178    0.5765 C   0  0  0  0  0
   -1.9086   -2.6409    1.7602 C   0  0  0  0  0
   -1.9147   -1.8097    2.4725 H   0  0  0  0  0
   -0.8784   -2.8331    1.4490 H   0  0  0  0  0
   -2.2570   -3.5296    2.2986 H   0  0  0  0  0
   -3.8688   -4.1139    0.7410 H   0  0  0  0  0
   -5.7450   -3.2005   -0.4630 H   0  0  0  0  0
   -4.5506   -3.5392   -1.7087 H   0  0  0  0  0
   -5.1455   -0.8626   -0.3560 H   0  0  0  0  0
   -2.6194   -1.6768   -2.6198 C   0  0  0  0  0
   -3.1839   -1.7423   -3.5465 H   0  0  0  0  0
   -1.6721   -1.1995   -2.8916 H   0  0  0  0  0
   -2.3910   -2.7006   -2.3085 H   0  0  0  0  0
   -3.0281   -0.2329    0.5330 H   0  0  0  0  0
   -1.0145    0.4554   -0.5781 H   0  0  0  0  0
   -0.5902   -1.2286   -0.9403 H   0  0  0  0  0
    0.7484   -0.8856    3.2808 H   0  0  0  0  0
    3.1059   -0.3400    3.6986 H   0  0  0  0  0
    4.9243    0.5221    1.8306 C   0  0  0  0  0
    5.6607    0.9412    0.7994 C   0  0  0  0  0
    6.7111    1.1799    0.9301 H   0  0  0  0  0
    5.3622    0.4128    2.8162 H   0  0  0  0  0
  1  2  2  0  0  0
  2  3  1  0  0  0
  2 56  1  0  0  0
  3  4  1  0  0  0
  4  5  2  0  0  0
  4  9  1  0  0  0
  5  6  1  0  0  0
  5 55  1  0  0  0
  6  7  2  0  0  0
  6 54  1  0  0  0
  7  8  1  0  0  0
  7 53  1  0  0  0
  8  9  2  0  0  0
  8 11  1  0  0  0
  9 10  1  0  0  0
 11 12  1  0  0  0
 12 13  1  0  0  0
 12 51  1  0  0  0
 12 52  1  0  0  0
 13 14  1  0  0  0
 13 37  1  0  0  0
 13 50  1  0  0  0
 14 15  1  0  0  0
 14 21  1  0  0  0
 14 46  1  0  0  0
 15 16  1  0  0  0
 15 35  1  0  0  0
 15 45  1  0  0  0
 16 17  1  0  0  0
 16 27  1  0  0  0
 16 31  1  0  0  0
 17 18  1  0  0  0
 17 20  1  0  0  0
 17 26  1  0  0  0
 18 19  1  0  0  0
 20 21  1  0  0  0
 20 24  1  0  0  0
 20 25  1  0  0  0
 21 22  1  0  0  0
 21 23  1  0  0  0
 27 28  1  0  0  0
 27 29  1  0  0  0
 27 30  1  0  0  0
 31 32  1  0  0  0
 31 33  1  0  0  0
 31 34  1  0  0  0
 35 36  1  0  0  0
 35 43  1  0  0  0
 35 44  1  0  0  0
 36 37  2  0  0  0
 36 42  1  0  0  0
 37 38  1  0  0  0
 38 39  1  0  0  0
 38 40  1  0  0  0
 38 41  1  0  0  0
 46 47  1  0  0  0
 46 48  1  0  0  0
 46 49  1  0  0  0
 55 56  2  0  0  0
 55 58  1  0  0  0
 56 57  1  0  0  0
M  END
> <Tumorigenic>
none

> <Score>
34.687737

> <Active/Decoy>
active

> <InChI>
InChI=1S/C24H30O4/c1-15-5-9-20-23(2,3)21(25)11-12-24(20,4)18(15)14-27-17-8-6-16-7-10-22(26)28-19(16)13-17/h5-8,10,13,18,20-21,25H,9,11-12,14H2,1-4H3/t18-,20-,21-,24+/m1/s1

> <Matching Features>
H:14924486185440016873||HBA:14924321692640012300|HBA:14924486112070016868

> <Mol. Index>
893

> <Pharmacophore Match>
Model -1

> <# Confs.>
25

> <Source Database>
Pharm-Screening-input-NANPDB_After_DataWarror.ldb

> <Pharmacophore-Fit Score>
34.69

> <formula>
C24H30O4

> <Mutagenic>
none

> <Reproductive Effective>
none

> <Irritant>
none

$$$$
ferulagol A
XX    ILIB03122402123D

 45 46  0  0  1  0              1 V2000
   -5.8497    0.8108   -3.5718 O   0  0  0  0  0
   -4.8912    1.2897   -4.1674 C   0  0  0  0  0
   -3.6252    1.3580   -3.5928 O   0  0  0  0  0
   -2.5275    1.9163   -4.2822 C   0  0  0  0  0
   -2.6862    2.4187   -5.5696 C   0  0  0  0  0
   -1.5790    2.9649   -6.2172 C   0  0  0  0  0
   -0.3391    2.9984   -5.5721 C   0  0  0  0  0
   -0.1952    2.4962   -4.2653 C   0  0  0  0  0
   -1.2978    1.9413   -3.6235 C   0  0  0  0  0
   -1.2325    1.5334   -2.6198 H   0  0  0  0  0
    1.0748    2.5734   -3.7684 O   0  0  0  0  0
    1.4478    1.5570   -2.8226 C   0  0  0  0  0
    2.8799    1.8220   -2.3532 C   0  0  0  0  0
    3.3995    0.8051   -1.3488 C   0  0  1  0  0
    4.7403    1.1876   -1.0099 O   0  0  0  0  0
    4.7175    2.1015   -0.6594 H   0  0  0  0  0
    2.5824    0.8440   -0.0697 C   0  0  0  0  0
    2.4417   -0.2113    0.7459 C   0  0  0  0  0
    1.7012   -0.2095    1.9836 C   0  0  0  0  0
    1.5232   -1.2310    2.8431 C   0  0  0  0  0
    0.7102   -1.0375    4.0969 C   0  0  0  0  0
   -0.1446   -1.7201    4.1015 H   0  0  0  0  0
    0.3212   -0.0181    4.1858 H   0  0  0  0  0
    1.3220   -1.2370    4.9825 H   0  0  0  0  0
    2.0954   -2.6143    2.6851 C   0  0  0  0  0
    2.8148   -2.6934    1.8656 H   0  0  0  0  0
    1.2923   -3.3355    2.5037 H   0  0  0  0  0
    2.6235   -2.9100    3.5985 H   0  0  0  0  0
    1.2812    0.7631    2.2339 H   0  0  0  0  0
    2.9465   -1.1449    0.5106 H   0  0  0  0  0
    2.1105    1.7919    0.1787 H   0  0  0  0  0
    3.5001   -0.5809   -1.9840 C   0  0  0  0  0
    2.5242   -0.9806   -2.2791 H   0  0  0  0  0
    3.9753   -1.2958   -1.3016 H   0  0  0  0  0
    4.1379   -0.5470   -2.8751 H   0  0  0  0  0
    2.9203    2.8325   -1.9065 H   0  0  0  0  0
    3.5389    1.8443   -3.2250 H   0  0  0  0  0
    0.7627    1.5625   -1.9607 H   0  0  0  0  0
    1.3959    0.5766   -3.2926 H   0  0  0  0  0
    0.5149    3.4276   -6.0915 H   0  0  0  0  0
   -1.6633    3.3677   -7.2236 H   0  0  0  0  0
   -3.9974    2.3550   -6.1934 C   0  0  0  0  0
   -5.0294    1.8230   -5.5347 C   0  0  0  0  0
   -6.0084    1.7694   -5.9937 H   0  0  0  0  0
   -4.1213    2.7430   -7.1980 H   0  0  0  0  0
  1  2  2  0  0  0
  2  3  1  0  0  0
  2 43  1  0  0  0
  3  4  1  0  0  0
  4  5  2  0  0  0
  4  9  1  0  0  0
  5  6  1  0  0  0
  5 42  1  0  0  0
  6  7  2  0  0  0
  6 41  1  0  0  0
  7  8  1  0  0  0
  7 40  1  0  0  0
  8  9  2  0  0  0
  8 11  1  0  0  0
  9 10  1  0  0  0
 11 12  1  0  0  0
 12 13  1  0  0  0
 12 38  1  0  0  0
 12 39  1  0  0  0
 13 14  1  0  0  0
 13 36  1  0  0  0
 13 37  1  0  0  0
 14 15  1  0  0  0
 14 17  1  0  0  0
 14 32  1  0  0  0
 15 16  1  0  0  0
 17 18  2  0  0  0
 17 31  1  0  0  0
 18 19  1  0  0  0
 18 30  1  0  0  0
 19 20  2  0  0  0
 19 29  1  0  0  0
 20 21  1  0  0  0
 20 25  1  0  0  0
 21 22  1  0  0  0
 21 23  1  0  0  0
 21 24  1  0  0  0
 25 26  1  0  0  0
 25 27  1  0  0  0
 25 28  1  0  0  0
 32 33  1  0  0  0
 32 34  1  0  0  0
 32 35  1  0  0  0
 42 43  2  0  0  0
 42 45  1  0  0  0
 43 44  1  0  0  0
M  END
> <Tumorigenic>
none

> <Score>
34.679478

> <Active/Decoy>
active

> <InChI>
InChI=1S/C19H22O4/c1-14(2)5-4-10-19(3,21)11-12-22-16-8-6-15-7-9-18(20)23-17(15)13-16/h4-10,13,21H,11-12H2,1-3H3/b10-4+/t19-/m0/s1

> <Matching Features>
H:14924486185440016873||HBA:14924321692640012300|HBA:14924486112070016868

> <Mol. Index>
907

> <Pharmacophore Match>
Model -1

> <# Confs.>
25

> <Source Database>
Pharm-Screening-input-NANPDB_After_DataWarror.ldb

> <Pharmacophore-Fit Score>
34.68

> <formula>
C19H22O4

> <Mutagenic>
none

> <Reproductive Effective>
none

> <Irritant>
none

$$$$
2beta-hydroxy-13-oxo-alpha-cyperene
XX    ILIB03122402123D

 38 39  0  0  1  0              1 V2000
    3.7817    1.4543   -2.0275 O   0  0  0  0  0
    2.8923    0.7571   -1.5367 C   0  0  0  0  0
    1.5151    1.3224   -1.3463 C   0  0  0  0  0
    0.6602    0.7064   -0.5026 C   0  0  0  0  0
    1.0221   -0.5719    0.2613 C   0  0  2  0  0
    1.9726   -1.4233   -0.6117 C   0  0  0  0  0
    3.1914   -0.6646   -1.1107 C   0  0  2  0  0
    4.1953   -0.6260   -0.1122 O   0  0  0  0  0
    5.0028   -0.2664   -0.5184 H   0  0  0  0  0
    3.6015   -1.1993   -1.9764 H   0  0  0  0  0
    2.2945   -2.3115   -0.0531 H   0  0  0  0  0
    1.4207   -1.7857   -1.4895 H   0  0  0  0  0
   -0.2484   -1.4201    0.5767 C   0  0  0  0  0
   -1.3139   -1.3007   -0.5130 C   0  0  0  0  0
   -1.8103    0.1625   -0.6381 C   0  0  2  0  0
   -2.3646    0.4271   -2.0125 C   0  0  0  0  0
   -3.8079    0.6669   -2.1901 C   0  0  0  0  0
   -4.3374    0.8899   -3.2718 O   0  0  0  0  0
   -4.3985    0.6390   -1.2594 H   0  0  0  0  0
   -1.6314    0.4735   -3.1352 C   0  0  0  0  0
   -0.5583    0.3149   -3.1091 H   0  0  0  0  0
   -2.0783    0.6763   -4.1032 H   0  0  0  0  0
   -0.7424    1.1851   -0.2253 C   0  0  0  0  0
   -0.9698    2.1682   -0.6561 H   0  0  0  0  0
   -0.8301    1.3519    0.8616 H   0  0  0  0  0
   -2.6415    0.2714    0.0658 H   0  0  0  0  0
   -0.9085   -1.6777   -1.4590 H   0  0  0  0  0
   -2.1618   -1.9518   -0.2675 H   0  0  0  0  0
    0.0209   -2.4746    0.7127 H   0  0  0  0  0
   -0.6968   -1.1024    1.5274 H   0  0  0  0  0
    1.6885   -0.2042    1.6037 C   0  0  0  0  0
    0.9866    0.3140    2.2678 H   0  0  0  0  0
    2.0350   -1.1027    2.1284 H   0  0  0  0  0
    2.5457    0.4637    1.4764 H   0  0  0  0  0
    1.2452    2.5748   -2.1330 C   0  0  0  0  0
    0.1851    2.8180   -2.2189 H   0  0  0  0  0
    1.7548    3.4265   -1.6724 H   0  0  0  0  0
    1.6132    2.4674   -3.1592 H   0  0  0  0  0
  1  2  2  0  0  0
  2  3  1  0  0  0
  2  7  1  0  0  0
  3  4  2  0  0  0
  3 35  1  0  0  0
  4  5  1  0  0  0
  4 23  1  0  0  0
  5  6  1  0  0  0
  5 13  1  0  0  0
  5 31  1  0  0  0
  6  7  1  0  0  0
  6 11  1  0  0  0
  6 12  1  0  0  0
  7  8  1  0  0  0
  7 10  1  0  0  0
  8  9  1  0  0  0
 13 14  1  0  0  0
 13 29  1  0  0  0
 13 30  1  0  0  0
 14 15  1  0  0  0
 14 27  1  0  0  0
 14 28  1  0  0  0
 15 16  1  0  0  0
 15 23  1  0  0  0
 15 26  1  0  0  0
 16 17  1  0  0  0
 16 20  2  0  0  0
 17 18  2  0  0  0
 17 19  1  0  0  0
 20 21  1  0  0  0
 20 22  1  0  0  0
 23 24  1  0  0  0
 23 25  1  0  0  0
 31 32  1  0  0  0
 31 33  1  0  0  0
 31 34  1  0  0  0
 35 36  1  0  0  0
 35 37  1  0  0  0
 35 38  1  0  0  0
M  END
> <Tumorigenic>
none

> <Score>
34.67734

> <Active/Decoy>
active

> <InChI>
InChI=1S/C15H20O3/c1-9(8-16)11-4-5-15(3)7-13(17)14(18)10(2)12(15)6-11/h8,11,13,17H,1,4-7H2,2-3H3/t11-,13-,15-/m0/s1

> <Matching Features>
H:14924486185440016873||HBA:14924321692640012300|HBA:14924486112070016868

> <Mol. Index>
418

> <Pharmacophore Match>
Model -1

> <# Confs.>
17

> <Source Database>
Pharm-Screening-input-NANPDB_After_DataWarror.ldb

> <Pharmacophore-Fit Score>
34.68

> <formula>
C15H20O3

> <Mutagenic>
none

> <Reproductive Effective>
none

> <Irritant>
none

$$$$
2beta-hydroxy-6-p-benzoyloxybenzoyljaeschkeanadiol
XX    ILIB03122402123D

 60 62  0  0  1  0              1 V2000
    0.1523   -1.1626   -3.1726 O   0  0  0  0  0
   -0.3709   -0.0972   -2.9139 C   0  0  0  0  0
    0.2206    0.9945   -2.3888 O   0  0  0  0  0
    1.6198    0.8979   -2.1007 C   0  0  2  0  0
    1.9280    1.8205   -0.8922 C   0  0  1  0  0
    3.2605    1.5376   -0.1077 C   0  0  2  0  0
    4.2935    1.1280   -1.0038 O   0  0  0  0  0
    5.1173    1.0360   -0.4945 H   0  0  0  0  0
    3.1461    0.4621    0.9887 C   0  0  0  0  0
    2.0661    0.7745    2.0296 C   0  0  0  0  0
    1.0707    0.8237    1.5768 H   0  0  0  0  0
    2.0414   -0.0032    2.7993 H   0  0  0  0  0
    2.2607    1.7266    2.5312 H   0  0  0  0  0
    2.8931   -0.9199    0.3811 C   0  0  0  0  0
    3.6714   -1.1729   -0.3470 H   0  0  0  0  0
    1.9231   -0.9697   -0.1234 H   0  0  0  0  0
    2.9028   -1.6906    1.1601 H   0  0  0  0  0
    4.1083    0.4168    1.5158 H   0  0  0  0  0
    3.6767    2.9008    0.4906 C   0  0  0  0  0
    2.5027    3.8372    0.2373 C   0  0  1  0  0
    2.9360    5.1847    0.2470 O   0  0  0  0  0
    2.1588    5.7457    0.0867 H   0  0  0  0  0
    1.9150    3.3684   -1.1197 C   0  0  1  0  0
    2.7982    3.8578   -2.2973 C   0  0  0  0  0
    2.2733    3.5669   -3.6686 C   0  0  0  0  0
    2.0896    2.3390   -4.1768 C   0  0  0  0  0
    2.4000    1.0850   -3.4035 C   0  0  0  0  0
    2.1609    0.2284   -4.0495 H   0  0  0  0  0
    3.4798    1.0198   -3.2446 H   0  0  0  0  0
    1.5753    2.1488   -5.5755 C   0  0  0  0  0
    0.6300    1.5876   -5.5605 H   0  0  0  0  0
    2.3064    1.5983   -6.1759 H   0  0  0  0  0
    1.3804    3.1007   -6.0792 H   0  0  0  0  0
    2.0410    4.4341   -4.2821 H   0  0  0  0  0
    3.8207    3.4694   -2.2254 H   0  0  0  0  0
    2.9051    4.9482   -2.2350 H   0  0  0  0  0
    0.4850    3.9270   -1.2643 C   0  0  0  0  0
   -0.0176    3.5565   -2.1618 H   0  0  0  0  0
    0.4948    5.0212   -1.3215 H   0  0  0  0  0
   -0.1387    3.6499   -0.4069 H   0  0  0  0  0
    1.7674    3.7153    1.0433 H   0  0  0  0  0
    3.8932    2.8534    1.5637 H   0  0  0  0  0
    4.5911    3.2887    0.0230 H   0  0  0  0  0
    1.1067    1.6401   -0.1810 H   0  0  0  0  0
    1.8077   -0.1334   -1.7642 H   0  0  0  0  0
   -1.8136    0.1694   -3.1294 C   0  0  0  0  0
   -2.4035    1.4002   -2.8273 C   0  0  0  0  0
   -3.7603    1.6075   -3.0889 C   0  0  0  0  0
   -4.5465    0.5888   -3.6344 C   0  0  0  0  0
   -5.8623    0.9060   -3.8244 O   0  0  0  0  0
   -6.6656   -0.1303   -4.3829 C   0  0  0  0  0
   -6.3119   -0.4081   -5.3822 H   0  0  0  0  0
   -6.6995   -1.0040   -3.7218 H   0  0  0  0  0
   -7.6847    0.2549   -4.4822 H   0  0  0  0  0
   -3.9565   -0.6419   -3.9365 C   0  0  0  0  0
   -2.5941   -0.8452   -3.6947 C   0  0  0  0  0
   -2.1635   -1.8119   -3.9449 H   0  0  0  0  0
   -4.5248   -1.4614   -4.3629 H   0  0  0  0  0
   -4.2031    2.5709   -2.8486 H   0  0  0  0  0
   -1.8297    2.2213   -2.4066 H   0  0  0  0  0
  1  2  2  0  0  0
  2  3  1  0  0  0
  2 46  1  0  0  0
  3  4  1  0  0  0
  4  5  1  0  0  0
  4 27  1  0  0  0
  4 45  1  0  0  0
  5  6  1  0  0  0
  5 23  1  0  0  0
  5 44  1  0  0  0
  6  7  1  0  0  0
  6  9  1  0  0  0
  6 19  1  0  0  0
  7  8  1  0  0  0
  9 10  1  0  0  0
  9 14  1  0  0  0
  9 18  1  0  0  0
 10 11  1  0  0  0
 10 12  1  0  0  0
 10 13  1  0  0  0
 14 15  1  0  0  0
 14 16  1  0  0  0
 14 17  1  0  0  0
 19 20  1  0  0  0
 19 42  1  0  0  0
 19 43  1  0  0  0
 20 21  1  0  0  0
 20 23  1  0  0  0
 20 41  1  0  0  0
 21 22  1  0  0  0
 23 24  1  0  0  0
 23 37  1  0  0  0
 24 25  1  0  0  0
 24 35  1  0  0  0
 24 36  1  0  0  0
 25 26  2  0  0  0
 25 34  1  0  0  0
 26 27  1  0  0  0
 26 30  1  0  0  0
 27 28  1  0  0  0
 27 29  1  0  0  0
 30 31  1  0  0  0
 30 32  1  0  0  0
 30 33  1  0  0  0
 37 38  1  0  0  0
 37 39  1  0  0  0
 37 40  1  0  0  0
 46 47  2  0  0  0
 46 56  1  0  0  0
 47 48  1  0  0  0
 47 60  1  0  0  0
 48 49  2  0  0  0
 48 59  1  0  0  0
 49 50  1  0  0  0
 49 55  1  0  0  0
 50 51  1  0  0  0
 51 52  1  0  0  0
 51 53  1  0  0  0
 51 54  1  0  0  0
 55 56  2  0  0  0
 55 58  1  0  0  0
 56 57  1  0  0  0
M  END
> <Tumorigenic>
none

> <Score>
34.670544

> <Active/Decoy>
active

> <InChI>
InChI=1S/C23H32O5/c1-14(2)23(26)13-19(24)22(4)11-10-15(3)12-18(20(22)23)28-21(25)16-6-8-17(27-5)9-7-16/h6-10,14,18-20,24,26H,11-13H2,1-5H3/t18-,19+,20+,22+,23+/m0/s1

> <Matching Features>
H:14924486185440016873||HBA:14924321692640012300|HBA:14924486112070016868

> <Mol. Index>
880

> <Pharmacophore Match>
Model -1

> <# Confs.>
25

> <Source Database>
Pharm-Screening-input-NANPDB_After_DataWarror.ldb

> <Pharmacophore-Fit Score>
34.67

> <formula>
C23H32O5

> <Mutagenic>
none

> <Reproductive Effective>
none

> <Irritant>
none

$$$$
3beta,13-diacetoxy-1beta,4apha-dihydroxyeudesm-7(11)-en-6alpha,l2-olide
XX    ILIB03122402123D

 42 44  0  0  1  0              1 V2000
   -3.6152    1.5668   -1.0195 O   0  0  0  0  0
   -2.7153    0.8932   -1.4938 C   0  0  0  0  0
   -1.4031    0.9719   -1.1315 O   0  0  0  0  0
   -0.6339    0.0723   -1.9320 C   0  0  2  0  0
   -1.6558   -0.6242   -2.7568 C   0  0  0  0  0
   -2.8797   -0.1429   -2.5313 C   0  0  0  0  0
   -4.2375   -0.4525   -3.0723 C   0  0  0  0  0
   -5.0637    0.7043   -3.0305 O   0  0  0  0  0
   -4.6453    1.3851   -3.5845 H   0  0  0  0  0
   -4.7139   -1.2338   -2.4723 H   0  0  0  0  0
   -4.1995   -0.8072   -4.1090 H   0  0  0  0  0
   -1.1815   -1.7509   -3.6120 C   0  0  0  0  0
   -0.3917   -2.7492   -2.7583 C   0  0  0  0  0
    0.7161   -2.0942   -1.9024 C   0  0  1  0  0
    1.9239   -1.6477   -2.7534 C   0  0  2  0  0
    2.4942   -2.7674   -3.4267 O   0  0  0  0  0
    2.7654   -3.4147   -2.7532 H   0  0  0  0  0
    3.0031   -0.9976   -1.8873 C   0  0  0  0  0
    2.4640    0.1937   -1.0662 C   0  0  2  0  0
    3.5060    0.6800   -0.2166 O   0  0  0  0  0
    4.3482    1.6166   -0.7347 C   0  0  0  0  0
    5.0584    1.5018   -1.7240 O   0  0  0  0  0
    4.2514    2.8674    0.0856 C   0  0  0  0  0
    5.1021    3.5154   -0.1419 H   0  0  0  0  0
    3.3239    3.3927   -0.1525 H   0  0  0  0  0
    4.2921    2.6221    1.1504 H   0  0  0  0  0
    1.2500   -0.2344   -0.2690 C   0  0  0  0  0
    0.1426   -0.9270   -1.0547 C   0  0  1  0  0
   -0.5683   -1.3644   -0.3374 H   0  0  0  0  0
    1.1378   -0.0665    1.0590 C   0  0  0  0  0
    1.9113    0.4108    1.6491 H   0  0  0  0  0
    0.2532   -0.3962    1.5942 H   0  0  0  0  0
    2.1603    0.9925   -1.7555 H   0  0  0  0  0
    3.4496   -1.7441   -1.2154 H   0  0  0  0  0
    3.8382   -0.6741   -2.5223 H   0  0  0  0  0
    1.6119   -0.9386   -3.5274 H   0  0  0  0  0
    1.0724   -2.8751   -1.2147 H   0  0  0  0  0
    0.0285   -3.5285   -3.4044 H   0  0  0  0  0
   -1.0913   -3.2602   -2.0822 H   0  0  0  0  0
   -0.5497   -1.3562   -4.4152 H   0  0  0  0  0
   -2.0053   -2.2828   -4.0930 H   0  0  0  0  0
    0.0270    0.6673   -2.5717 H   0  0  0  0  0
  1  2  2  0  0  0
  2  3  1  0  0  0
  2  6  1  0  0  0
  3  4  1  0  0  0
  4  5  1  0  0  0
  4 28  1  0  0  0
  4 42  1  0  0  0
  5  6  2  0  0  0
  5 12  1  0  0  0
  6  7  1  0  0  0
  7  8  1  0  0  0
  7 10  1  0  0  0
  7 11  1  0  0  0
  8  9  1  0  0  0
 12 13  1  0  0  0
 12 40  1  0  0  0
 12 41  1  0  0  0
 13 14  1  0  0  0
 13 38  1  0  0  0
 13 39  1  0  0  0
 14 15  1  0  0  0
 14 28  1  0  0  0
 14 37  1  0  0  0
 15 16  1  0  0  0
 15 18  1  0  0  0
 15 36  1  0  0  0
 16 17  1  0  0  0
 18 19  1  0  0  0
 18 34  1  0  0  0
 18 35  1  0  0  0
 19 20  1  0  0  0
 19 27  1  0  0  0
 19 33  1  0  0  0
 20 21  1  0  0  0
 21 22  2  0  0  0
 21 23  1  0  0  0
 23 24  1  0  0  0
 23 25  1  0  0  0
 23 26  1  0  0  0
 27 28  1  0  0  0
 27 30  2  0  0  0
 28 29  1  0  0  0
 30 31  1  0  0  0
 30 32  1  0  0  0
M  END
> <Tumorigenic>
none

> <Score>
34.67075

> <Active/Decoy>
active

> <InChI>
InChI=1S/C16H20O6/c1-7-13(21-8(2)18)5-12(19)10-4-3-9-11(6-17)16(20)22-15(9)14(7)10/h10,12-15,17,19H,1,3-6H2,2H3/t10-,12+,13-,14+,15+/m0/s1

> <Matching Features>
H:14924486185440016873||HBA:14924321692640012300|HBA:14924486112070016868

> <Mol. Index>
401

> <Pharmacophore Match>
Model -1

> <# Confs.>
11

> <Source Database>
Pharm-Screening-input-NANPDB_After_DataWarror.ldb

> <Pharmacophore-Fit Score>
34.67

> <formula>
C16H20O6

> <Mutagenic>
none

> <Reproductive Effective>
none

> <Irritant>
none

$$$$
thymoquinol 5-O-beta-glucopyranoside
XX    ILIB03122402123D

 47 48  0  0  1  0              1 V2000
   -3.0274    0.9066   -3.3294 O   0  0  0  0  0
   -1.7027    0.3597   -3.1390 C   0  0  1  0  0
   -1.2438    0.6000   -1.8069 O   0  0  0  0  0
    0.0996    0.7558   -1.6458 C   0  0  0  0  0
    0.6445    0.3333   -0.3953 C   0  0  0  0  0
    2.0397    0.4983   -0.1674 C   0  0  0  0  0
    2.8438    1.0000   -1.2089 C   0  0  0  0  0
    4.1960    1.1210   -1.0184 O   0  0  0  0  0
    4.5967    1.4939   -1.8225 H   0  0  0  0  0
    2.3006    1.3769   -2.4335 C   0  0  0  0  0
    0.9330    1.2583   -2.6468 C   0  0  0  0  0
    0.5468    1.5719   -3.6118 H   0  0  0  0  0
    2.9324    1.7662   -3.2275 H   0  0  0  0  0
    2.7026    0.1065    1.1304 C   0  0  0  0  0
    2.0753    0.3336    1.9955 H   0  0  0  0  0
    2.9421   -0.9617    1.1210 H   0  0  0  0  0
    3.6317    0.6619    1.2946 H   0  0  0  0  0
   -0.2832   -0.2407    0.6483 C   0  0  0  0  0
   -0.9804   -1.4963    0.1209 C   0  0  0  0  0
   -1.6083   -1.2765   -0.7497 H   0  0  0  0  0
   -1.6195   -1.9380    0.8925 H   0  0  0  0  0
   -0.2493   -2.2544   -0.1811 H   0  0  0  0  0
   -1.3147    0.7800    1.1388 C   0  0  0  0  0
   -2.0045    1.0805    0.3427 H   0  0  0  0  0
   -0.8231    1.6833    1.5167 H   0  0  0  0  0
   -1.9126    0.3592    1.9542 H   0  0  0  0  0
    0.3177   -0.5305    1.5202 H   0  0  0  0  0
   -1.7525   -1.1530   -3.3265 C   0  0  2  0  0
   -0.4138   -1.6620   -3.2858 O   0  0  0  0  0
   -0.0172   -1.3670   -2.4486 H   0  0  0  0  0
   -2.3618   -1.5334   -4.6737 C   0  0  1  0  0
   -2.5895   -2.9432   -4.7092 O   0  0  0  0  0
   -3.2171   -3.1633   -3.9994 H   0  0  0  0  0
   -3.6830   -0.8030   -4.9111 C   0  0  2  0  0
   -4.0972   -1.0128   -6.2574 O   0  0  0  0  0
   -4.1678   -1.9735   -6.3931 H   0  0  0  0  0
   -3.5238    0.6972   -4.6560 C   0  0  1  0  0
   -4.8496    1.4295   -4.7673 C   0  0  0  0  0
   -5.7652    0.9121   -3.8079 O   0  0  0  0  0
   -5.3572    1.0143   -2.9311 H   0  0  0  0  0
   -4.7375    2.5025   -4.5782 H   0  0  0  0  0
   -5.2938    1.2896   -5.7580 H   0  0  0  0  0
   -2.8207    1.1452   -5.3714 H   0  0  0  0  0
   -4.4593   -1.2188   -4.2568 H   0  0  0  0  0
   -1.6590   -1.3240   -5.4886 H   0  0  0  0  0
   -2.2981   -1.6338   -2.5118 H   0  0  0  0  0
   -1.0114    0.8184   -3.8511 H   0  0  0  0  0
  1  2  1  0  0  0
  1 37  1  0  0  0
  2  3  1  0  0  0
  2 28  1  0  0  0
  2 47  1  0  0  0
  3  4  1  0  0  0
  4  5  2  0  0  0
  4 11  1  0  0  0
  5  6  1  0  0  0
  5 18  1  0  0  0
  6  7  2  0  0  0
  6 14  1  0  0  0
  7  8  1  0  0  0
  7 10  1  0  0  0
  8  9  1  0  0  0
 10 11  2  0  0  0
 10 13  1  0  0  0
 11 12  1  0  0  0
 14 15  1  0  0  0
 14 16  1  0  0  0
 14 17  1  0  0  0
 18 19  1  0  0  0
 18 23  1  0  0  0
 18 27  1  0  0  0
 19 20  1  0  0  0
 19 21  1  0  0  0
 19 22  1  0  0  0
 23 24  1  0  0  0
 23 25  1  0  0  0
 23 26  1  0  0  0
 28 29  1  0  0  0
 28 31  1  0  0  0
 28 46  1  0  0  0
 29 30  1  0  0  0
 31 32  1  0  0  0
 31 34  1  0  0  0
 31 45  1  0  0  0
 32 33  1  0  0  0
 34 35  1  0  0  0
 34 37  1  0  0  0
 34 44  1  0  0  0
 35 36  1  0  0  0
 37 38  1  0  0  0
 37 43  1  0  0  0
 38 39  1  0  0  0
 38 41  1  0  0  0
 38 42  1  0  0  0
 39 40  1  0  0  0
M  END
> <Tumorigenic>
none

> <Score>
34.660164

> <Active/Decoy>
active

> <InChI>
InChI=1S/C16H24O7/c1-7(2)12-8(3)9(18)4-5-10(12)22-16-15(21)14(20)13(19)11(6-17)23-16/h4-5,7,11,13-21H,6H2,1-3H3/t11-,13-,14+,15-,16-/m1/s1

> <Matching Features>
H:14924486185440016873||HBA:14924321692640012300|HBA:14924486112070016868

> <Mol. Index>
1376

> <Pharmacophore Match>
Model -1

> <# Confs.>
20

> <Source Database>
Pharm-Screening-input-NANPDB_After_DataWarror.ldb

> <Pharmacophore-Fit Score>
34.66

> <formula>
C16H24O7

> <Mutagenic>
none

> <Reproductive Effective>
none

> <Irritant>
none

$$$$
matricarin
XX    ILIB03122402123D

 51 53  0  0  1  0              1 V2000
   -4.6249    0.7491   -3.0004 O   0  0  0  0  0
   -3.6932    0.4103   -2.2873 C   0  0  0  0  0
   -2.4932    1.0569   -2.2303 O   0  0  0  0  0
   -1.6317    0.4314   -1.2593 C   0  0  2  0  0
   -0.1888    0.4991   -1.7769 C   0  0  1  0  0
    0.4840    1.8545   -1.5109 C   0  0  1  0  0
    1.9538    1.6008   -1.8461 C   0  0  1  0  0
    2.7842    2.4889   -1.0975 O   0  0  0  0  0
    4.1234    2.3648   -1.2867 C   0  0  0  0  0
    4.6831    1.5709   -2.0300 O   0  0  0  0  0
    4.8407    3.3661   -0.4335 C   0  0  0  0  0
    4.5985    4.3745   -0.7781 H   0  0  0  0  0
    5.9199    3.2136   -0.5220 H   0  0  0  0  0
    4.5622    3.2386    0.6153 H   0  0  0  0  0
    2.1977    0.1236   -1.4570 C   0  0  0  0  0
    0.8149   -0.4996   -1.1625 C   0  0  1  0  0
    0.5264   -0.8361    0.2970 C   0  0  0  0  0
    1.0740   -0.1802    1.3350 C   0  0  0  0  0
    1.7459    0.6591    1.1948 H   0  0  0  0  0
    0.8474   -0.4400    2.3625 H   0  0  0  0  0
   -0.4323   -2.0054    0.4818 C   0  0  1  0  0
   -0.3191   -2.5403    1.8095 O   0  0  0  0  0
    0.5859   -3.5288    1.9866 C   0  0  0  0  0
    1.3137   -4.0086    1.1284 O   0  0  0  0  0
    0.5839   -3.9596    3.4219 C   0  0  0  0  0
    0.9335   -3.1388    4.0531 H   0  0  0  0  0
    1.2580   -4.8107    3.5460 H   0  0  0  0  0
   -0.4209   -4.2721    3.7150 H   0  0  0  0  0
   -1.8998   -1.6099    0.2565 C   0  0  0  0  0
   -2.1958   -0.9770   -1.1085 C   0  0  1  0  0
   -3.6899   -0.7418   -1.3191 C   0  0  2  0  0
   -4.4099   -1.9592   -1.8774 C   0  0  0  0  0
   -5.4713   -1.7420   -2.0344 H   0  0  0  0  0
   -4.3374   -2.8087   -1.1923 H   0  0  0  0  0
   -3.9937   -2.2612   -2.8451 H   0  0  0  0  0
   -4.1735   -0.4008   -0.3973 H   0  0  0  0  0
   -1.8127   -1.6224   -1.9095 H   0  0  0  0  0
   -2.2215   -0.9355    1.0630 H   0  0  0  0  0
   -2.5192   -2.5067    0.3776 H   0  0  0  0  0
   -0.1535   -2.7975   -0.2270 H   0  0  0  0  0
    0.7704   -1.4401   -1.7277 H   0  0  0  0  0
    2.9168    0.0070   -0.6406 H   0  0  0  0  0
    2.6400   -0.3921   -2.3197 H   0  0  0  0  0
    2.1397    1.7231   -2.9226 H   0  0  0  0  0
   -0.0766    3.0133   -2.3471 C   0  0  0  0  0
   -0.1007    2.7651   -3.4127 H   0  0  0  0  0
   -1.0943    3.2632   -2.0326 H   0  0  0  0  0
    0.5346    3.9133   -2.2230 H   0  0  0  0  0
    0.3900    2.1427   -0.4620 H   0  0  0  0  0
   -0.2045    0.3325   -2.8646 H   0  0  0  0  0
   -1.7352    1.0024   -0.3272 H   0  0  0  0  0
  1  2  2  0  0  0
  2  3  1  0  0  0
  2 31  1  0  0  0
  3  4  1  0  0  0
  4  5  1  0  0  0
  4 30  1  0  0  0
  4 51  1  0  0  0
  5  6  1  0  0  0
  5 16  1  0  0  0
  5 50  1  0  0  0
  6  7  1  0  0  0
  6 45  1  0  0  0
  6 49  1  0  0  0
  7  8  1  0  0  0
  7 15  1  0  0  0
  7 44  1  0  0  0
  8  9  1  0  0  0
  9 10  2  0  0  0
  9 11  1  0  0  0
 11 12  1  0  0  0
 11 13  1  0  0  0
 11 14  1  0  0  0
 15 16  1  0  0  0
 15 42  1  0  0  0
 15 43  1  0  0  0
 16 17  1  0  0  0
 16 41  1  0  0  0
 17 18  2  0  0  0
 17 21  1  0  0  0
 18 19  1  0  0  0
 18 20  1  0  0  0
 21 22  1  0  0  0
 21 29  1  0  0  0
 21 40  1  0  0  0
 22 23  1  0  0  0
 23 24  2  0  0  0
 23 25  1  0  0  0
 25 26  1  0  0  0
 25 27  1  0  0  0
 25 28  1  0  0  0
 29 30  1  0  0  0
 29 38  1  0  0  0
 29 39  1  0  0  0
 30 31  1  0  0  0
 30 37  1  0  0  0
 31 32  1  0  0  0
 31 36  1  0  0  0
 32 33  1  0  0  0
 32 34  1  0  0  0
 32 35  1  0  0  0
 45 46  1  0  0  0
 45 47  1  0  0  0
 45 48  1  0  0  0
M  END
> <Tumorigenic>
none

> <Score>
34.656895

> <Active/Decoy>
active

> <InChI>
InChI=1S/C19H26O6/c1-8-13-6-16(24-12(5)21)10(3)17(13)18-14(9(2)19(22)25-18)7-15(8)23-11(4)20/h9-10,13-18H,1,6-7H2,2-5H3/t9-,10+,13-,14-,15-,16-,17-,18-/m0/s1

> <Matching Features>
H:14924486185440016873||HBA:14924321692640012300|HBA:14924486112070016868

> <Mol. Index>
311

> <Pharmacophore Match>
Model -1

> <# Confs.>
23

> <Source Database>
Pharm-Screening-input-NANPDB_After_DataWarror.ldb

> <Pharmacophore-Fit Score>
34.66

> <formula>
C19H26O6

> <Mutagenic>
none

> <Reproductive Effective>
none

> <Irritant>
none

$$$$
acetylpectachol B
XX    ILIB03122402123D

 71 74  0  0  1  0              1 V2000
   -5.7401    0.9338   -3.8561 O   0  0  0  0  0
   -4.9820   -0.0000   -3.6190 C   0  0  0  0  0
   -4.1216    0.0062   -2.5259 O   0  0  0  0  0
   -3.2567   -1.0730   -2.2409 C   0  0  0  0  0
   -2.4322   -0.9985   -1.1174 C   0  0  0  0  0
   -2.4144    0.0849   -0.2857 O   0  0  0  0  0
   -3.2993    1.1431   -0.6436 C   0  0  0  0  0
   -3.0416    1.5608   -1.6230 H   0  0  0  0  0
   -4.3432    0.8094   -0.6212 H   0  0  0  0  0
   -3.1870    1.9377    0.1000 H   0  0  0  0  0
   -1.5359   -2.0429   -0.8664 C   0  0  0  0  0
   -0.6873   -1.9462    0.1809 O   0  0  0  0  0
    0.5729   -1.3286   -0.0458 C   0  0  0  0  0
    1.6140   -1.9135    0.8914 C   0  0  1  0  0
    3.0869   -1.3251    0.7308 C   0  0  2  0  0
    3.1023    0.1365    1.2812 C   0  0  2  0  0
    4.3809    1.0061    0.9618 C   0  0  0  0  0
    4.7274    0.8710   -0.5525 C   0  0  1  0  0
    5.9663    1.5418   -0.8365 O   0  0  0  0  0
    6.1000    2.0579   -2.0775 C   0  0  0  0  0
    5.2727    2.0094   -2.9776 O   0  0  0  0  0
    7.4343    2.7340   -2.1936 C   0  0  0  0  0
    7.4761    3.5881   -1.5271 H   0  0  0  0  0
    7.5758    3.0755   -3.2265 H   0  0  0  0  0
    8.2308    2.0165   -1.9664 H   0  0  0  0  0
    4.8443   -0.5845   -1.0071 C   0  0  0  0  0
    3.5414   -1.3361   -0.7591 C   0  0  0  0  0
    2.7956   -0.8520   -1.3947 H   0  0  0  0  0
    3.6364   -2.3661   -1.1229 H   0  0  0  0  0
    5.6985   -1.0758   -0.5296 H   0  0  0  0  0
    5.0714   -0.6130   -2.0808 H   0  0  0  0  0
    3.9247    1.3495   -1.1337 H   0  0  0  0  0
    5.6098    0.6825    1.8402 C   0  0  0  0  0
    5.9942   -0.3234    1.6825 H   0  0  0  0  0
    5.3960    0.7985    2.9064 H   0  0  0  0  0
    6.4391    1.3664    1.6257 H   0  0  0  0  0
    4.0535    2.5003    1.2327 C   0  0  0  0  0
    4.8865    3.1499    0.9432 H   0  0  0  0  0
    3.8618    2.6870    2.2945 H   0  0  0  0  0
    3.1707    2.8222    0.6704 H   0  0  0  0  0
    2.6696    0.1788    2.7659 C   0  0  0  0  0
    1.6002   -0.8041    3.1388 C   0  0  0  0  0
    1.1195   -1.7593    2.3248 C   0  0  0  0  0
    0.1057   -2.7485    2.8309 C   0  0  0  0  0
   -0.8767   -2.5665    2.3893 H   0  0  0  0  0
    0.4161   -3.7708    2.5931 H   0  0  0  0  0
   -0.0119   -2.6929    3.9193 H   0  0  0  0  0
    1.2328   -0.7357    4.1590 H   0  0  0  0  0
    2.3035    1.1821    3.0103 H   0  0  0  0  0
    3.5186   -0.0179    3.4267 H   0  0  0  0  0
    2.2940    0.6478    0.7347 H   0  0  0  0  0
    4.0387   -2.2904    1.5010 C   0  0  0  0  0
    3.9076   -2.2416    2.5852 H   0  0  0  0  0
    3.8580   -3.3306    1.2037 H   0  0  0  0  0
    5.0934   -2.1067    1.2967 H   0  0  0  0  0
    1.6670   -2.9963    0.6730 H   0  0  0  0  0
    0.8844   -1.4880   -1.1011 H   0  0  0  0  0
    0.5165   -0.2417    0.1066 H   0  0  0  0  0
   -1.4651   -3.1553   -1.7225 C   0  0  0  0  0
   -0.5367   -4.1038   -1.4013 O   0  0  0  0  0
   -0.4804   -5.2246   -2.2816 C   0  0  0  0  0
   -1.4280   -5.7745   -2.2802 H   0  0  0  0  0
   -0.2043   -4.9174   -3.2962 H   0  0  0  0  0
    0.2985   -5.8978   -1.9122 H   0  0  0  0  0
   -2.3224   -3.2190   -2.8293 C   0  0  0  0  0
   -3.2187   -2.1751   -3.0923 C   0  0  0  0  0
   -4.1100   -2.2072   -4.2421 C   0  0  0  0  0
   -4.9374   -1.1900   -4.4855 C   0  0  0  0  0
   -5.6054   -1.2110   -5.3396 H   0  0  0  0  0
   -4.0896   -3.0728   -4.8962 H   0  0  0  0  0
   -2.2988   -4.0677   -3.5088 H   0  0  0  0  0
  1  2  2  0  0  0
  2  3  1  0  0  0
  2 68  1  0  0  0
  3  4  1  0  0  0
  4  5  2  0  0  0
  4 66  1  0  0  0
  5  6  1  0  0  0
  5 11  1  0  0  0
  6  7  1  0  0  0
  7  8  1  0  0  0
  7  9  1  0  0  0
  7 10  1  0  0  0
 11 12  1  0  0  0
 11 59  2  0  0  0
 12 13  1  0  0  0
 13 14  1  0  0  0
 13 57  1  0  0  0
 13 58  1  0  0  0
 14 15  1  0  0  0
 14 43  1  0  0  0
 14 56  1  0  0  0
 15 16  1  0  0  0
 15 27  1  0  0  0
 15 52  1  0  0  0
 16 17  1  0  0  0
 16 41  1  0  0  0
 16 51  1  0  0  0
 17 18  1  0  0  0
 17 33  1  0  0  0
 17 37  1  0  0  0
 18 19  1  0  0  0
 18 26  1  0  0  0
 18 32  1  0  0  0
 19 20  1  0  0  0
 20 21  2  0  0  0
 20 22  1  0  0  0
 22 23  1  0  0  0
 22 24  1  0  0  0
 22 25  1  0  0  0
 26 27  1  0  0  0
 26 30  1  0  0  0
 26 31  1  0  0  0
 27 28  1  0  0  0
 27 29  1  0  0  0
 33 34  1  0  0  0
 33 35  1  0  0  0
 33 36  1  0  0  0
 37 38  1  0  0  0
 37 39  1  0  0  0
 37 40  1  0  0  0
 41 42  1  0  0  0
 41 49  1  0  0  0
 41 50  1  0  0  0
 42 43  2  0  0  0
 42 48  1  0  0  0
 43 44  1  0  0  0
 44 45  1  0  0  0
 44 46  1  0  0  0
 44 47  1  0  0  0
 52 53  1  0  0  0
 52 54  1  0  0  0
 52 55  1  0  0  0
 59 60  1  0  0  0
 59 65  1  0  0  0
 60 61  1  0  0  0
 61 62  1  0  0  0
 61 63  1  0  0  0
 61 64  1  0  0  0
 65 66  2  0  0  0
 65 71  1  0  0  0
 66 67  1  0  0  0
 67 68  2  0  0  0
 67 70  1  0  0  0
 68 69  1  0  0  0
M  END
> <Tumorigenic>
none

> <Score>
34.654003

> <Active/Decoy>
active

> <InChI>
InChI=1S/C28H36O7/c1-16-8-10-21-27(3,4)22(34-17(2)29)12-13-28(21,5)19(16)15-33-25-20(31-6)14-18-9-11-23(30)35-24(18)26(25)32-7/h8-9,11,14,19,21-22H,10,12-13,15H2,1-7H3/t19-,21+,22+,28-/m1/s1

> <Matching Features>
H:14924486185440016873||HBA:14924321692640012300|HBA:14924486112070016868

> <Mol. Index>
440

> <Pharmacophore Match>
Model -1

> <# Confs.>
25

> <Source Database>
Pharm-Screening-input-NANPDB_After_DataWarror.ldb

> <Pharmacophore-Fit Score>
34.65

> <formula>
C28H36O7

> <Mutagenic>
none

> <Reproductive Effective>
none

> <Irritant>
none

$$$$
5-O-caffeoyl quinic acid
XX    ILIB03122402123D

 43 44  0  0  1  0              1 V2000
   -1.2272    0.3856    0.9857 O   0  0  0  0  0
   -1.5197   -0.2968    0.0243 C   0  0  0  0  0
   -2.5912   -0.1731   -0.7870 O   0  0  0  0  0
   -3.5217    0.8923   -0.4754 C   0  0  1  0  0
   -4.1694    1.3715   -1.7824 C   0  0  1  0  0
   -3.1532    1.7814   -2.6970 O   0  0  0  0  0
   -2.5838    1.0125   -2.8700 H   0  0  0  0  0
   -5.0333    0.2785   -2.4223 C   0  0  2  0  0
   -5.7058    0.8251   -3.5608 O   0  0  0  0  0
   -5.0278    1.1729   -4.1646 H   0  0  0  0  0
   -6.0902   -0.2372   -1.4555 C   0  0  0  0  0
   -5.5569   -0.6260   -0.0717 C   0  0  1  0  0
   -6.6778   -0.6747    0.8278 O   0  0  0  0  0
   -7.3521   -1.2566    0.4348 H   0  0  0  0  0
   -4.9940   -2.0233    0.0269 C   0  0  0  0  0
   -3.8635   -2.3083    0.3960 O   0  0  0  0  0
   -5.9106   -2.9546   -0.3441 O   0  0  0  0  0
   -5.5534   -3.8659   -0.2788 H   0  0  0  0  0
   -4.5843    0.4138    0.5082 C   0  0  0  0  0
   -5.1591    1.2844    0.8530 H   0  0  0  0  0
   -4.1027    0.0025    1.4047 H   0  0  0  0  0
   -6.8675    0.5320   -1.3387 H   0  0  0  0  0
   -6.6219   -1.0807   -1.9166 H   0  0  0  0  0
   -4.4048   -0.5350   -2.8002 H   0  0  0  0  0
   -4.7849    2.2580   -1.5892 H   0  0  0  0  0
   -2.9494    1.7297   -0.0450 H   0  0  0  0  0
   -0.7291   -1.4462   -0.4736 C   0  0  0  0  0
    0.5962   -1.5968   -0.3683 C   0  0  0  0  0
    1.5791   -0.6476    0.1542 C   0  0  0  0  0
    2.6202   -0.1718   -0.6619 C   0  0  0  0  0
    3.5609    0.7306   -0.1613 C   0  0  0  0  0
    4.5519    1.1598   -1.0003 O   0  0  0  0  0
    5.1193    1.7764   -0.5073 H   0  0  0  0  0
    3.4851    1.1722    1.1544 C   0  0  0  0  0
    4.4190    2.0562    1.6183 O   0  0  0  0  0
    4.2217    2.2529    2.5499 H   0  0  0  0  0
    2.4671    0.7134    1.9819 C   0  0  0  0  0
    1.5218   -0.1900    1.4841 C   0  0  0  0  0
    0.7427   -0.5307    2.1623 H   0  0  0  0  0
    2.3957    1.0453    3.0138 H   0  0  0  0  0
    2.7101   -0.4942   -1.6973 H   0  0  0  0  0
    1.0211   -2.5339   -0.7256 H   0  0  0  0  0
   -1.3009   -2.2631   -0.9198 H   0  0  0  0  0
  1  2  2  0  0  0
  2  3  1  0  0  0
  2 27  1  0  0  0
  3  4  1  0  0  0
  4  5  1  0  0  0
  4 19  1  0  0  0
  4 26  1  0  0  0
  5  6  1  0  0  0
  5  8  1  0  0  0
  5 25  1  0  0  0
  6  7  1  0  0  0
  8  9  1  0  0  0
  8 11  1  0  0  0
  8 24  1  0  0  0
  9 10  1  0  0  0
 11 12  1  0  0  0
 11 22  1  0  0  0
 11 23  1  0  0  0
 12 13  1  0  0  0
 12 15  1  0  0  0
 12 19  1  0  0  0
 13 14  1  0  0  0
 15 16  2  0  0  0
 15 17  1  0  0  0
 17 18  1  0  0  0
 19 20  1  0  0  0
 19 21  1  0  0  0
 27 28  2  0  0  0
 27 43  1  0  0  0
 28 29  1  0  0  0
 28 42  1  0  0  0
 29 30  2  0  0  0
 29 38  1  0  0  0
 30 31  1  0  0  0
 30 41  1  0  0  0
 31 32  1  0  0  0
 31 34  2  0  0  0
 32 33  1  0  0  0
 34 35  1  0  0  0
 34 37  1  0  0  0
 35 36  1  0  0  0
 37 38  2  0  0  0
 37 40  1  0  0  0
 38 39  1  0  0  0
M  END
> <Tumorigenic>
none

> <Score>
34.637436

> <Active/Decoy>
active

> <InChI>
InChI=1S/C16H18O9/c17-9-3-1-8(5-10(9)18)2-4-13(20)25-12-7-16(24,15(22)23)6-11(19)14(12)21/h1-5,11-12,14,17-19,21,24H,6-7H2,(H,22,23)/b4-2+/t11-,12-,14+,16+/m1/s1

> <Matching Features>
H:14924486185440016873||HBA:14924321692640012300|HBA:14924486112070016868

> <Mol. Index>
931

> <Pharmacophore Match>
Model -1

> <# Confs.>
25

> <Source Database>
Pharm-Screening-input-NANPDB_After_DataWarror.ldb

> <Pharmacophore-Fit Score>
34.64

> <formula>
C16H18O9

> <Mutagenic>
none

> <Reproductive Effective>
none

> <Irritant>
none

$$$$
methyl angolensate
XX    ILIB03122402123D

 68 72  0  0  1  0              1 V2000
    3.3420    1.4936   -2.2772 O   0  0  0  0  0
    2.6390    0.6011   -1.8083 C   0  0  0  0  0
    3.1531   -0.3287   -0.9780 O   0  0  0  0  0
    2.3716   -1.1540   -0.0664 C   0  0  2  0  0
    0.9638   -1.5096   -0.6406 C   0  0  2  0  0
    0.2743   -0.2519   -1.2542 C   0  0  1  0  0
   -0.8590   -0.7351   -2.0423 O   0  0  0  0  0
   -2.0499    0.0305   -1.8678 C   0  0  2  0  0
   -2.6193   -0.1890   -0.4376 C   0  0  2  0  0
   -3.7154    0.9432   -0.2268 C   0  0  1  0  0
   -4.7229    1.1562   -1.4648 C   0  0  0  0  0
   -6.0881    0.4413   -1.2995 C   0  0  0  0  0
   -5.9844   -0.6347   -1.1442 H   0  0  0  0  0
   -6.7102    0.5655   -2.1938 H   0  0  0  0  0
   -6.6622    0.8559   -0.4647 H   0  0  0  0  0
   -5.0099    2.6624   -1.6044 C   0  0  0  0  0
   -4.0889    3.2155   -1.8226 H   0  0  0  0  0
   -5.4525    3.0832   -0.6980 H   0  0  0  0  0
   -5.7101    2.8724   -2.4219 H   0  0  0  0  0
   -4.1891    0.7001   -2.8537 C   0  0  0  0  0
   -3.0604   -0.2926   -2.9416 C   0  0  0  0  0
   -3.4459   -1.3132   -2.8927 H   0  0  0  0  0
   -2.5847   -0.1932   -3.9256 H   0  0  0  0  0
   -4.7288    1.0798   -3.8988 O   0  0  0  0  0
   -4.4299    0.7878    1.0931 C   0  0  0  0  0
   -5.2459    1.9956    1.4098 C   0  0  0  0  0
   -4.7696    3.1191    1.5174 O   0  0  0  0  0
   -6.5564    1.6664    1.5853 O   0  0  0  0  0
   -7.4196    2.7569    1.9231 C   0  0  0  0  0
   -7.1238    3.1885    2.8832 H   0  0  0  0  0
   -8.4380    2.3706    2.0088 H   0  0  0  0  0
   -7.3973    3.5154    1.1352 H   0  0  0  0  0
   -3.7036    0.6484    1.9173 H   0  0  0  0  0
   -5.0819   -0.0978    1.1088 H   0  0  0  0  0
   -3.1432    1.8734   -0.1711 H   0  0  0  0  0
   -1.4064   -0.0037    0.5879 C   0  0  2  0  0
   -0.2473    0.6534   -0.1361 C   0  0  0  0  0
    0.1534    1.9001    0.1579 C   0  0  0  0  0
   -0.3200    2.4654    0.9542 H   0  0  0  0  0
    0.9533    2.3950   -0.3782 H   0  0  0  0  0
   -0.8203   -1.2566    1.2772 C   0  0  0  0  0
    0.0143   -2.1958    0.3888 C   0  0  0  0  0
   -0.6812   -2.8450   -0.1523 H   0  0  0  0  0
    0.5814   -2.8841    1.0259 H   0  0  0  0  0
   -0.1849   -0.9112    2.1010 H   0  0  0  0  0
   -1.6078   -1.8324    1.7746 H   0  0  0  0  0
   -1.7333    0.6559    1.3996 H   0  0  0  0  0
   -3.2738   -1.5812   -0.2830 C   0  0  0  0  0
   -2.6242   -2.3813   -0.6404 H   0  0  0  0  0
   -4.1955   -1.6762   -0.8577 H   0  0  0  0  0
   -3.5409   -1.7937    0.7563 H   0  0  0  0  0
   -1.7875    1.0894   -2.0167 H   0  0  0  0  0
    1.2131    0.4247   -2.2541 C   0  0  0  0  0
    1.2453   -0.1456   -3.1907 H   0  0  0  0  0
    0.8140    1.4072   -2.5363 H   0  0  0  0  0
    1.2233   -2.5844   -1.7492 C   0  0  0  0  0
    1.9272   -2.2366   -2.5092 H   0  0  0  0  0
    0.3003   -2.8794   -2.2613 H   0  0  0  0  0
    1.6471   -3.4956   -1.3112 H   0  0  0  0  0
    2.4667   -0.6234    1.3171 C   0  0  0  0  0
    2.6483    0.6935    1.6919 C   0  0  0  0  0
    2.6948    0.8159    3.0425 O   0  0  0  0  0
    2.5457   -0.4331    3.5522 C   0  0  0  0  0
    2.4023   -1.3519    2.5399 C   0  0  0  0  0
    2.2676   -2.4169    2.6637 H   0  0  0  0  0
    2.5618   -0.5042    4.6294 H   0  0  0  0  0
    2.7583    1.6150    1.1388 H   0  0  0  0  0
    2.9427   -2.0923   -0.0291 H   0  0  0  0  0
  1  2  2  0  0  0
  2  3  1  0  0  0
  2 53  1  0  0  0
  3  4  1  0  0  0
  4  5  1  0  0  0
  4 60  1  0  0  0
  4 68  1  0  0  0
  5  6  1  0  0  0
  5 42  1  0  0  0
  5 56  1  0  0  0
  6  7  1  0  0  0
  6 37  1  0  0  0
  6 53  1  0  0  0
  7  8  1  0  0  0
  8  9  1  0  0  0
  8 21  1  0  0  0
  8 52  1  0  0  0
  9 10  1  0  0  0
  9 36  1  0  0  0
  9 48  1  0  0  0
 10 11  1  0  0  0
 10 25  1  0  0  0
 10 35  1  0  0  0
 11 12  1  0  0  0
 11 16  1  0  0  0
 11 20  1  0  0  0
 12 13  1  0  0  0
 12 14  1  0  0  0
 12 15  1  0  0  0
 16 17  1  0  0  0
 16 18  1  0  0  0
 16 19  1  0  0  0
 20 21  1  0  0  0
 20 24  2  0  0  0
 21 22  1  0  0  0
 21 23  1  0  0  0
 25 26  1  0  0  0
 25 33  1  0  0  0
 25 34  1  0  0  0
 26 27  2  0  0  0
 26 28  1  0  0  0
 28 29  1  0  0  0
 29 30  1  0  0  0
 29 31  1  0  0  0
 29 32  1  0  0  0
 36 37  1  0  0  0
 36 41  1  0  0  0
 36 47  1  0  0  0
 37 38  2  0  0  0
 38 39  1  0  0  0
 38 40  1  0  0  0
 41 42  1  0  0  0
 41 45  1  0  0  0
 41 46  1  0  0  0
 42 43  1  0  0  0
 42 44  1  0  0  0
 48 49  1  0  0  0
 48 50  1  0  0  0
 48 51  1  0  0  0
 53 54  1  0  0  0
 53 55  1  0  0  0
 56 57  1  0  0  0
 56 58  1  0  0  0
 56 59  1  0  0  0
 60 61  2  0  0  0
 60 64  1  0  0  0
 61 62  1  0  0  0
 61 67  1  0  0  0
 62 63  1  0  0  0
 63 64  2  0  0  0
 63 66  1  0  0  0
 64 65  1  0  0  0
M  END
> <Tumorigenic>
none

> <Score>
34.63922

> <Active/Decoy>
active

> <InChI>
InChI=1S/C27H34O7/c1-15-17-7-9-25(4)23(16-8-10-32-14-16)33-22(30)13-27(15,25)34-20-12-19(28)24(2,3)18(26(17,20)5)11-21(29)31-6/h8,10,14,17-18,20,23H,1,7,9,11-13H2,2-6H3/t17-,18+,20-,23-,25+,26-,27-/m0/s1

> <Matching Features>
H:14924486185440016873||HBA:14924321692640012300|HBA:14924486112070016868

> <Mol. Index>
619

> <Pharmacophore Match>
Model -1

> <# Confs.>
4

> <Source Database>
Pharm-Screening-input-NANPDB_After_DataWarror.ldb

> <Pharmacophore-Fit Score>
34.64

> <formula>
C27H34O7

> <Mutagenic>
none

> <Reproductive Effective>
none

> <Irritant>
none

$$$$
6-hydroxymethyl-1-methyl-5- vinyl-9,10-dihydrophenanthrene-2-ol
XX    ILIB03122402123D

 38 40  0  0  1  0              1 V2000
    3.8109    1.1261   -1.1607 O   0  0  0  0  0
    2.4511    0.9655   -1.1162 C   0  0  0  0  0
    1.8534    0.4422    0.0369 C   0  0  0  0  0
    0.4417    0.3262    0.0705 C   0  0  0  0  0
   -0.3498    0.6191   -1.0757 C   0  0  0  0  0
   -1.8300    0.4090   -1.0291 C   0  0  0  0  0
   -2.6462    0.1010   -2.1527 C   0  0  0  0  0
   -4.0679    0.0245   -1.9990 C   0  0  0  0  0
   -4.6389    0.1879   -0.7305 C   0  0  0  0  0
   -3.8393    0.3989    0.3831 C   0  0  0  0  0
   -2.4508    0.4781    0.2458 C   0  0  0  0  0
   -1.5992    0.6559    1.4787 C   0  0  0  0  0
   -0.2821   -0.1094    1.3297 C   0  0  0  0  0
    0.3145    0.0862    2.2254 H   0  0  0  0  0
   -0.4604   -1.1910    1.2745 H   0  0  0  0  0
   -1.4130    1.7270    1.6257 H   0  0  0  0  0
   -2.1236    0.2836    2.3664 H   0  0  0  0  0
   -4.3037    0.4892    1.3620 H   0  0  0  0  0
   -5.7159    0.1205   -0.5983 H   0  0  0  0  0
   -4.9891   -0.2718   -3.1390 C   0  0  0  0  0
   -5.3706    0.9452   -3.7622 O   0  0  0  0  0
   -5.9673    0.7168   -4.4947 H   0  0  0  0  0
   -4.4975   -0.9130   -3.8785 H   0  0  0  0  0
   -5.8873   -0.7899   -2.7856 H   0  0  0  0  0
   -2.0816   -0.2464   -3.4488 C   0  0  0  0  0
   -1.2738   -1.2665   -3.7056 C   0  0  0  0  0
   -0.9056   -1.4328   -4.7134 H   0  0  0  0  0
   -0.9499   -1.9615   -2.9393 H   0  0  0  0  0
   -2.3659    0.4154   -4.2818 H   0  0  0  0  0
    0.3016    1.1796   -2.1865 C   0  0  0  0  0
    1.6841    1.3470   -2.2130 C   0  0  0  0  0
    2.1501    1.7787   -3.0944 H   0  0  0  0  0
   -0.2554    1.5239   -3.0539 H   0  0  0  0  0
    2.6940    0.0685    1.2280 C   0  0  0  0  0
    2.6250    0.8464    1.9944 H   0  0  0  0  0
    3.7484   -0.0601    0.9656 H   0  0  0  0  0
    2.3667   -0.8887    1.6472 H   0  0  0  0  0
    4.0558    1.4949   -2.0260 H   0  0  0  0  0
  1  2  1  0  0  0
  1 38  1  0  0  0
  2  3  2  0  0  0
  2 31  1  0  0  0
  3  4  1  0  0  0
  3 34  1  0  0  0
  4  5  2  0  0  0
  4 13  1  0  0  0
  5  6  1  0  0  0
  5 30  1  0  0  0
  6  7  2  0  0  0
  6 11  1  0  0  0
  7  8  1  0  0  0
  7 25  1  0  0  0
  8  9  2  0  0  0
  8 20  1  0  0  0
  9 10  1  0  0  0
  9 19  1  0  0  0
 10 11  2  0  0  0
 10 18  1  0  0  0
 11 12  1  0  0  0
 12 13  1  0  0  0
 12 16  1  0  0  0
 12 17  1  0  0  0
 13 14  1  0  0  0
 13 15  1  0  0  0
 20 21  1  0  0  0
 20 23  1  0  0  0
 20 24  1  0  0  0
 21 22  1  0  0  0
 25 26  2  0  0  0
 25 29  1  0  0  0
 26 27  1  0  0  0
 26 28  1  0  0  0
 30 31  2  0  0  0
 30 33  1  0  0  0
 31 32  1  0  0  0
 34 35  1  0  0  0
 34 36  1  0  0  0
 34 37  1  0  0  0
M  END
> <Tumorigenic>
none

> <Score>
34.63687

> <Active/Decoy>
active

> <InChI>
InChI=1S/C18H18O2/c1-3-14-13(10-19)5-4-12-6-7-15-11(2)17(20)9-8-16(15)18(12)14/h3-5,8-9,19-20H,1,6-7,10H2,2H3

> <Matching Features>
H:14924486185440016873||HBA:14924321692640012300|HBA:14924486112070016868

> <Mol. Index>
581

> <Pharmacophore Match>
Model -1

> <# Confs.>
6

> <Source Database>
Pharm-Screening-input-NANPDB_After_DataWarror.ldb

> <Pharmacophore-Fit Score>
34.64

> <formula>
C18H18O2

> <Mutagenic>
none

> <Reproductive Effective>
none

> <Irritant>
none

$$$$
1,6-dimethyl-5-vinyl-9,10-dihydrophenanthrene-2,7-diol
XX    ILIB03122402123D

 38 40  0  0  1  0              1 V2000
    4.1240    1.1313   -1.0692 O   0  0  0  0  0
    2.7884    1.0294   -1.3565 C   0  0  0  0  0
    1.9036    0.5510   -0.3826 C   0  0  0  0  0
    0.5208    0.4420   -0.6877 C   0  0  0  0  0
    0.0319    0.8618   -1.9715 C   0  0  0  0  0
   -1.4083    0.8906   -2.3802 C   0  0  0  0  0
   -1.7511    0.7354   -3.7525 C   0  0  0  0  0
   -3.1029    0.6703   -4.1676 C   0  0  0  0  0
   -4.1042    0.8864   -3.2130 C   0  0  0  0  0
   -5.4192    0.8758   -3.5973 O   0  0  0  0  0
   -5.9767    1.0479   -2.8199 H   0  0  0  0  0
   -3.7869    1.1351   -1.8834 C   0  0  0  0  0
   -2.4531    1.1410   -1.4760 C   0  0  0  0  0
   -2.2551    1.3732   -0.4339 H   0  0  0  0  0
   -4.5653    1.3282   -1.1509 H   0  0  0  0  0
   -3.4669    0.4359   -5.6107 C   0  0  0  0  0
   -4.5028    0.1022   -5.7260 H   0  0  0  0  0
   -3.3381    1.3586   -6.1853 H   0  0  0  0  0
   -2.8447   -0.3545   -6.0434 H   0  0  0  0  0
   -0.6164    0.6494   -4.7536 C   0  0  0  0  0
    0.5264    1.5818   -4.3430 C   0  0  0  0  0
    0.9838    1.2612   -2.9418 C   0  0  0  0  0
    2.3415    1.3677   -2.6275 C   0  0  0  0  0
    3.0482    1.7023   -3.3837 H   0  0  0  0  0
    1.3500    1.4635   -5.0560 H   0  0  0  0  0
    0.2047    2.6303   -4.3772 H   0  0  0  0  0
   -0.2729   -0.3916   -4.8070 H   0  0  0  0  0
   -0.9393    0.9480   -5.7555 H   0  0  0  0  0
   -0.3567   -0.2123    0.2727 C   0  0  0  0  0
   -0.6282   -1.5159    0.3239 C   0  0  0  0  0
   -1.2731   -1.9068    1.1053 H   0  0  0  0  0
   -0.2114   -2.2283   -0.3787 H   0  0  0  0  0
   -0.8202    0.4432    1.0165 H   0  0  0  0  0
    2.4285    0.1323    0.9716 C   0  0  0  0  0
    2.4484   -0.9600    1.0377 H   0  0  0  0  0
    3.4425    0.4999    1.1580 H   0  0  0  0  0
    1.8079    0.5369    1.7778 H   0  0  0  0  0
    4.5901    1.4679   -1.8530 H   0  0  0  0  0
  1  2  1  0  0  0
  1 38  1  0  0  0
  2  3  2  0  0  0
  2 23  1  0  0  0
  3  4  1  0  0  0
  3 34  1  0  0  0
  4  5  2  0  0  0
  4 29  1  0  0  0
  5  6  1  0  0  0
  5 22  1  0  0  0
  6  7  2  0  0  0
  6 13  1  0  0  0
  7  8  1  0  0  0
  7 20  1  0  0  0
  8  9  2  0  0  0
  8 16  1  0  0  0
  9 10  1  0  0  0
  9 12  1  0  0  0
 10 11  1  0  0  0
 12 13  2  0  0  0
 12 15  1  0  0  0
 13 14  1  0  0  0
 16 17  1  0  0  0
 16 18  1  0  0  0
 16 19  1  0  0  0
 20 21  1  0  0  0
 20 27  1  0  0  0
 20 28  1  0  0  0
 21 22  1  0  0  0
 21 25  1  0  0  0
 21 26  1  0  0  0
 22 23  2  0  0  0
 23 24  1  0  0  0
 29 30  2  0  0  0
 29 33  1  0  0  0
 30 31  1  0  0  0
 30 32  1  0  0  0
 34 35  1  0  0  0
 34 36  1  0  0  0
 34 37  1  0  0  0
M  END
> <Tumorigenic>
none

> <Score>
34.636513

> <Active/Decoy>
active

> <InChI>
InChI=1S/C18H18O2/c1-4-13-10(2)17(20)9-12-5-6-14-11(3)16(19)8-7-15(14)18(12)13/h4,7-9,19-20H,1,5-6H2,2-3H3

> <Matching Features>
H:14924486185440016873||HBA:14924321692640012300|HBA:14924486112070016868

> <Mol. Index>
562

> <Pharmacophore Match>
Model -1

> <# Confs.>
2

> <Source Database>
Pharm-Screening-input-NANPDB_After_DataWarror.ldb

> <Pharmacophore-Fit Score>
34.64

> <formula>
C18H18O2

> <Mutagenic>
none

> <Reproductive Effective>
none

> <Irritant>
none

$$$$
17alpha-hydroxycabraleahydroxylactone
XX    ILIB03122402123D

 75 79  0  0  1  0              1 V2000
    8.6816    2.9135    0.2321 O   0  0  0  0  0
    7.4650    2.9843    0.3009 C   0  0  0  0  0
    6.6314    1.9079    0.4213 O   0  0  0  0  0
    5.2574    2.3488    0.5539 C   0  0  2  0  0
    4.3669    1.3734   -0.2278 C   0  0  2  0  0
    4.7448    1.4150   -1.6022 O   0  0  0  0  0
    5.6435    1.0343   -1.6735 H   0  0  0  0  0
    2.8312    1.6596   -0.1242 C   0  0  2  0  0
    2.0895    0.2860   -0.3569 C   0  0  1  0  0
    1.1367    0.2624   -1.6515 C   0  0  2  0  0
    0.2249    1.5536   -1.7825 C   0  0  1  0  0
   -1.3458    1.3556   -1.6691 C   0  0  2  0  0
   -1.8568    0.1428   -2.5468 C   0  0  1  0  0
   -2.6174    0.5323   -3.8678 C   0  0  0  0  0
   -3.7984    1.4888   -3.5206 C   0  0  1  0  0
   -4.9214    0.7307   -3.0518 O   0  0  0  0  0
   -5.6644    1.3497   -2.9348 H   0  0  0  0  0
   -3.5068    2.5475   -2.4545 C   0  0  0  0  0
   -2.0407    2.6922   -2.0834 C   0  0  0  0  0
   -1.5162    3.1701   -2.9152 H   0  0  0  0  0
   -1.9709    3.4206   -1.2644 H   0  0  0  0  0
   -3.8694    3.5165   -2.8170 H   0  0  0  0  0
   -4.0897    2.3512   -1.5459 H   0  0  0  0  0
   -4.1376    1.9856   -4.4379 H   0  0  0  0  0
   -1.7023    1.1919   -4.9274 C   0  0  0  0  0
   -1.2047    2.0949   -4.5818 H   0  0  0  0  0
   -0.9204    0.5092   -5.2741 H   0  0  0  0  0
   -2.2844    1.4735   -5.8136 H   0  0  0  0  0
   -3.1921   -0.7437   -4.5453 C   0  0  0  0  0
   -2.3999   -1.3764   -4.9614 H   0  0  0  0  0
   -3.8576   -0.4794   -5.3722 H   0  0  0  0  0
   -3.7593   -1.3577   -3.8375 H   0  0  0  0  0
   -0.8056   -0.9691   -2.7723 C   0  0  0  0  0
    0.2728   -1.0247   -1.6980 C   0  0  0  0  0
    0.9113   -1.8986   -1.8828 H   0  0  0  0  0
   -0.2232   -1.2344   -0.7506 H   0  0  0  0  0
   -0.3344   -0.8832   -3.7533 H   0  0  0  0  0
   -1.3205   -1.9390   -2.7871 H   0  0  0  0  0
   -2.6298   -0.3536   -1.9376 H   0  0  0  0  0
   -1.7968    1.0919   -0.2038 C   0  0  0  0  0
   -1.5057    1.9010    0.4724 H   0  0  0  0  0
   -2.8880    1.0142   -0.1352 H   0  0  0  0  0
   -1.4065    0.1588    0.1992 H   0  0  0  0  0
    0.7645    2.7672   -0.9893 C   0  0  0  0  0
    2.2868    2.8179   -0.9566 C   0  0  0  0  0
    2.5935    3.7660   -0.5001 H   0  0  0  0  0
    2.6864    2.8339   -1.9739 H   0  0  0  0  0
    0.3914    2.7740    0.0385 H   0  0  0  0  0
    0.4055    3.6949   -1.4501 H   0  0  0  0  0
    0.3468    1.8815   -2.8253 H   0  0  0  0  0
    2.0047    0.2158   -2.9636 C   0  0  0  0  0
    2.4744   -0.7600   -3.1180 H   0  0  0  0  0
    2.7894    0.9700   -2.9788 H   0  0  0  0  0
    1.4024    0.3923   -3.8620 H   0  0  0  0  0
    3.2456   -0.7585   -0.4019 C   0  0  0  0  0
    4.4416   -0.0798    0.2637 C   0  0  0  0  0
    4.3489   -0.1498    1.3532 H   0  0  0  0  0
    5.3719   -0.5732   -0.0359 H   0  0  0  0  0
    3.5408   -1.0303   -1.4163 H   0  0  0  0  0
    2.9904   -1.6961    0.1041 H   0  0  0  0  0
    1.3092   -0.0061    0.9584 C   0  0  0  0  0
    0.8579   -1.0013    0.9683 H   0  0  0  0  0
    1.9757    0.0209    1.8296 H   0  0  0  0  0
    0.5333    0.7370    1.1442 H   0  0  0  0  0
    2.6410    1.9533    0.9182 H   0  0  0  0  0
    5.2713    3.7583   -0.0023 C   0  0  0  0  0
    6.6677    4.2518    0.3040 C   0  0  0  0  0
    7.0262    4.9400   -0.4652 H   0  0  0  0  0
    6.7318    4.7152    1.2918 H   0  0  0  0  0
    4.4936    4.4029    0.4188 H   0  0  0  0  0
    5.1371    3.7595   -1.0903 H   0  0  0  0  0
    4.9241    2.3434    2.0650 C   0  0  0  0  0
    5.6113    2.9848    2.6277 H   0  0  0  0  0
    3.9048    2.6956    2.2513 H   0  0  0  0  0
    5.0324    1.3424    2.4958 H   0  0  0  0  0
  1  2  2  0  0  0
  2  3  1  0  0  0
  2 67  1  0  0  0
  3  4  1  0  0  0
  4  5  1  0  0  0
  4 66  1  0  0  0
  4 72  1  0  0  0
  5  6  1  0  0  0
  5  8  1  0  0  0
  5 56  1  0  0  0
  6  7  1  0  0  0
  8  9  1  0  0  0
  8 45  1  0  0  0
  8 65  1  0  0  0
  9 10  1  0  0  0
  9 55  1  0  0  0
  9 61  1  0  0  0
 10 11  1  0  0  0
 10 34  1  0  0  0
 10 51  1  0  0  0
 11 12  1  0  0  0
 11 44  1  0  0  0
 11 50  1  0  0  0
 12 13  1  0  0  0
 12 19  1  0  0  0
 12 40  1  0  0  0
 13 14  1  0  0  0
 13 33  1  0  0  0
 13 39  1  0  0  0
 14 15  1  0  0  0
 14 25  1  0  0  0
 14 29  1  0  0  0
 15 16  1  0  0  0
 15 18  1  0  0  0
 15 24  1  0  0  0
 16 17  1  0  0  0
 18 19  1  0  0  0
 18 22  1  0  0  0
 18 23  1  0  0  0
 19 20  1  0  0  0
 19 21  1  0  0  0
 25 26  1  0  0  0
 25 27  1  0  0  0
 25 28  1  0  0  0
 29 30  1  0  0  0
 29 31  1  0  0  0
 29 32  1  0  0  0
 33 34  1  0  0  0
 33 37  1  0  0  0
 33 38  1  0  0  0
 34 35  1  0  0  0
 34 36  1  0  0  0
 40 41  1  0  0  0
 40 42  1  0  0  0
 40 43  1  0  0  0
 44 45  1  0  0  0
 44 48  1  0  0  0
 44 49  1  0  0  0
 45 46  1  0  0  0
 45 47  1  0  0  0
 51 52  1  0  0  0
 51 53  1  0  0  0
 51 54  1  0  0  0
 55 56  1  0  0  0
 55 59  1  0  0  0
 55 60  1  0  0  0
 56 57  1  0  0  0
 56 58  1  0  0  0
 61 62  1  0  0  0
 61 63  1  0  0  0
 61 64  1  0  0  0
 66 67  1  0  0  0
 66 70  1  0  0  0
 66 71  1  0  0  0
 67 68  1  0  0  0
 67 69  1  0  0  0
 72 73  1  0  0  0
 72 74  1  0  0  0
 72 75  1  0  0  0
M  END
> <Tumorigenic>
none

> <Score>
34.636055

> <Active/Decoy>
active

> <InChI>
InChI=1S/C27H44O4/c1-22(2)17-9-13-24(4)18(23(17,3)12-10-20(22)28)7-8-19-25(24,5)15-16-27(19,30)26(6)14-11-21(29)31-26/h17-20,28,30H,7-16H2,1-6H3/t17-,18-,19+,20+,23+,24+,25+,26+,27-/m1/s1

> <Matching Features>
H:14924486185440016873||HBA:14924321692640012300|HBA:14924486112070016868

> <Mol. Index>
176

> <Pharmacophore Match>
Model -1

> <# Confs.>
9

> <Source Database>
Pharm-Screening-input-NANPDB_After_DataWarror.ldb

> <Pharmacophore-Fit Score>
34.64

> <formula>
C27H44O4

> <Mutagenic>
none

> <Reproductive Effective>
none

> <Irritant>
none

$$$$
(?)-epipinoresinol
XX    ILIB03122402123D

 48 51  0  0  1  0              1 V2000
   -0.2580   -1.3739    1.9917 O   0  0  0  0  0
    0.3131   -0.9123    0.7566 C   0  0  2  0  0
    1.6972   -0.3626    0.9106 C   0  0  0  0  0
    2.4189    0.1388   -0.1803 C   0  0  0  0  0
    3.7114    0.6520   -0.0156 C   0  0  0  0  0
    4.4890    1.1579   -1.0166 O   0  0  0  0  0
    3.9095    1.1209   -2.3190 C   0  0  0  0  0
    3.7009    0.1000   -2.6370 H   0  0  0  0  0
    4.6314    1.5509   -3.0171 H   0  0  0  0  0
    3.0004    1.7400   -2.3552 H   0  0  0  0  0
    4.2726    0.6621    1.2641 C   0  0  0  0  0
    5.5301    1.1561    1.4833 O   0  0  0  0  0
    5.8952    1.4438    0.6279 H   0  0  0  0  0
    3.5702    0.1760    2.3635 C   0  0  0  0  0
    2.2866   -0.3382    2.1891 C   0  0  0  0  0
    1.7477   -0.7133    3.0546 H   0  0  0  0  0
    4.0135    0.1939    3.3552 H   0  0  0  0  0
    1.9541    0.1002   -1.1626 H   0  0  0  0  0
   -0.7168    0.0417    0.1642 C   0  0  2  0  0
   -0.7772    1.4393    0.7680 C   0  0  0  0  0
   -2.1605    1.8210    0.7927 O   0  0  0  0  0
   -2.9784    0.6414    0.6589 C   0  0  1  0  0
   -3.8329    0.7421   -0.5765 C   0  0  0  0  0
   -3.7659    1.8701   -1.4154 C   0  0  0  0  0
   -4.5568    1.9553   -2.5672 C   0  0  0  0  0
   -4.5632    3.0043   -3.4411 O   0  0  0  0  0
   -3.6843    4.0774   -3.1113 C   0  0  0  0  0
   -3.9581    4.5322   -2.1527 H   0  0  0  0  0
   -3.7895    4.8430   -3.8864 H   0  0  0  0  0
   -2.6411    3.7481   -3.1073 H   0  0  0  0  0
   -5.4134    0.8942   -2.8757 C   0  0  0  0  0
   -6.2086    0.9245   -3.9888 O   0  0  0  0  0
   -6.0553    1.7695   -4.4458 H   0  0  0  0  0
   -5.4892   -0.2312   -2.0596 C   0  0  0  0  0
   -4.6994   -0.3062   -0.9143 C   0  0  0  0  0
   -4.7651   -1.1906   -0.2857 H   0  0  0  0  0
   -6.1561   -1.0502   -2.3086 H   0  0  0  0  0
   -3.0800    2.6701   -1.1484 H   0  0  0  0  0
   -2.0260   -0.5460    0.6219 C   0  0  2  0  0
   -1.6633   -1.1007    1.9965 C   0  0  0  0  0
   -2.2098   -2.0221    2.2178 H   0  0  0  0  0
   -1.8582   -0.3923    2.8082 H   0  0  0  0  0
   -2.3601   -1.3678   -0.0221 H   0  0  0  0  0
   -3.6389    0.6055    1.5344 H   0  0  0  0  0
   -0.4038    1.4788    1.7969 H   0  0  0  0  0
   -0.2166    2.1696    0.1763 H   0  0  0  0  0
   -0.6511    0.1120   -0.9275 H   0  0  0  0  0
    0.3761   -1.8103    0.1059 H   0  0  0  0  0
  1  2  1  0  0  0
  1 40  1  0  0  0
  2  3  1  0  0  0
  2 19  1  0  0  0
  2 48  1  0  0  0
  3  4  2  0  0  0
  3 15  1  0  0  0
  4  5  1  0  0  0
  4 18  1  0  0  0
  5  6  1  0  0  0
  5 11  2  0  0  0
  6  7  1  0  0  0
  7  8  1  0  0  0
  7  9  1  0  0  0
  7 10  1  0  0  0
 11 12  1  0  0  0
 11 14  1  0  0  0
 12 13  1  0  0  0
 14 15  2  0  0  0
 14 17  1  0  0  0
 15 16  1  0  0  0
 19 20  1  0  0  0
 19 39  1  0  0  0
 19 47  1  0  0  0
 20 21  1  0  0  0
 20 45  1  0  0  0
 20 46  1  0  0  0
 21 22  1  0  0  0
 22 23  1  0  0  0
 22 39  1  0  0  0
 22 44  1  0  0  0
 23 24  2  0  0  0
 23 35  1  0  0  0
 24 25  1  0  0  0
 24 38  1  0  0  0
 25 26  1  0  0  0
 25 31  2  0  0  0
 26 27  1  0  0  0
 27 28  1  0  0  0
 27 29  1  0  0  0
 27 30  1  0  0  0
 31 32  1  0  0  0
 31 34  1  0  0  0
 32 33  1  0  0  0
 34 35  2  0  0  0
 34 37  1  0  0  0
 35 36  1  0  0  0
 39 40  1  0  0  0
 39 43  1  0  0  0
 40 41  1  0  0  0
 40 42  1  0  0  0
M  END
> <Tumorigenic>
none

> <Score>
34.632744

> <Active/Decoy>
active

> <InChI>
InChI=1S/C20H22O6/c1-23-17-7-11(3-5-15(17)21)19-13-9-26-20(14(13)10-25-19)12-4-6-16(22)18(8-12)24-2/h3-8,13-14,19-22H,9-10H2,1-2H3/t13-,14-,19-,20+/m1/s1

> <Matching Features>
H:14924486185440016873||HBA:14924321692640012300|HBA:14924486112070016868

> <Mol. Index>
980

> <Pharmacophore Match>
Model -1

> <# Confs.>
25

> <Source Database>
Pharm-Screening-input-NANPDB_After_DataWarror.ldb

> <Pharmacophore-Fit Score>
34.63

> <formula>
C20H22O6

> <Mutagenic>
none

> <Reproductive Effective>
none

> <Irritant>
none

$$$$
15-hydroxy phaseic acid
XX    ILIB03122402123D

 43 44  0  0  1  0              1 V2000
   -4.2822    0.2811   -1.1396 O   0  0  0  0  0
   -4.0561   -0.0147   -2.3032 C   0  0  0  0  0
   -4.8983    0.2594   -3.3292 O   0  0  0  0  0
   -4.6092   -0.0273   -4.2218 H   0  0  0  0  0
   -2.8459   -0.7018   -2.7837 C   0  0  0  0  0
   -1.6165   -0.6504   -2.2527 C   0  0  0  0  0
   -1.2213    0.0724   -1.0668 C   0  0  0  0  0
    0.0149    0.1324   -0.5527 C   0  0  0  0  0
    0.3766    0.9344    0.6576 C   0  0  1  0  0
   -0.8136    0.9896    1.4650 O   0  0  0  0  0
   -1.1068    0.0787    1.6374 H   0  0  0  0  0
    1.5748    0.5247    1.5547 C   0  0  2  0  0
    1.7680    1.6756    2.4245 O   0  0  0  0  0
    1.2367    2.8409    1.7604 C   0  0  0  0  0
    0.8206    2.3853    0.3530 C   0  0  1  0  0
    2.0518    2.3809   -0.5930 C   0  0  0  0  0
    3.2633    1.6459   -0.0091 C   0  0  2  0  0
    4.1800    1.3167   -1.0459 O   0  0  0  0  0
    4.4049    2.1398   -1.5117 H   0  0  0  0  0
    2.8856    0.3707    0.7509 C   0  0  0  0  0
    2.8421   -0.4840    0.0685 H   0  0  0  0  0
    3.7149    0.1446    1.4351 H   0  0  0  0  0
    3.7906    2.3178    0.6783 H   0  0  0  0  0
    2.3546    3.4117   -0.8199 H   0  0  0  0  0
    1.7856    1.9471   -1.5653 H   0  0  0  0  0
   -0.2680    3.2968   -0.2191 C   0  0  0  0  0
   -0.5830    2.9669   -1.2138 H   0  0  0  0  0
    0.0972    4.3258   -0.3121 H   0  0  0  0  0
   -1.1560    3.3237    0.4204 H   0  0  0  0  0
    0.3863    3.1926    2.3547 H   0  0  0  0  0
    1.9927    3.6328    1.7561 H   0  0  0  0  0
    1.3421   -0.6914    2.4480 C   0  0  0  0  0
    2.2128   -0.8681    3.0902 H   0  0  0  0  0
    1.1568   -1.5994    1.8693 H   0  0  0  0  0
    0.5005   -0.5316    3.1302 H   0  0  0  0  0
    0.8180   -0.4345   -1.0178 H   0  0  0  0  0
   -2.0163    0.6772   -0.6118 H   0  0  0  0  0
   -0.4759   -1.3905   -2.9219 C   0  0  0  0  0
   -0.9410   -2.0589   -4.0876 O   0  0  0  0  0
   -1.6115   -2.7057   -3.8088 H   0  0  0  0  0
   -0.0149   -2.1332   -2.2622 H   0  0  0  0  0
    0.3035   -0.6832   -3.2228 H   0  0  0  0  0
   -3.0284   -1.3442   -3.6439 H   0  0  0  0  0
  1  2  2  0  0  0
  2  3  1  0  0  0
  2  5  1  0  0  0
  3  4  1  0  0  0
  5  6  2  0  0  0
  5 43  1  0  0  0
  6  7  1  0  0  0
  6 38  1  0  0  0
  7  8  2  0  0  0
  7 37  1  0  0  0
  8  9  1  0  0  0
  8 36  1  0  0  0
  9 10  1  0  0  0
  9 12  1  0  0  0
  9 15  1  0  0  0
 10 11  1  0  0  0
 12 13  1  0  0  0
 12 20  1  0  0  0
 12 32  1  0  0  0
 13 14  1  0  0  0
 14 15  1  0  0  0
 14 30  1  0  0  0
 14 31  1  0  0  0
 15 16  1  0  0  0
 15 26  1  0  0  0
 16 17  1  0  0  0
 16 24  1  0  0  0
 16 25  1  0  0  0
 17 18  1  0  0  0
 17 20  1  0  0  0
 17 23  1  0  0  0
 18 19  1  0  0  0
 20 21  1  0  0  0
 20 22  1  0  0  0
 26 27  1  0  0  0
 26 28  1  0  0  0
 26 29  1  0  0  0
 32 33  1  0  0  0
 32 34  1  0  0  0
 32 35  1  0  0  0
 38 39  1  0  0  0
 38 41  1  0  0  0
 38 42  1  0  0  0
 39 40  1  0  0  0
M  END
> <Tumorigenic>
none

> <Score>
34.616165

> <Active/Decoy>
active

> <InChI>
InChI=1S/C15H22O6/c1-13-6-11(17)7-14(2,21-9-13)15(13,20)4-3-10(8-16)5-12(18)19/h3-5,11,16-17,20H,6-9H2,1-2H3,(H,18,19)/b4-3+,10-5+/t11-,13+,14+,15-/m0/s1

> <Matching Features>
H:14924486185440016873||HBA:14924321692640012300|HBA:14924486112070016868

> <Mol. Index>
678

> <Pharmacophore Match>
Model -1

> <# Confs.>
25

> <Source Database>
Pharm-Screening-input-NANPDB_After_DataWarror.ldb

> <Pharmacophore-Fit Score>
34.62

> <formula>
C15H22O6

> <Mutagenic>
none

> <Reproductive Effective>
none

> <Irritant>
none

$$$$
11,12-dihydroxy-7-oxo-ent-abieta-8,11,13-trien-16-oic acid methyl ester
XX    ILIB03122402123D

 57 59  0  0  1  0              1 V2000
    3.2891    1.4015   -2.0544 O   0  0  0  0  0
    2.7011    1.3159   -0.9780 C   0  0  0  0  0
    1.4302    0.5535   -0.8728 C   0  0  0  0  0
    0.8420    0.2600    0.3762 C   0  0  0  0  0
   -0.3031   -0.5603    0.3375 C   0  0  0  0  0
   -0.8915   -1.0695    1.4632 O   0  0  0  0  0
   -0.1811   -1.3956    2.0404 H   0  0  0  0  0
   -0.8985   -0.9563   -0.8728 C   0  0  0  0  0
   -2.0331   -1.7280   -0.8511 O   0  0  0  0  0
   -2.2757   -1.8883    0.0768 H   0  0  0  0  0
   -0.3488   -0.6107   -2.0997 C   0  0  0  0  0
    0.8412    0.1367   -2.0838 C   0  0  0  0  0
    1.3068    0.3967   -3.0328 H   0  0  0  0  0
   -0.9803   -1.0212   -3.4058 C   0  0  2  0  0
   -2.3939   -0.5016   -3.5671 C   0  0  0  0  0
   -2.3547    0.9375   -3.5132 O   0  0  0  0  0
   -3.5412    1.5737   -3.6327 C   0  0  0  0  0
   -4.6353    1.0466   -3.7809 O   0  0  0  0  0
   -3.3267    3.0539   -3.5439 C   0  0  0  0  0
   -2.9643    3.3146   -2.5456 H   0  0  0  0  0
   -4.2746    3.5697   -3.7201 H   0  0  0  0  0
   -2.6152    3.3742   -4.3089 H   0  0  0  0  0
   -3.0281   -0.8895   -2.7680 H   0  0  0  0  0
   -2.8026   -0.8243   -4.5266 H   0  0  0  0  0
   -0.9054   -2.5395   -3.6078 C   0  0  0  0  0
   -1.4676   -3.0801   -2.8396 H   0  0  0  0  0
    0.1314   -2.8910   -3.5653 H   0  0  0  0  0
   -1.3136   -2.8212   -4.5838 H   0  0  0  0  0
   -0.3772   -0.5691   -4.2225 H   0  0  0  0  0
    1.4892    0.7929    1.6670 C   0  0  1  0  0
    2.2742    2.1342    1.3917 C   0  0  2  0  0
    1.3957    3.4502    1.2718 C   0  0  0  0  0
    0.3863    3.5246    2.4435 C   0  0  0  0  0
   -0.4059    2.2423    2.6360 C   0  0  0  0  0
    0.5429    1.0780    2.8701 C   0  0  0  0  0
   -0.0301    0.2051    3.1852 H   0  0  0  0  0
    1.1586    1.3194    3.7502 H   0  0  0  0  0
   -1.0622    2.0500    1.7809 H   0  0  0  0  0
   -1.0571    2.3566    3.5116 H   0  0  0  0  0
   -0.3105    4.3609    2.3001 H   0  0  0  0  0
    0.9252    3.7392    3.3754 H   0  0  0  0  0
    0.6225    3.5960   -0.0536 C   0  0  0  0  0
   -0.1065    2.7987   -0.2058 H   0  0  0  0  0
    1.2956    3.6256   -0.9163 H   0  0  0  0  0
    0.0588    4.5373   -0.0713 H   0  0  0  0  0
    2.3039    4.7013    1.3929 C   0  0  0  0  0
    1.7040    5.6166    1.4648 H   0  0  0  0  0
    2.9598    4.8186    0.5256 H   0  0  0  0  0
    2.9326    4.6532    2.2894 H   0  0  0  0  0
    3.2843    1.9457    0.2562 C   0  0  0  0  0
    3.7374    2.8976   -0.0314 H   0  0  0  0  0
    4.1080    1.3017    0.5855 H   0  0  0  0  0
    2.8872    2.3056    2.2910 H   0  0  0  0  0
    2.4786   -0.3087    2.1398 C   0  0  0  0  0
    1.9474   -1.2088    2.4692 H   0  0  0  0  0
    3.0838    0.0387    2.9862 H   0  0  0  0  0
    3.1651   -0.6250    1.3472 H   0  0  0  0  0
  1  2  2  0  0  0
  2  3  1  0  0  0
  2 50  1  0  0  0
  3  4  2  0  0  0
  3 12  1  0  0  0
  4  5  1  0  0  0
  4 30  1  0  0  0
  5  6  1  0  0  0
  5  8  2  0  0  0
  6  7  1  0  0  0
  8  9  1  0  0  0
  8 11  1  0  0  0
  9 10  1  0  0  0
 11 12  2  0  0  0
 11 14  1  0  0  0
 12 13  1  0  0  0
 14 15  1  0  0  0
 14 25  1  0  0  0
 14 29  1  0  0  0
 15 16  1  0  0  0
 15 23  1  0  0  0
 15 24  1  0  0  0
 16 17  1  0  0  0
 17 18  2  0  0  0
 17 19  1  0  0  0
 19 20  1  0  0  0
 19 21  1  0  0  0
 19 22  1  0  0  0
 25 26  1  0  0  0
 25 27  1  0  0  0
 25 28  1  0  0  0
 30 31  1  0  0  0
 30 35  1  0  0  0
 30 54  1  0  0  0
 31 32  1  0  0  0
 31 50  1  0  0  0
 31 53  1  0  0  0
 32 33  1  0  0  0
 32 42  1  0  0  0
 32 46  1  0  0  0
 33 34  1  0  0  0
 33 40  1  0  0  0
 33 41  1  0  0  0
 34 35  1  0  0  0
 34 38  1  0  0  0
 34 39  1  0  0  0
 35 36  1  0  0  0
 35 37  1  0  0  0
 42 43  1  0  0  0
 42 44  1  0  0  0
 42 45  1  0  0  0
 46 47  1  0  0  0
 46 48  1  0  0  0
 46 49  1  0  0  0
 50 51  1  0  0  0
 50 52  1  0  0  0
 54 55  1  0  0  0
 54 56  1  0  0  0
 54 57  1  0  0  0
M  END
> <Tumorigenic>
none

> <Score>
34.621002

> <Active/Decoy>
active

> <InChI>
InChI=1S/C22H30O5/c1-12(11-27-13(2)23)14-9-15-16(24)10-17-21(3,4)7-6-8-22(17,5)18(15)20(26)19(14)25/h9,12,17,25-26H,6-8,10-11H2,1-5H3/t12-,17-,22+/m0/s1

> <Matching Features>
H:14924486185440016873||HBA:14924321692640012300|HBA:14924486112070016868

> <Mol. Index>
538

> <Pharmacophore Match>
Model -1

> <# Confs.>
25

> <Source Database>
Pharm-Screening-input-NANPDB_After_DataWarror.ldb

> <Pharmacophore-Fit Score>
34.62

> <formula>
C22H30O5

> <Mutagenic>
none

> <Reproductive Effective>
none

> <Irritant>
none

$$$$
(+)-lariciresinol
XX    ILIB03122402123D

 50 52  0  0  1  0              1 V2000
   -0.4093    0.6828   -0.8680 O   0  0  0  0  0
   -0.0142   -0.2318    0.1752 C   0  0  2  0  0
    1.4253    0.0034    0.5394 C   0  0  0  0  0
    2.3308    0.4769   -0.4256 C   0  0  0  0  0
    3.6739    0.6944   -0.0977 C   0  0  0  0  0
    4.6301    1.1539   -0.9588 O   0  0  0  0  0
    4.1802    1.4152   -2.2861 C   0  0  0  0  0
    3.8120    0.5019   -2.7662 H   0  0  0  0  0
    3.4150    2.2007   -2.2958 H   0  0  0  0  0
    5.0373    1.7760   -2.8633 H   0  0  0  0  0
    4.0990    0.4326    1.2094 C   0  0  0  0  0
    5.3975    0.6393    1.5878 O   0  0  0  0  0
    5.8805    0.9998    0.8241 H   0  0  0  0  0
    3.2157   -0.0503    2.1707 C   0  0  0  0  0
    1.8812   -0.2672    1.8353 C   0  0  0  0  0
    1.1987   -0.6455    2.5918 H   0  0  0  0  0
    3.5572   -0.2562    3.1817 H   0  0  0  0  0
    1.9577    0.6719   -1.4277 H   0  0  0  0  0
   -0.3110   -1.6406   -0.3538 C   0  0  1  0  0
   -0.4932   -2.6764    0.7416 C   0  0  0  0  0
   -0.7636   -3.9475    0.1595 O   0  0  0  0  0
   -0.0219   -4.1602   -0.4322 H   0  0  0  0  0
    0.4051   -2.7758    1.3603 H   0  0  0  0  0
   -1.3396   -2.4221    1.3867 H   0  0  0  0  0
   -1.4952   -1.3941   -1.3195 C   0  0  2  0  0
   -1.0415   -0.0633   -1.9172 C   0  0  0  0  0
   -1.8592    0.5253   -2.3429 H   0  0  0  0  0
   -0.2950   -0.2231   -2.7040 H   0  0  0  0  0
   -2.8587   -1.2648   -0.6621 C   0  0  0  0  0
   -3.9927   -1.3222   -1.6494 C   0  0  0  0  0
   -4.4855   -0.1513   -2.2494 C   0  0  0  0  0
   -5.5436   -0.2082   -3.1642 C   0  0  0  0  0
   -6.0909    0.8678   -3.8013 O   0  0  0  0  0
   -5.5106    2.1297   -3.4785 C   0  0  0  0  0
   -5.6384    2.3625   -2.4157 H   0  0  0  0  0
   -4.4539    2.1631   -3.7645 H   0  0  0  0  0
   -6.0369    2.8961   -4.0542 H   0  0  0  0  0
   -6.1023   -1.4537   -3.4703 C   0  0  0  0  0
   -7.1309   -1.5694   -4.3669 O   0  0  0  0  0
   -7.3262   -0.6831   -4.7157 H   0  0  0  0  0
   -5.6334   -2.6208   -2.8734 C   0  0  0  0  0
   -4.5822   -2.5544   -1.9615 C   0  0  0  0  0
   -4.2222   -3.4693   -1.4984 H   0  0  0  0  0
   -6.0775   -3.5814   -3.1129 H   0  0  0  0  0
   -4.0201    0.7956   -1.9872 H   0  0  0  0  0
   -2.9924   -2.0164    0.1091 H   0  0  0  0  0
   -2.9133   -0.2837   -0.1462 H   0  0  0  0  0
   -1.5263   -2.1686   -2.0891 H   0  0  0  0  0
    0.5242   -1.9822   -0.9840 H   0  0  0  0  0
   -0.6518    0.0022    1.0377 H   0  0  0  0  0
  1  2  1  0  0  0
  1 26  1  0  0  0
  2  3  1  0  0  0
  2 19  1  0  0  0
  2 50  1  0  0  0
  3  4  2  0  0  0
  3 15  1  0  0  0
  4  5  1  0  0  0
  4 18  1  0  0  0
  5  6  1  0  0  0
  5 11  2  0  0  0
  6  7  1  0  0  0
  7  8  1  0  0  0
  7  9  1  0  0  0
  7 10  1  0  0  0
 11 12  1  0  0  0
 11 14  1  0  0  0
 12 13  1  0  0  0
 14 15  2  0  0  0
 14 17  1  0  0  0
 15 16  1  0  0  0
 19 20  1  0  0  0
 19 25  1  0  0  0
 19 49  1  0  0  0
 20 21  1  0  0  0
 20 23  1  0  0  0
 20 24  1  0  0  0
 21 22  1  0  0  0
 25 26  1  0  0  0
 25 29  1  0  0  0
 25 48  1  0  0  0
 26 27  1  0  0  0
 26 28  1  0  0  0
 29 30  1  0  0  0
 29 46  1  0  0  0
 29 47  1  0  0  0
 30 31  2  0  0  0
 30 42  1  0  0  0
 31 32  1  0  0  0
 31 45  1  0  0  0
 32 33  1  0  0  0
 32 38  2  0  0  0
 33 34  1  0  0  0
 34 35  1  0  0  0
 34 36  1  0  0  0
 34 37  1  0  0  0
 38 39  1  0  0  0
 38 41  1  0  0  0
 39 40  1  0  0  0
 41 42  2  0  0  0
 41 44  1  0  0  0
 42 43  1  0  0  0
M  END
> <Tumorigenic>
none

> <Score>
34.614094

> <Active/Decoy>
active

> <InChI>
InChI=1S/C20H24O6/c1-24-18-8-12(3-5-16(18)22)7-14-11-26-20(15(14)10-21)13-4-6-17(23)19(9-13)25-2/h3-6,8-9,14-15,20-23H,7,10-11H2,1-2H3/t14-,15-,20+/m0/s1

> <Matching Features>
H:14924486185440016873||HBA:14924321692640012300|HBA:14924486112070016868

> <Mol. Index>
258

> <Pharmacophore Match>
Model -1

> <# Confs.>
25

> <Source Database>
Pharm-Screening-input-NANPDB_After_DataWarror.ldb

> <Pharmacophore-Fit Score>
34.61

> <formula>
C20H24O6

> <Mutagenic>
none

> <Reproductive Effective>
none

> <Irritant>
none

$$$$
aloin B
XX    ILIB03122402123D

 52 55  0  0  1  0              1 V2000
   -0.7917   -2.9961    0.6412 O   0  0  0  0  0
   -0.4902   -1.8259    0.4509 C   0  0  0  0  0
   -1.3250   -0.9556   -0.4127 C   0  0  0  0  0
   -2.6877   -1.2015   -0.6233 C   0  0  0  0  0
   -3.3560   -2.2621   -0.0775 O   0  0  0  0  0
   -2.7440   -2.7818    0.4690 H   0  0  0  0  0
   -3.4481   -0.3283   -1.4020 C   0  0  0  0  0
   -2.8610    0.7992   -1.9836 C   0  0  0  0  0
   -3.6814    1.7526   -2.7911 C   0  0  0  0  0
   -4.5206    1.0191   -3.6707 O   0  0  0  0  0
   -5.0387    1.6670   -4.1804 H   0  0  0  0  0
   -4.3053    2.3761   -2.1416 H   0  0  0  0  0
   -3.0388    2.4145   -3.3799 H   0  0  0  0  0
   -1.4986    1.0437   -1.7686 C   0  0  0  0  0
   -0.7184    0.1620   -0.9906 C   0  0  0  0  0
    0.7747    0.3998   -0.8492 C   0  0  2  0  0
    1.5198   -0.2569   -2.0205 C   0  0  2  0  0
    1.2759   -1.6539   -2.0197 O   0  0  0  0  0
    1.8032   -2.3166   -3.1728 C   0  0  1  0  0
    3.3316   -2.1715   -3.2164 C   0  0  1  0  0
    3.8560   -2.7334   -4.4175 O   0  0  0  0  0
    3.4437   -2.2724   -5.1678 H   0  0  0  0  0
    3.7504   -0.7032   -3.1326 C   0  0  2  0  0
    5.1625   -0.6472   -2.9279 O   0  0  0  0  0
    5.4075    0.2905   -2.8532 H   0  0  0  0  0
    3.0479    0.0046   -1.9734 C   0  0  1  0  0
    3.3214    1.4012   -2.0429 O   0  0  0  0  0
    2.9353    1.7413   -2.8679 H   0  0  0  0  0
    3.4735   -0.3607   -1.0315 H   0  0  0  0  0
    3.5540   -0.1908   -4.0819 H   0  0  0  0  0
    3.7857   -2.7204   -2.3826 H   0  0  0  0  0
    1.3569   -3.7655   -3.0915 C   0  0  0  0  0
    1.8517   -4.4844   -4.2163 O   0  0  0  0  0
    2.8191   -4.3928   -4.2157 H   0  0  0  0  0
    1.7344   -4.2562   -2.1880 H   0  0  0  0  0
    0.2652   -3.8426   -3.1044 H   0  0  0  0  0
    1.3650   -1.8797   -4.0802 H   0  0  0  0  0
    1.1281    0.1824   -2.9505 H   0  0  0  0  0
    1.2803   -0.0965    0.4947 C   0  0  0  0  0
    0.7019   -1.2248    1.0963 C   0  0  0  0  0
    1.2186   -1.7232    2.2987 C   0  0  0  0  0
    0.6491   -2.8122    2.8981 O   0  0  0  0  0
    1.1323   -3.0073    3.7197 H   0  0  0  0  0
    2.3043   -1.0959    2.9107 C   0  0  0  0  0
    2.8717    0.0352    2.3274 C   0  0  0  0  0
    2.3631    0.5325    1.1275 C   0  0  0  0  0
    2.8256    1.4104    0.6832 H   0  0  0  0  0
    3.7127    0.5281    2.8056 H   0  0  0  0  0
    2.7089   -1.4727    3.8462 H   0  0  0  0  0
    0.9280    1.5008   -0.8732 H   0  0  0  0  0
   -1.0371    1.9197   -2.2180 H   0  0  0  0  0
   -4.5087   -0.5230   -1.5492 H   0  0  0  0  0
  1  2  2  0  0  0
  2  3  1  0  0  0
  2 40  1  0  0  0
  3  4  2  0  0  0
  3 15  1  0  0  0
  4  5  1  0  0  0
  4  7  1  0  0  0
  5  6  1  0  0  0
  7  8  2  0  0  0
  7 52  1  0  0  0
  8  9  1  0  0  0
  8 14  1  0  0  0
  9 10  1  0  0  0
  9 12  1  0  0  0
  9 13  1  0  0  0
 10 11  1  0  0  0
 14 15  2  0  0  0
 14 51  1  0  0  0
 15 16  1  0  0  0
 16 17  1  0  0  0
 16 39  1  0  0  0
 16 50  1  0  0  0
 17 18  1  0  0  0
 17 26  1  0  0  0
 17 38  1  0  0  0
 18 19  1  0  0  0
 19 20  1  0  0  0
 19 32  1  0  0  0
 19 37  1  0  0  0
 20 21  1  0  0  0
 20 23  1  0  0  0
 20 31  1  0  0  0
 21 22  1  0  0  0
 23 24  1  0  0  0
 23 26  1  0  0  0
 23 30  1  0  0  0
 24 25  1  0  0  0
 26 27  1  0  0  0
 26 29  1  0  0  0
 27 28  1  0  0  0
 32 33  1  0  0  0
 32 35  1  0  0  0
 32 36  1  0  0  0
 33 34  1  0  0  0
 39 40  1  0  0  0
 39 46  2  0  0  0
 40 41  2  0  0  0
 41 42  1  0  0  0
 41 44  1  0  0  0
 42 43  1  0  0  0
 44 45  2  0  0  0
 44 49  1  0  0  0
 45 46  1  0  0  0
 45 48  1  0  0  0
 46 47  1  0  0  0
M  END
> <Tumorigenic>
none

> <Score>
34.60396

> <Active/Decoy>
active

> <InChI>
InChI=1S/C21H22O9/c22-6-8-4-10-14(21-20(29)19(28)17(26)13(7-23)30-21)9-2-1-3-11(24)15(9)18(27)16(10)12(25)5-8/h1-5,13-14,17,19-26,28-29H,6-7H2/t13-,14-,17-,19+,20-,21+/m1/s1

> <Matching Features>
H:14924486185440016873||HBA:14924321692640012300|HBA:14924486112070016868

> <Mol. Index>
1002

> <Pharmacophore Match>
Model -1

> <# Confs.>
11

> <Source Database>
Pharm-Screening-input-NANPDB_After_DataWarror.ldb

> <Pharmacophore-Fit Score>
34.6

> <formula>
C21H22O9

> <Mutagenic>
none

> <Reproductive Effective>
none

> <Irritant>
none

$$$$
falcarindiol
XX    ILIB03122402123D

 43 42  0  0  1  0              1 V2000
   -4.3394    0.9906   -3.5356 O   0  0  0  0  0
   -3.7301    1.7124   -2.4678 C   0  0  2  0  0
   -2.2877    1.8192   -2.6956 C   0  0  0  0  0
   -1.1070    1.9139   -2.8885 C   0  0  0  0  0
    0.2498    2.0278   -3.1150 C   0  0  0  0  0
    1.4300    2.1209   -3.3134 C   0  0  0  0  0
    2.8695    2.2239   -3.5595 C   0  0  2  0  0
    3.5872    1.6069   -2.4910 O   0  0  0  0  0
    3.4070    2.1008   -1.6741 H   0  0  0  0  0
    3.2791    3.6591   -3.6652 C   0  0  0  0  0
    4.1726    4.2994   -2.9003 C   0  0  0  0  0
    4.3852    5.3489   -3.0734 H   0  0  0  0  0
    4.7047    3.8070   -2.0949 H   0  0  0  0  0
    2.7973    4.2441   -4.4499 H   0  0  0  0  0
    3.1243    1.6758   -4.4740 H   0  0  0  0  0
   -4.0000    1.0053   -1.1746 C   0  0  0  0  0
   -4.6352    1.5167   -0.1089 C   0  0  0  0  0
   -4.9264    0.8452    1.1944 C   0  0  0  0  0
   -4.3266    1.5493    2.4059 C   0  0  0  0  0
   -2.7939    1.7091    2.4089 C   0  0  0  0  0
   -1.9676    0.4164    2.3651 C   0  0  0  0  0
   -0.4413    0.5797    2.3686 C   0  0  0  0  0
    0.3846   -0.7126    2.3249 C   0  0  0  0  0
    1.8851   -0.4573    2.3315 C   0  0  0  0  0
    2.2038    0.0340    3.2565 H   0  0  0  0  0
    2.1787    0.1739    1.4870 H   0  0  0  0  0
    2.4281   -1.4033    2.2504 H   0  0  0  0  0
    0.1260   -1.2698    1.4168 H   0  0  0  0  0
    0.1221   -1.3514    3.1767 H   0  0  0  0  0
   -0.1451    1.1623    3.2514 H   0  0  0  0  0
   -0.1695    1.1912    1.4973 H   0  0  0  0  0
   -2.2619   -0.1669    1.4824 H   0  0  0  0  0
   -2.2510   -0.1895    3.2366 H   0  0  0  0  0
   -2.4986    2.2912    3.2912 H   0  0  0  0  0
   -2.5225    2.3207    1.5377 H   0  0  0  0  0
   -4.6249    1.0201    3.3201 H   0  0  0  0  0
   -4.7737    2.5439    2.4637 H   0  0  0  0  0
   -4.5228   -0.1892    1.1703 H   0  0  0  0  0
   -6.0089    0.7240    1.3281 H   0  0  0  0  0
   -5.0327    2.5304   -0.1842 H   0  0  0  0  0
   -3.6095   -0.0081   -1.1230 H   0  0  0  0  0
   -4.1784    2.7162   -2.4654 H   0  0  0  0  0
   -3.9884    0.0837   -3.5326 H   0  0  0  0  0
  1  2  1  0  0  0
  1 43  1  0  0  0
  2  3  1  0  0  0
  2 16  1  0  0  0
  2 42  1  0  0  0
  3  4  3  0  0  0
  4  5  1  0  0  0
  5  6  3  0  0  0
  6  7  1  0  0  0
  7  8  1  0  0  0
  7 10  1  0  0  0
  7 15  1  0  0  0
  8  9  1  0  0  0
 10 11  2  0  0  0
 10 14  1  0  0  0
 11 12  1  0  0  0
 11 13  1  0  0  0
 16 17  2  0  0  0
 16 41  1  0  0  0
 17 18  1  0  0  0
 17 40  1  0  0  0
 18 19  1  0  0  0
 18 38  1  0  0  0
 18 39  1  0  0  0
 19 20  1  0  0  0
 19 36  1  0  0  0
 19 37  1  0  0  0
 20 21  1  0  0  0
 20 34  1  0  0  0
 20 35  1  0  0  0
 21 22  1  0  0  0
 21 32  1  0  0  0
 21 33  1  0  0  0
 22 23  1  0  0  0
 22 30  1  0  0  0
 22 31  1  0  0  0
 23 24  1  0  0  0
 23 28  1  0  0  0
 23 29  1  0  0  0
 24 25  1  0  0  0
 24 26  1  0  0  0
 24 27  1  0  0  0
M  END
> <Tumorigenic>
none

> <Score>
34.602245

> <Active/Decoy>
active

> <InChI>
InChI=1S/C17H24O2/c1-3-5-6-7-8-9-10-14-17(19)15-12-11-13-16(18)4-2/h4,10,14,16-19H,2-3,5-9H2,1H3/b14-10-/t16-,17+/m1/s1

> <Matching Features>
H:14924486185440016873||HBA:14924321692640012300|HBA:14924486112070016868

> <Mol. Index>
929

> <Pharmacophore Match>
Model -1

> <# Confs.>
25

> <Source Database>
Pharm-Screening-input-NANPDB_After_DataWarror.ldb

> <Pharmacophore-Fit Score>
34.6

> <formula>
C17H24O2

> <Mutagenic>
none

> <Reproductive Effective>
none

> <Irritant>
none

$$$$
jaeschkeanadiol p-methoxybenzoate
XX    ILIB03122402123D

 59 61  0  0  1  0              1 V2000
    0.8548    0.5867   -4.8201 O   0  0  0  0  0
    0.3146    0.7168   -3.7403 C   0  0  0  0  0
    0.9154    0.8740   -2.5437 O   0  0  0  0  0
    2.3495    0.8929   -2.5180 C   0  0  2  0  0
    2.8709    0.3288   -1.1741 C   0  0  1  0  0
    4.4167    0.1938   -1.0093 C   0  0  2  0  0
    5.0685    1.3923   -1.4346 O   0  0  0  0  0
    6.0058    1.3419   -1.1801 H   0  0  0  0  0
    5.0260   -0.9835   -1.7932 C   0  0  0  0  0
    6.5315   -1.1084   -1.5358 C   0  0  0  0  0
    6.9481   -1.9635   -2.0771 H   0  0  0  0  0
    7.0678   -0.2162   -1.8717 H   0  0  0  0  0
    6.7388   -1.2493   -0.4683 H   0  0  0  0  0
    4.3385   -2.3061   -1.4382 C   0  0  0  0  0
    4.7926   -3.1381   -1.9876 H   0  0  0  0  0
    4.4243   -2.5218   -0.3681 H   0  0  0  0  0
    3.2757   -2.2853   -1.6973 H   0  0  0  0  0
    4.8833   -0.8084   -2.8684 H   0  0  0  0  0
    4.5853    0.0938    0.5112 C   0  0  0  0  0
    3.6138    1.1503    1.0295 C   0  0  0  0  0
    2.3530    1.0072    0.1421 C   0  0  1  0  0
    1.6130    2.3488   -0.0192 C   0  0  0  0  0
    2.3260    3.4478   -0.7371 C   0  0  0  0  0
    2.8183    3.4376   -1.9858 C   0  0  0  0  0
    2.8019    2.2841   -2.9606 C   0  0  0  0  0
    3.8150    2.1867   -3.3720 H   0  0  0  0  0
    2.1700    2.5906   -3.8058 H   0  0  0  0  0
    3.4652    4.6858   -2.5340 C   0  0  0  0  0
    3.4566    5.5132   -1.8171 H   0  0  0  0  0
    4.5102    4.4880   -2.7956 H   0  0  0  0  0
    2.9372    5.0207   -3.4324 H   0  0  0  0  0
    2.4097    4.3704   -0.1633 H   0  0  0  0  0
    1.3798    2.7278    0.9866 H   0  0  0  0  0
    0.6316    2.2082   -0.4877 H   0  0  0  0  0
    1.3708    0.0416    0.8545 C   0  0  0  0  0
    1.0300    0.4564    1.8095 H   0  0  0  0  0
    1.8366   -0.9272    1.0670 H   0  0  0  0  0
    0.4843   -0.1438    0.2369 H   0  0  0  0  0
    3.4056    1.0100    2.0965 H   0  0  0  0  0
    4.0688    2.1420    0.9216 H   0  0  0  0  0
    5.6030    0.3177    0.8444 H   0  0  0  0  0
    4.3033   -0.8950    0.8905 H   0  0  0  0  0
    2.4722   -0.6950   -1.1381 H   0  0  0  0  0
    2.6919    0.2011   -3.3075 H   0  0  0  0  0
   -1.1576    0.7035   -3.5638 C   0  0  0  0  0
   -1.7660    0.8544   -2.3144 C   0  0  0  0  0
   -3.1595    0.8550   -2.2118 C   0  0  0  0  0
   -3.9601    0.6968   -3.3470 C   0  0  0  0  0
   -5.3068    0.7057   -3.1155 O   0  0  0  0  0
   -6.1235    0.5445   -4.2719 C   0  0  0  0  0
   -5.9715    1.3666   -4.9800 H   0  0  0  0  0
   -7.1686    0.5705   -3.9486 H   0  0  0  0  0
   -5.9459   -0.4243   -4.7509 H   0  0  0  0  0
   -3.3513    0.5464   -4.5956 C   0  0  0  0  0
   -1.9568    0.5546   -4.7026 C   0  0  0  0  0
   -1.5130    0.4285   -5.6878 H   0  0  0  0  0
   -3.9300    0.4212   -5.5043 H   0  0  0  0  0
   -3.6165    0.9733   -1.2327 H   0  0  0  0  0
   -1.1843    0.9986   -1.4083 H   0  0  0  0  0
  1  2  2  0  0  0
  2  3  1  0  0  0
  2 45  1  0  0  0
  3  4  1  0  0  0
  4  5  1  0  0  0
  4 25  1  0  0  0
  4 44  1  0  0  0
  5  6  1  0  0  0
  5 21  1  0  0  0
  5 43  1  0  0  0
  6  7  1  0  0  0
  6  9  1  0  0  0
  6 19  1  0  0  0
  7  8  1  0  0  0
  9 10  1  0  0  0
  9 14  1  0  0  0
  9 18  1  0  0  0
 10 11  1  0  0  0
 10 12  1  0  0  0
 10 13  1  0  0  0
 14 15  1  0  0  0
 14 16  1  0  0  0
 14 17  1  0  0  0
 19 20  1  0  0  0
 19 41  1  0  0  0
 19 42  1  0  0  0
 20 21  1  0  0  0
 20 39  1  0  0  0
 20 40  1  0  0  0
 21 22  1  0  0  0
 21 35  1  0  0  0
 22 23  1  0  0  0
 22 33  1  0  0  0
 22 34  1  0  0  0
 23 24  2  0  0  0
 23 32  1  0  0  0
 24 25  1  0  0  0
 24 28  1  0  0  0
 25 26  1  0  0  0
 25 27  1  0  0  0
 28 29  1  0  0  0
 28 30  1  0  0  0
 28 31  1  0  0  0
 35 36  1  0  0  0
 35 37  1  0  0  0
 35 38  1  0  0  0
 45 46  2  0  0  0
 45 55  1  0  0  0
 46 47  1  0  0  0
 46 59  1  0  0  0
 47 48  2  0  0  0
 47 58  1  0  0  0
 48 49  1  0  0  0
 48 54  1  0  0  0
 49 50  1  0  0  0
 50 51  1  0  0  0
 50 52  1  0  0  0
 50 53  1  0  0  0
 54 55  2  0  0  0
 54 57  1  0  0  0
 55 56  1  0  0  0
M  END
> <Tumorigenic>
none

> <Score>
34.599983

> <Active/Decoy>
active

> <InChI>
InChI=1S/C23H32O4/c1-15(2)23(25)13-12-22(4)11-10-16(3)14-19(20(22)23)27-21(24)17-6-8-18(26-5)9-7-17/h6-10,15,19-20,25H,11-14H2,1-5H3/t19-,20+,22+,23+/m0/s1

> <Matching Features>
H:14924486185440016873||HBA:14924321692640012300|HBA:14924486112070016868

> <Mol. Index>
887

> <Pharmacophore Match>
Model -1

> <# Confs.>
25

> <Source Database>
Pharm-Screening-input-NANPDB_After_DataWarror.ldb

> <Pharmacophore-Fit Score>
34.6

> <formula>
C23H32O4

> <Mutagenic>
none

> <Reproductive Effective>
none

> <Irritant>
none

$$$$
ottelione B
XX    ILIB03122402123D

 45 47  0  0  1  0              1 V2000
    3.3757    1.5434   -2.3959 O   0  0  0  0  0
    3.1302    1.1419   -1.2630 C   0  0  0  0  0
    4.2355    0.9368   -0.2837 C   0  0  0  0  0
    3.9791    0.3652    0.9026 C   0  0  0  0  0
    2.6768   -0.1732    1.2849 C   0  0  0  0  0
    2.4109   -0.4790    2.5627 C   0  0  0  0  0
    1.4556   -0.8837    2.8720 H   0  0  0  0  0
    3.1454   -0.3259    3.3472 H   0  0  0  0  0
    1.7267   -0.3586    0.1207 C   0  0  2  0  0
    1.7240    0.9157   -0.7368 C   0  0  2  0  0
    0.6548    0.6162   -1.7916 C   0  0  2  0  0
    0.1101    1.8166   -2.5425 C   0  0  0  0  0
   -0.9640    1.4599   -3.5335 C   0  0  0  0  0
   -2.3249    1.4449   -3.1747 C   0  0  0  0  0
   -3.3110    1.1184   -4.1132 C   0  0  0  0  0
   -4.6537    1.0754   -3.8623 O   0  0  0  0  0
   -5.0324    1.3905   -2.5246 C   0  0  0  0  0
   -4.6083    0.6714   -1.8155 H   0  0  0  0  0
   -6.1228    1.3181   -2.4625 H   0  0  0  0  0
   -4.7500    2.4145   -2.2629 H   0  0  0  0  0
   -2.9219    0.8132   -5.4208 C   0  0  0  0  0
   -3.8426    0.4883   -6.3789 O   0  0  0  0  0
   -4.7241    0.5086   -5.9677 H   0  0  0  0  0
   -1.5805    0.8284   -5.7947 C   0  0  0  0  0
   -0.6056    1.1522   -4.8523 C   0  0  0  0  0
    0.4379    1.1623   -5.1569 H   0  0  0  0  0
   -1.2876    0.5898   -6.8136 H   0  0  0  0  0
   -2.5902    1.6975   -2.1515 H   0  0  0  0  0
   -0.3293    2.5268   -1.8131 H   0  0  0  0  0
    0.9132    2.3515   -3.0375 H   0  0  0  0  0
   -0.4204   -0.1900   -1.0060 C   0  0  0  0  0
    0.2216   -0.6001    0.3398 C   0  0  1  0  0
   -0.1159   -2.0177    0.6951 C   0  0  0  0  0
    0.7417   -3.0361    0.8302 C   0  0  0  0  0
    0.3761   -4.0252    1.0901 H   0  0  0  0  0
    1.8094   -2.9213    0.6881 H   0  0  0  0  0
   -1.1703   -2.2372    0.8593 H   0  0  0  0  0
   -0.1484    0.0833    1.1173 H   0  0  0  0  0
   -0.7299   -1.0569   -1.6030 H   0  0  0  0  0
   -1.3270    0.3949   -0.8144 H   0  0  0  0  0
    1.0855   -0.0585   -2.5379 H   0  0  0  0  0
    1.4495    1.7918   -0.1334 H   0  0  0  0  0
    2.1282   -1.1946   -0.4770 H   0  0  0  0  0
    4.7869    0.2900    1.6272 H   0  0  0  0  0
    5.2225    1.2984   -0.5429 H   0  0  0  0  0
  1  2  2  0  0  0
  2  3  1  0  0  0
  2 10  1  0  0  0
  3  4  2  0  0  0
  3 45  1  0  0  0
  4  5  1  0  0  0
  4 44  1  0  0  0
  5  6  2  0  0  0
  5  9  1  0  0  0
  6  7  1  0  0  0
  6  8  1  0  0  0
  9 10  1  0  0  0
  9 32  1  0  0  0
  9 43  1  0  0  0
 10 11  1  0  0  0
 10 42  1  0  0  0
 11 12  1  0  0  0
 11 31  1  0  0  0
 11 41  1  0  0  0
 12 13  1  0  0  0
 12 29  1  0  0  0
 12 30  1  0  0  0
 13 14  2  0  0  0
 13 25  1  0  0  0
 14 15  1  0  0  0
 14 28  1  0  0  0
 15 16  1  0  0  0
 15 21  2  0  0  0
 16 17  1  0  0  0
 17 18  1  0  0  0
 17 19  1  0  0  0
 17 20  1  0  0  0
 21 22  1  0  0  0
 21 24  1  0  0  0
 22 23  1  0  0  0
 24 25  2  0  0  0
 24 27  1  0  0  0
 25 26  1  0  0  0
 31 32  1  0  0  0
 31 39  1  0  0  0
 31 40  1  0  0  0
 32 33  1  0  0  0
 32 38  1  0  0  0
 33 34  2  0  0  0
 33 37  1  0  0  0
 34 35  1  0  0  0
 34 36  1  0  0  0
M  END
> <Tumorigenic>
none

> <Score>
34.592415

> <Active/Decoy>
active

> <InChI>
InChI=1S/C20H22O3/c1-4-14-11-15(20-17(22)7-5-12(2)19(14)20)9-13-6-8-16(21)18(10-13)23-3/h4-8,10,14-15,19-21H,1-2,9,11H2,3H3/t14-,15-,19+,20-/m1/s1

> <Matching Features>
H:14924486185440016873||HBA:14924321692640012300|HBA:14924486112070016868

> <Mol. Index>
559

> <Pharmacophore Match>
Model -1

> <# Confs.>
25

> <Source Database>
Pharm-Screening-input-NANPDB_After_DataWarror.ldb

> <Pharmacophore-Fit Score>
34.59

> <formula>
C20H22O3

> <Mutagenic>
none

> <Reproductive Effective>
none

> <Irritant>
none

$$$$
3-oxo-4beta,15-dihydrocostic acid
XX    ILIB03122402123D

 40 41  0  0  1  0              1 V2000
    4.4693    1.5055   -1.9308 O   0  0  0  0  0
    3.5869    1.0363   -1.2130 C   0  0  0  0  0
    2.1830    1.6398   -1.1234 C   0  0  2  0  0
    1.1439    0.4994   -1.2656 C   0  0  1  0  0
    1.3683   -0.6272   -0.2076 C   0  0  2  0  0
    2.8008   -1.1884   -0.3847 C   0  0  0  0  0
    3.8866   -0.1235   -0.2903 C   0  0  0  0  0
    3.9907    0.2635    0.7279 H   0  0  0  0  0
    4.8498   -0.5599   -0.5750 H   0  0  0  0  0
    2.9986   -1.9700    0.3593 H   0  0  0  0  0
    2.8795   -1.6720   -1.3681 H   0  0  0  0  0
    0.3566   -1.7703   -0.4718 C   0  0  0  0  0
   -1.0968   -1.2974   -0.4821 C   0  0  0  0  0
   -1.3249   -0.1459   -1.4776 C   0  0  1  0  0
   -2.7197    0.3775   -1.4798 C   0  0  0  0  0
   -3.3345    0.8227   -2.7502 C   0  0  0  0  0
   -4.5311    0.7655   -3.0119 O   0  0  0  0  0
   -2.3932    1.2831   -3.5972 O   0  0  0  0  0
   -2.7767    1.5848   -4.4486 H   0  0  0  0  0
   -3.5070    0.4561   -0.4071 C   0  0  0  0  0
   -3.1483    0.1444    0.5684 H   0  0  0  0  0
   -4.5215    0.8378   -0.4619 H   0  0  0  0  0
   -0.3170    0.9939   -1.2556 C   0  0  0  0  0
   -0.5375    1.5219   -0.3275 H   0  0  0  0  0
   -0.4556    1.7261   -2.0678 H   0  0  0  0  0
   -1.1286   -0.5721   -2.4859 H   0  0  0  0  0
   -1.7396   -2.1483   -0.7420 H   0  0  0  0  0
   -1.3904   -0.9902    0.5279 H   0  0  0  0  0
    0.4722   -2.5596    0.2819 H   0  0  0  0  0
    0.5746   -2.2383   -1.4408 H   0  0  0  0  0
    1.1944   -0.1311    1.2482 C   0  0  0  0  0
    0.2029    0.2904    1.4327 H   0  0  0  0  0
    1.3302   -0.9587    1.9550 H   0  0  0  0  0
    1.9187    0.6408    1.5205 H   0  0  0  0  0
    1.3112    0.0462   -2.2555 H   0  0  0  0  0
    2.0173    2.7419   -2.1726 C   0  0  0  0  0
    2.0246    2.3293   -3.1868 H   0  0  0  0  0
    2.8308    3.4730   -2.1074 H   0  0  0  0  0
    1.0845    3.2948   -2.0290 H   0  0  0  0  0
    2.1011    2.1149   -0.1393 H   0  0  0  0  0
  1  2  2  0  0  0
  2  3  1  0  0  0
  2  7  1  0  0  0
  3  4  1  0  0  0
  3 36  1  0  0  0
  3 40  1  0  0  0
  4  5  1  0  0  0
  4 23  1  0  0  0
  4 35  1  0  0  0
  5  6  1  0  0  0
  5 12  1  0  0  0
  5 31  1  0  0  0
  6  7  1  0  0  0
  6 10  1  0  0  0
  6 11  1  0  0  0
  7  8  1  0  0  0
  7  9  1  0  0  0
 12 13  1  0  0  0
 12 29  1  0  0  0
 12 30  1  0  0  0
 13 14  1  0  0  0
 13 27  1  0  0  0
 13 28  1  0  0  0
 14 15  1  0  0  0
 14 23  1  0  0  0
 14 26  1  0  0  0
 15 16  1  0  0  0
 15 20  2  0  0  0
 16 17  2  0  0  0
 16 18  1  0  0  0
 18 19  1  0  0  0
 20 21  1  0  0  0
 20 22  1  0  0  0
 23 24  1  0  0  0
 23 25  1  0  0  0
 31 32  1  0  0  0
 31 33  1  0  0  0
 31 34  1  0  0  0
 36 37  1  0  0  0
 36 38  1  0  0  0
 36 39  1  0  0  0
M  END
> <Tumorigenic>
none

> <Score>
34.576534

> <Active/Decoy>
active

> <InChI>
InChI=1S/C15H22O3/c1-9(14(17)18)11-4-6-15(3)7-5-13(16)10(2)12(15)8-11/h10-12H,1,4-8H2,2-3H3,(H,17,18)/t10-,11+,12-,15-/m0/s1

> <Matching Features>
H:14924486185440016873||HBA:14924321692640012300|HBA:14924486112070016868

> <Mol. Index>
1270

> <Pharmacophore Match>
Model -1

> <# Confs.>
25

> <Source Database>
Pharm-Screening-input-NANPDB_After_DataWarror.ldb

> <Pharmacophore-Fit Score>
34.58

> <formula>
C15H22O3

> <Mutagenic>
none

> <Reproductive Effective>
none

> <Irritant>
none

$$$$
3alpha-acetyl-gamma-costic acid
XX    ILIB03122402123D

 45 46  0  0  1  0              1 V2000
    3.9261    1.1654   -1.2245 O   0  0  0  0  0
    2.9807    0.4206   -1.0154 C   0  0  0  0  0
    2.7024   -0.6747   -1.7626 O   0  0  0  0  0
    1.9145   -1.1972   -1.4995 H   0  0  0  0  0
    1.9935    0.5832    0.0774 C   0  0  0  0  0
    2.3069   -0.0204    1.2212 C   0  0  0  0  0
    1.6522    0.0528    2.0834 H   0  0  0  0  0
    3.2135   -0.6058    1.3368 H   0  0  0  0  0
    0.7833    1.4220   -0.1494 C   0  0  1  0  0
   -0.5446    0.6372    0.0275 C   0  0  0  0  0
   -1.7801    1.5006   -0.1830 C   0  0  0  0  0
   -2.7986    1.1608   -1.0117 C   0  0  0  0  0
   -4.0305    2.0285   -1.1990 C   0  0  2  0  0
   -3.9245    2.6367   -2.4949 O   0  0  0  0  0
   -4.4671    1.9545   -3.5267 C   0  0  0  0  0
   -5.0373    0.8734   -3.4632 O   0  0  0  0  0
   -4.2823    2.7325   -4.7934 C   0  0  0  0  0
   -4.8508    3.6649   -4.7415 H   0  0  0  0  0
   -4.6500    2.1437   -5.6402 H   0  0  0  0  0
   -3.2205    2.9348   -4.9556 H   0  0  0  0  0
   -4.1973    3.1158   -0.1372 C   0  0  0  0  0
   -2.8679    3.8003    0.1407 C   0  0  0  0  0
   -1.7865    2.8039    0.6333 C   0  0  2  0  0
   -0.4239    3.5338    0.5083 C   0  0  0  0  0
    0.7906    2.6451    0.7643 C   0  0  0  0  0
    1.6981    3.2375    0.5911 H   0  0  0  0  0
    0.8203    2.3379    1.8169 H   0  0  0  0  0
   -0.3216    3.9513   -0.5027 H   0  0  0  0  0
   -0.3913    4.3879    1.1959 H   0  0  0  0  0
   -2.0628    2.4617    2.1160 C   0  0  0  0  0
   -1.2852    1.8273    2.5514 H   0  0  0  0  0
   -3.0115    1.9283    2.2396 H   0  0  0  0  0
   -2.1141    3.3715    2.7256 H   0  0  0  0  0
   -3.0157    4.5990    0.8786 H   0  0  0  0  0
   -2.5376    4.2984   -0.7812 H   0  0  0  0  0
   -4.9217    3.8685   -0.4711 H   0  0  0  0  0
   -4.5941    2.6782    0.7849 H   0  0  0  0  0
   -4.9262    1.3929   -1.1631 H   0  0  0  0  0
   -2.8422   -0.1114   -1.8248 C   0  0  0  0  0
   -2.4372    0.0670   -2.8259 H   0  0  0  0  0
   -3.8725   -0.4678   -1.9358 H   0  0  0  0  0
   -2.2987   -0.9373   -1.3606 H   0  0  0  0  0
   -0.5196   -0.2066   -0.6775 H   0  0  0  0  0
   -0.5967    0.1963    1.0244 H   0  0  0  0  0
    0.8035    1.7714   -1.1980 H   0  0  0  0  0
  1  2  2  0  0  0
  2  3  1  0  0  0
  2  5  1  0  0  0
  3  4  1  0  0  0
  5  6  2  0  0  0
  5  9  1  0  0  0
  6  7  1  0  0  0
  6  8  1  0  0  0
  9 10  1  0  0  0
  9 25  1  0  0  0
  9 45  1  0  0  0
 10 11  1  0  0  0
 10 43  1  0  0  0
 10 44  1  0  0  0
 11 12  2  0  0  0
 11 23  1  0  0  0
 12 13  1  0  0  0
 12 39  1  0  0  0
 13 14  1  0  0  0
 13 21  1  0  0  0
 13 38  1  0  0  0
 14 15  1  0  0  0
 15 16  2  0  0  0
 15 17  1  0  0  0
 17 18  1  0  0  0
 17 19  1  0  0  0
 17 20  1  0  0  0
 21 22  1  0  0  0
 21 36  1  0  0  0
 21 37  1  0  0  0
 22 23  1  0  0  0
 22 34  1  0  0  0
 22 35  1  0  0  0
 23 24  1  0  0  0
 23 30  1  0  0  0
 24 25  1  0  0  0
 24 28  1  0  0  0
 24 29  1  0  0  0
 25 26  1  0  0  0
 25 27  1  0  0  0
 30 31  1  0  0  0
 30 32  1  0  0  0
 30 33  1  0  0  0
 39 40  1  0  0  0
 39 41  1  0  0  0
 39 42  1  0  0  0
M  END
> <Tumorigenic>
none

> <Score>
34.58366

> <Active/Decoy>
active

> <InChI>
InChI=1S/C17H24O4/c1-10(16(19)20)13-5-7-17(4)8-6-15(21-12(3)18)11(2)14(17)9-13/h13,15H,1,5-9H2,2-4H3,(H,19,20)/t13-,15-,17+/m1/s1

> <Matching Features>
H:14924486185440016873||HBA:14924321692640012300|HBA:14924486112070016868

> <Mol. Index>
1069

> <Pharmacophore Match>
Model -1

> <# Confs.>
25

> <Source Database>
Pharm-Screening-input-NANPDB_After_DataWarror.ldb

> <Pharmacophore-Fit Score>
34.58

> <formula>
C17H24O4

> <Mutagenic>
none

> <Reproductive Effective>
none

> <Irritant>
none

$$$$
methyl-12-oxo-8alpha,15-dihydroxyabiet-13-en-19-oate
XX    ILIB03122402123D

 58 60  0  0  1  0              1 V2000
   -4.0157   -1.0741   -0.8982 O   0  0  0  0  0
   -3.1092   -0.2473   -0.7984 C   0  0  0  0  0
   -3.3053    1.1715   -1.2629 C   0  0  0  0  0
   -2.2757    2.0240   -1.1068 C   0  0  0  0  0
   -0.9046    1.6696   -0.5734 C   0  0  1  0  0
   -0.9052    2.0247    0.8108 O   0  0  0  0  0
   -1.0513    2.9831    0.8825 H   0  0  0  0  0
   -0.6354    0.1532   -0.7503 C   0  0  1  0  0
    0.8108   -0.2979   -0.2915 C   0  0  2  0  0
    1.8263    0.5800   -1.1182 C   0  0  2  0  0
    3.3221    0.1330   -1.0955 C   0  0  2  0  0
    4.0743    0.8562   -2.1672 C   0  0  0  0  0
    5.0276    1.5899   -1.9642 O   0  0  0  0  0
    3.5368    0.5538   -3.3867 O   0  0  0  0  0
    4.1577    1.2030   -4.5019 C   0  0  0  0  0
    5.2120    0.9181   -4.5685 H   0  0  0  0  0
    3.6479    0.8767   -5.4118 H   0  0  0  0  0
    4.0554    2.2883   -4.4100 H   0  0  0  0  0
    3.4387   -1.3876   -1.3650 C   0  0  0  0  0
    2.4910   -2.2469   -0.5368 C   0  0  0  0  0
    1.0372   -1.7901   -0.6629 C   0  0  0  0  0
    0.4204   -2.4404   -0.0316 H   0  0  0  0  0
    0.7118   -1.9627   -1.6973 H   0  0  0  0  0
    2.8086   -2.2569    0.5098 H   0  0  0  0  0
    2.5649   -3.2857   -0.8795 H   0  0  0  0  0
    3.2240   -1.5940   -2.4219 H   0  0  0  0  0
    4.4705   -1.7269   -1.2062 H   0  0  0  0  0
    4.0397    0.4669    0.2419 C   0  0  0  0  0
    3.6768   -0.1164    1.0864 H   0  0  0  0  0
    3.9477    1.5279    0.4958 H   0  0  0  0  0
    5.1140    0.2546    0.1700 H   0  0  0  0  0
    1.6023    2.0801   -0.8898 C   0  0  0  0  0
    0.1812    2.4947   -1.2854 C   0  0  0  0  0
    0.0635    3.5617   -1.0538 H   0  0  0  0  0
    0.0767    2.3920   -2.3734 H   0  0  0  0  0
    2.3016    2.6687   -1.4942 H   0  0  0  0  0
    1.7929    2.3552    0.1511 H   0  0  0  0  0
    1.5232    0.4098   -2.1731 H   0  0  0  0  0
    0.9677   -0.1582    1.2418 C   0  0  0  0  0
    1.1032    0.8744    1.5677 H   0  0  0  0  0
    1.8139   -0.7214    1.6353 H   0  0  0  0  0
    0.0991   -0.5585    1.7729 H   0  0  0  0  0
   -1.8003   -0.6328   -0.1370 C   0  0  0  0  0
   -1.9090   -0.4595    0.9377 H   0  0  0  0  0
   -1.6629   -1.7059   -0.3018 H   0  0  0  0  0
   -0.6805   -0.0462   -1.8347 H   0  0  0  0  0
   -2.4105    3.0691   -1.3751 H   0  0  0  0  0
   -4.6491    1.5481   -1.8343 C   0  0  0  0  0
   -4.8633    0.7081   -2.9733 O   0  0  0  0  0
   -5.7497    0.8912   -3.3207 H   0  0  0  0  0
   -4.7527    3.0041   -2.2987 C   0  0  0  0  0
   -4.0089    3.2300   -3.0706 H   0  0  0  0  0
   -5.7303    3.1944   -2.7577 H   0  0  0  0  0
   -4.6263    3.7108   -1.4713 H   0  0  0  0  0
   -5.7473    1.2452   -0.8093 C   0  0  0  0  0
   -5.7412    0.1864   -0.5258 H   0  0  0  0  0
   -5.6310    1.8472    0.0985 H   0  0  0  0  0
   -6.7377    1.4432   -1.2311 H   0  0  0  0  0
  1  2  2  0  0  0
  2  3  1  0  0  0
  2 43  1  0  0  0
  3  4  2  0  0  0
  3 48  1  0  0  0
  4  5  1  0  0  0
  4 47  1  0  0  0
  5  6  1  0  0  0
  5  8  1  0  0  0
  5 33  1  0  0  0
  6  7  1  0  0  0
  8  9  1  0  0  0
  8 43  1  0  0  0
  8 46  1  0  0  0
  9 10  1  0  0  0
  9 21  1  0  0  0
  9 39  1  0  0  0
 10 11  1  0  0  0
 10 32  1  0  0  0
 10 38  1  0  0  0
 11 12  1  0  0  0
 11 19  1  0  0  0
 11 28  1  0  0  0
 12 13  2  0  0  0
 12 14  1  0  0  0
 14 15  1  0  0  0
 15 16  1  0  0  0
 15 17  1  0  0  0
 15 18  1  0  0  0
 19 20  1  0  0  0
 19 26  1  0  0  0
 19 27  1  0  0  0
 20 21  1  0  0  0
 20 24  1  0  0  0
 20 25  1  0  0  0
 21 22  1  0  0  0
 21 23  1  0  0  0
 28 29  1  0  0  0
 28 30  1  0  0  0
 28 31  1  0  0  0
 32 33  1  0  0  0
 32 36  1  0  0  0
 32 37  1  0  0  0
 33 34  1  0  0  0
 33 35  1  0  0  0
 39 40  1  0  0  0
 39 41  1  0  0  0
 39 42  1  0  0  0
 43 44  1  0  0  0
 43 45  1  0  0  0
 48 49  1  0  0  0
 48 51  1  0  0  0
 48 55  1  0  0  0
 49 50  1  0  0  0
 51 52  1  0  0  0
 51 53  1  0  0  0
 51 54  1  0  0  0
 55 56  1  0  0  0
 55 57  1  0  0  0
 55 58  1  0  0  0
M  END
> <Tumorigenic>
none

> <Score>
34.583977

> <Active/Decoy>
active

> <InChI>
InChI=1S/C21H32O5/c1-18(2,24)13-12-21(25)10-7-15-19(3,16(21)11-14(13)22)8-6-9-20(15,4)17(23)26-5/h12,15-16,24-25H,6-11H2,1-5H3/t15-,16-,19+,20?,21-/m1/s1

> <Matching Features>
H:14924486185440016873||HBA:14924321692640012300|HBA:14924486112070016868

> <Mol. Index>
1026

> <Pharmacophore Match>
Model -1

> <# Confs.>
14

> <Source Database>
Pharm-Screening-input-NANPDB_After_DataWarror.ldb

> <Pharmacophore-Fit Score>
34.58

> <formula>
C21H32O5

> <Mutagenic>
none

> <Reproductive Effective>
none

> <Irritant>
none

$$$$
tanzawaic acid G
XX    ILIB03122402123D

 44 45  0  0  1  0              1 V2000
   -3.3502    2.6759   -2.6679 O   0  0  0  0  0
   -3.5703    1.4751   -2.6557 C   0  0  0  0  0
   -4.5829    0.8797   -3.3275 O   0  0  0  0  0
   -5.1232    1.5271   -3.8298 H   0  0  0  0  0
   -2.7800    0.4695   -1.9241 C   0  0  0  0  0
   -1.7139    0.6978   -1.1545 C   0  0  0  0  0
   -1.0451    1.9316   -0.8614 C   0  0  0  0  0
    0.0274    2.1882   -0.0950 C   0  0  0  0  0
    0.8703    1.2345    0.6243 C   0  0  0  0  0
    0.5838    0.8342    1.9640 C   0  0  0  0  0
    1.3314   -0.2318    2.5156 C   0  0  0  0  0
    2.4217   -0.7672    1.8139 C   0  0  0  0  0
    2.7468   -0.3087    0.5443 C   0  0  0  0  0
    1.9676    0.6704   -0.0771 C   0  0  0  0  0
    2.3481    1.0893   -1.4640 C   0  0  0  0  0
    3.7523    1.2796   -1.5811 O   0  0  0  0  0
    4.0766    1.6950   -0.7643 H   0  0  0  0  0
    1.8493    2.0262   -1.7354 H   0  0  0  0  0
    2.0385    0.3350   -2.1949 H   0  0  0  0  0
    3.5996   -0.7462    0.0310 H   0  0  0  0  0
    3.0199   -1.5616    2.2550 H   0  0  0  0  0
    1.0139   -0.8525    3.8574 C   0  0  0  0  0
   -0.4074   -0.5610    4.3445 C   0  0  2  0  0
   -1.3605   -1.2994    3.5810 O   0  0  0  0  0
   -1.2326   -1.1000    2.6393 H   0  0  0  0  0
   -0.6713    0.9356    4.2284 C   0  0  0  0  0
   -0.5362    1.4815    2.7871 C   0  0  1  0  0
   -0.3866    3.0086    2.9232 C   0  0  0  0  0
   -1.1430    3.4121    3.6062 H   0  0  0  0  0
   -0.5166    3.5381    1.9777 H   0  0  0  0  0
    0.6011    3.2736    3.3174 H   0  0  0  0  0
   -1.4818    1.2623    2.2747 H   0  0  0  0  0
    0.0268    1.4666    4.8915 H   0  0  0  0  0
   -1.6826    1.1691    4.5870 H   0  0  0  0  0
   -0.5709   -1.0192    5.7948 C   0  0  0  0  0
   -0.3943   -2.0978    5.8850 H   0  0  0  0  0
    0.1192   -0.4996    6.4675 H   0  0  0  0  0
   -1.5943   -0.8427    6.1468 H   0  0  0  0  0
    1.7487   -0.4735    4.5783 H   0  0  0  0  0
    1.1427   -1.9397    3.7794 H   0  0  0  0  0
    0.3257    3.2299    0.0236 H   0  0  0  0  0
   -1.5022    2.8132   -1.3373 H   0  0  0  0  0
   -1.2715   -0.1805   -0.6682 H   0  0  0  0  0
   -3.1279   -0.5587   -2.0111 H   0  0  0  0  0
  1  2  2  0  0  0
  2  3  1  0  0  0
  2  5  1  0  0  0
  3  4  1  0  0  0
  5  6  2  0  0  0
  5 44  1  0  0  0
  6  7  1  0  0  0
  6 43  1  0  0  0
  7  8  2  0  0  0
  7 42  1  0  0  0
  8  9  1  0  0  0
  8 41  1  0  0  0
  9 10  2  0  0  0
  9 14  1  0  0  0
 10 11  1  0  0  0
 10 27  1  0  0  0
 11 12  2  0  0  0
 11 22  1  0  0  0
 12 13  1  0  0  0
 12 21  1  0  0  0
 13 14  2  0  0  0
 13 20  1  0  0  0
 14 15  1  0  0  0
 15 16  1  0  0  0
 15 18  1  0  0  0
 15 19  1  0  0  0
 16 17  1  0  0  0
 22 23  1  0  0  0
 22 39  1  0  0  0
 22 40  1  0  0  0
 23 24  1  0  0  0
 23 26  1  0  0  0
 23 35  1  0  0  0
 24 25  1  0  0  0
 26 27  1  0  0  0
 26 33  1  0  0  0
 26 34  1  0  0  0
 27 28  1  0  0  0
 27 32  1  0  0  0
 28 29  1  0  0  0
 28 30  1  0  0  0
 28 31  1  0  0  0
 35 36  1  0  0  0
 35 37  1  0  0  0
 35 38  1  0  0  0
M  END
> <Tumorigenic>
none

> <Score>
34.576084

> <Active/Decoy>
active

> <InChI>
InChI=1S/C18H22O4/c1-12-9-18(2,22)10-13-7-8-14(11-19)15(17(12)13)5-3-4-6-16(20)21/h3-8,12,19,22H,9-11H2,1-2H3,(H,20,21)/b5-3+,6-4+/t12-,18-/m1/s1

> <Matching Features>
H:14924486185440016873||HBA:14924321692640012300|HBA:14924486112070016868

> <Mol. Index>
845

> <Pharmacophore Match>
Model -1

> <# Confs.>
25

> <Source Database>
Pharm-Screening-input-NANPDB_After_DataWarror.ldb

> <Pharmacophore-Fit Score>
34.58

> <formula>
C18H22O4

> <Mutagenic>
none

> <Reproductive Effective>
none

> <Irritant>
none

$$$$
epieuphoscopin D
XX    ILIB03122402123D

 73 74  0  0  1  0              1 V2000
    2.0095    3.8839   -3.8755 O   0  0  0  0  0
    2.0594    3.5749   -2.6894 C   0  0  0  0  0
    0.8901    2.9625   -2.0011 C   0  0  0  0  0
    0.6202    1.6947   -2.3530 C   0  0  0  0  0
   -0.3746    0.7938   -1.6461 C   0  0  2  0  0
    0.1639   -0.6490   -1.3609 C   0  0  2  0  0
   -0.7227   -1.1557   -0.3483 O   0  0  0  0  0
   -1.0307   -2.4809   -0.3981 C   0  0  0  0  0
   -0.3155   -3.3767   -0.8270 O   0  0  0  0  0
   -2.3925   -2.7047    0.1858 C   0  0  0  0  0
   -2.7526   -3.6954   -0.1042 H   0  0  0  0  0
   -2.3402   -2.6439    1.2745 H   0  0  0  0  0
   -3.0952   -1.9654   -0.2070 H   0  0  0  0  0
    1.6581   -0.7496   -0.9008 C   0  0  2  0  0
    1.9594   -2.1284   -0.6295 O   0  0  0  0  0
    2.9549   -2.7029   -1.3606 C   0  0  0  0  0
    3.6231   -2.1598   -2.2299 O   0  0  0  0  0
    3.1454   -4.1228   -0.9239 C   0  0  0  0  0
    3.7285   -4.6587   -1.6792 H   0  0  0  0  0
    3.6805   -4.1479    0.0281 H   0  0  0  0  0
    2.1766   -4.6217   -0.8325 H   0  0  0  0  0
    2.0824    0.1082    0.3291 C   0  0  2  0  0
    3.5779   -0.0259    0.5628 C   0  0  0  0  0
    4.5559    0.8922    0.4456 C   0  0  0  0  0
    4.4871    2.3625    0.0532 C   0  0  0  0  0
    3.9166    2.4722   -1.3772 C   0  0  0  0  0
    3.2981    3.7807   -1.8394 C   0  0  0  0  0
    4.0511    4.3171   -2.4258 H   0  0  0  0  0
    3.0275    4.4271   -1.0040 H   0  0  0  0  0
    4.0472    1.5507   -2.1901 O   0  0  0  0  0
    5.9156    2.9353   -0.0168 C   0  0  0  0  0
    5.9053    3.9885   -0.3204 H   0  0  0  0  0
    6.4202    2.8716    0.9531 H   0  0  0  0  0
    6.5302    2.3981   -0.7491 H   0  0  0  0  0
    3.7082    3.1406    1.1216 C   0  0  0  0  0
    4.0493    2.8809    2.1307 H   0  0  0  0  0
    2.6336    2.9466    1.0765 H   0  0  0  0  0
    3.8442    4.2232    1.0145 H   0  0  0  0  0
    5.5570    0.5260    0.6795 H   0  0  0  0  0
    3.9022   -1.0189    0.8742 H   0  0  0  0  0
    1.3647   -0.2557    1.6310 C   0  0  0  0  0
    0.3043    0.0065    1.5837 H   0  0  0  0  0
    1.4462   -1.3246    1.8592 H   0  0  0  0  0
    1.7844    0.2972    2.4784 H   0  0  0  0  0
    1.8463    1.1511    0.1145 H   0  0  0  0  0
    2.2825   -0.4232   -1.7446 H   0  0  0  0  0
   -0.0743   -1.3920   -2.7059 C   0  0  0  0  0
   -1.1546   -0.6025   -3.4722 C   0  0  2  0  0
   -1.6174    0.4878   -2.4910 C   0  0  2  0  0
   -2.1096    1.6213   -3.2410 O   0  0  0  0  0
   -3.4503    1.6811   -3.4735 C   0  0  0  0  0
   -4.2790    0.8453   -3.1358 O   0  0  0  0  0
   -3.7955    2.9483   -4.2056 C   0  0  0  0  0
   -5.0004    2.7369   -5.1015 C   0  0  0  0  0
   -4.8218    1.9296   -5.8187 H   0  0  0  0  0
   -5.2236    3.6508   -5.6624 H   0  0  0  0  0
   -5.8856    2.4702   -4.5146 H   0  0  0  0  0
   -3.9795    3.7642   -3.4983 H   0  0  0  0  0
   -2.9248    3.2367   -4.8047 H   0  0  0  0  0
   -2.4198    0.0904   -1.8598 H   0  0  0  0  0
   -2.3030   -1.4757   -3.9588 C   0  0  0  0  0
   -2.8028   -1.9800   -3.1251 H   0  0  0  0  0
   -3.0508   -0.8756   -4.4877 H   0  0  0  0  0
   -1.9377   -2.2443   -4.6474 H   0  0  0  0  0
   -0.6988   -0.1408   -4.3585 H   0  0  0  0  0
    0.8332   -1.3920   -3.3192 H   0  0  0  0  0
   -0.3671   -2.4408   -2.5716 H   0  0  0  0  0
   -0.6965    1.2554   -0.7139 H   0  0  0  0  0
    1.2022    1.2368   -3.1512 H   0  0  0  0  0
    0.2062    3.7916   -0.9652 C   0  0  0  0  0
    0.7341    3.7338   -0.0102 H   0  0  0  0  0
   -0.8293    3.4821   -0.8047 H   0  0  0  0  0
    0.1759    4.8420   -1.2747 H   0  0  0  0  0
  1  2  2  0  0  0
  2  3  1  0  0  0
  2 27  1  0  0  0
  3  4  2  0  0  0
  3 70  1  0  0  0
  4  5  1  0  0  0
  4 69  1  0  0  0
  5  6  1  0  0  0
  5 49  1  0  0  0
  5 68  1  0  0  0
  6  7  1  0  0  0
  6 14  1  0  0  0
  6 47  1  0  0  0
  7  8  1  0  0  0
  8  9  2  0  0  0
  8 10  1  0  0  0
 10 11  1  0  0  0
 10 12  1  0  0  0
 10 13  1  0  0  0
 14 15  1  0  0  0
 14 22  1  0  0  0
 14 46  1  0  0  0
 15 16  1  0  0  0
 16 17  2  0  0  0
 16 18  1  0  0  0
 18 19  1  0  0  0
 18 20  1  0  0  0
 18 21  1  0  0  0
 22 23  1  0  0  0
 22 41  1  0  0  0
 22 45  1  0  0  0
 23 24  2  0  0  0
 23 40  1  0  0  0
 24 25  1  0  0  0
 24 39  1  0  0  0
 25 26  1  0  0  0
 25 31  1  0  0  0
 25 35  1  0  0  0
 26 27  1  0  0  0
 26 30  2  0  0  0
 27 28  1  0  0  0
 27 29  1  0  0  0
 31 32  1  0  0  0
 31 33  1  0  0  0
 31 34  1  0  0  0
 35 36  1  0  0  0
 35 37  1  0  0  0
 35 38  1  0  0  0
 41 42  1  0  0  0
 41 43  1  0  0  0
 41 44  1  0  0  0
 47 48  1  0  0  0
 47 66  1  0  0  0
 47 67  1  0  0  0
 48 49  1  0  0  0
 48 61  1  0  0  0
 48 65  1  0  0  0
 49 50  1  0  0  0
 49 60  1  0  0  0
 50 51  1  0  0  0
 51 52  2  0  0  0
 51 53  1  0  0  0
 53 54  1  0  0  0
 53 58  1  0  0  0
 53 59  1  0  0  0
 54 55  1  0  0  0
 54 56  1  0  0  0
 54 57  1  0  0  0
 61 62  1  0  0  0
 61 63  1  0  0  0
 61 64  1  0  0  0
 70 71  1  0  0  0
 70 72  1  0  0  0
 70 73  1  0  0  0
M  END
> <Tumorigenic>
none

> <Score>
34.57576

> <Active/Decoy>
active

> <InChI>
InChI=1S/C27H38O8/c1-9-23(32)34-24-17(4)14-27(35-19(6)29)20(24)12-16(3)21(30)13-22(31)26(7,8)11-10-15(2)25(27)33-18(5)28/h10-12,15,17,20,24-25H,9,13-14H2,1-8H3/b11-10+,16-12-/t15-,17+,20-,24-,25+,27-/m0/s1

> <Matching Features>
H:14924486185440016873||HBA:14924321692640012300|HBA:14924486112070016868

> <Mol. Index>
496

> <Pharmacophore Match>
Model -1

> <# Confs.>
25

> <Source Database>
Pharm-Screening-input-NANPDB_After_DataWarror.ldb

> <Pharmacophore-Fit Score>
34.58

> <formula>
C27H38O8

> <Mutagenic>
none

> <Reproductive Effective>
none

> <Irritant>
none

$$$$
3alpha-hydroxyilicic acid
XX    ILIB03122402123D

 43 44  0  0  1  0              1 V2000
   -4.6643    0.7463   -3.0064 O   0  0  0  0  0
   -3.7652   -0.0003   -2.6115 C   0  0  0  0  0
   -3.4729   -1.1870   -3.1570 O   0  0  0  0  0
   -4.0652   -1.4082   -3.9070 H   0  0  0  0  0
   -2.8697    0.3062   -1.4928 C   0  0  0  0  0
   -3.3738    1.0673   -0.5176 C   0  0  0  0  0
   -2.7835    1.3360    0.3522 H   0  0  0  0  0
   -4.3846    1.4580   -0.5692 H   0  0  0  0  0
   -1.4730   -0.2625   -1.4876 C   0  0  1  0  0
   -0.4030    0.8432   -1.4599 C   0  0  0  0  0
    1.0262    0.2577   -1.4444 C   0  0  1  0  0
    2.1471    1.3374   -1.5993 C   0  0  2  0  0
    2.2211    1.5992   -3.0147 O   0  0  0  0  0
    2.8722    2.3060   -3.1550 H   0  0  0  0  0
    3.5209    0.8093   -1.1229 C   0  0  2  0  0
    4.5870    1.4707   -1.8006 O   0  0  0  0  0
    4.5743    1.1792   -2.7285 H   0  0  0  0  0
    3.6481   -0.6973   -1.3047 C   0  0  0  0  0
    2.6286   -1.4636   -0.4551 C   0  0  0  0  0
    1.2527   -0.7510   -0.2794 C   0  0  2  0  0
    0.1368   -1.8324   -0.3259 C   0  0  0  0  0
   -1.2784   -1.2534   -0.3319 C   0  0  0  0  0
   -1.9963   -2.0773   -0.4255 H   0  0  0  0  0
   -1.4867   -0.7743    0.6322 H   0  0  0  0  0
    0.2403   -2.5202    0.5225 H   0  0  0  0  0
    0.2552   -2.4423   -1.2309 H   0  0  0  0  0
    1.2097   -0.0775    1.1114 C   0  0  0  0  0
    2.0624    0.5826    1.2857 H   0  0  0  0  0
    1.2351   -0.8319    1.9072 H   0  0  0  0  0
    0.3052    0.5172    1.2622 H   0  0  0  0  0
    3.0693   -1.6627    0.5306 H   0  0  0  0  0
    2.5004   -2.4509   -0.9171 H   0  0  0  0  0
    4.6628   -1.0279   -1.0542 H   0  0  0  0  0
    3.5167   -0.9515   -2.3642 H   0  0  0  0  0
    3.6646    1.0340   -0.0605 H   0  0  0  0  0
    1.8500    2.6863   -0.9299 C   0  0  0  0  0
    1.6675    2.5841    0.1429 H   0  0  0  0  0
    0.9867    3.1814   -1.3889 H   0  0  0  0  0
    2.6899    3.3785   -1.0631 H   0  0  0  0  0
    1.0758   -0.3504   -2.3639 H   0  0  0  0  0
   -0.5587    1.4898   -0.5888 H   0  0  0  0  0
   -0.5250    1.4779   -2.3468 H   0  0  0  0  0
   -1.3390   -0.8322   -2.4182 H   0  0  0  0  0
  1  2  2  0  0  0
  2  3  1  0  0  0
  2  5  1  0  0  0
  3  4  1  0  0  0
  5  6  2  0  0  0
  5  9  1  0  0  0
  6  7  1  0  0  0
  6  8  1  0  0  0
  9 10  1  0  0  0
  9 22  1  0  0  0
  9 43  1  0  0  0
 10 11  1  0  0  0
 10 41  1  0  0  0
 10 42  1  0  0  0
 11 12  1  0  0  0
 11 20  1  0  0  0
 11 40  1  0  0  0
 12 13  1  0  0  0
 12 15  1  0  0  0
 12 36  1  0  0  0
 13 14  1  0  0  0
 15 16  1  0  0  0
 15 18  1  0  0  0
 15 35  1  0  0  0
 16 17  1  0  0  0
 18 19  1  0  0  0
 18 33  1  0  0  0
 18 34  1  0  0  0
 19 20  1  0  0  0
 19 31  1  0  0  0
 19 32  1  0  0  0
 20 21  1  0  0  0
 20 27  1  0  0  0
 21 22  1  0  0  0
 21 25  1  0  0  0
 21 26  1  0  0  0
 22 23  1  0  0  0
 22 24  1  0  0  0
 27 28  1  0  0  0
 27 29  1  0  0  0
 27 30  1  0  0  0
 36 37  1  0  0  0
 36 38  1  0  0  0
 36 39  1  0  0  0
M  END
> <Tumorigenic>
none

> <Score>
34.574482

> <Active/Decoy>
active

> <InChI>
InChI=1S/C15H24O4/c1-9(13(17)18)10-4-6-14(2)7-5-12(16)15(3,19)11(14)8-10/h10-12,16,19H,1,4-8H2,2-3H3,(H,17,18)/t10-,11-,12-,14+,15+/m1/s1

> <Matching Features>
H:14924486185440016873||HBA:14924321692640012300|HBA:14924486112070016868

> <Mol. Index>
1139

> <Pharmacophore Match>
Model -1

> <# Confs.>
25

> <Source Database>
Pharm-Screening-input-NANPDB_After_DataWarror.ldb

> <Pharmacophore-Fit Score>
34.57

> <formula>
C15H24O4

> <Mutagenic>
none

> <Reproductive Effective>
none

> <Irritant>
none

$$$$
3beta-methoxy isocostic acid
XX    ILIB03122402123D

 43 44  0  0  1  0              1 V2000
   -4.7359    0.7374   -3.0071 O   0  0  0  0  0
   -3.6076    0.3056   -2.8268 C   0  0  0  0  0
   -3.1029   -0.7863   -3.4449 O   0  0  0  0  0
   -3.7500   -1.1947   -4.0588 H   0  0  0  0  0
   -2.6117    0.8780   -1.9044 C   0  0  0  0  0
   -3.0043    1.9810   -1.2463 C   0  0  0  0  0
   -2.3502    2.4929   -0.5495 H   0  0  0  0  0
   -3.9959    2.4083   -1.3603 H   0  0  0  0  0
   -1.2401    0.2751   -1.8111 C   0  0  1  0  0
   -0.1262    1.2698   -1.4498 C   0  0  0  0  0
    1.2399    0.6044   -1.3676 C   0  0  0  0  0
    2.3235    1.0175   -2.0705 C   0  0  0  0  0
    3.7043    0.4063   -1.8856 C   0  0  1  0  0
    4.6549    1.4595   -1.7487 O   0  0  0  0  0
    5.9436    1.1120   -2.2350 C   0  0  0  0  0
    6.3760    0.2949   -1.6487 H   0  0  0  0  0
    6.5923    1.9868   -2.1377 H   0  0  0  0  0
    5.8937    0.8326   -3.2916 H   0  0  0  0  0
    3.8193   -0.5183   -0.6711 C   0  0  0  0  0
    2.5943   -1.4062   -0.5558 C   0  0  0  0  0
    1.2924   -0.5805   -0.3915 C   0  0  2  0  0
    0.1117   -1.5497   -0.6683 C   0  0  0  0  0
   -1.2545   -0.8712   -0.7690 C   0  0  0  0  0
   -1.5570   -0.4896    0.2141 H   0  0  0  0  0
   -1.9991   -1.6275   -1.0469 H   0  0  0  0  0
    0.2855   -2.0791   -1.6154 H   0  0  0  0  0
    0.0700   -2.3222    0.1096 H   0  0  0  0  0
    1.2136   -0.0571    1.0612 C   0  0  0  0  0
    2.0056    0.6686    1.2733 H   0  0  0  0  0
    0.2623    0.4386    1.2770 H   0  0  0  0  0
    1.3158   -0.8785    1.7800 H   0  0  0  0  0
    2.5402   -2.0311   -1.4578 H   0  0  0  0  0
    2.7185   -2.0983    0.2860 H   0  0  0  0  0
    4.7160   -1.1418   -0.7669 H   0  0  0  0  0
    3.9680    0.0663    0.2452 H   0  0  0  0  0
    3.9289   -0.1617   -2.8000 H   0  0  0  0  0
    2.2734    2.1020   -3.1217 C   0  0  0  0  0
    3.0151    1.9109   -3.9056 H   0  0  0  0  0
    2.4930    3.0753   -2.6737 H   0  0  0  0  0
    1.3116    2.1509   -3.6372 H   0  0  0  0  0
   -0.1395    2.0850   -2.1894 H   0  0  0  0  0
   -0.3359    1.7532   -0.4953 H   0  0  0  0  0
   -0.9935   -0.1703   -2.7854 H   0  0  0  0  0
  1  2  2  0  0  0
  2  3  1  0  0  0
  2  5  1  0  0  0
  3  4  1  0  0  0
  5  6  2  0  0  0
  5  9  1  0  0  0
  6  7  1  0  0  0
  6  8  1  0  0  0
  9 10  1  0  0  0
  9 23  1  0  0  0
  9 43  1  0  0  0
 10 11  1  0  0  0
 10 41  1  0  0  0
 10 42  1  0  0  0
 11 12  2  0  0  0
 11 21  1  0  0  0
 12 13  1  0  0  0
 12 37  1  0  0  0
 13 14  1  0  0  0
 13 19  1  0  0  0
 13 36  1  0  0  0
 14 15  1  0  0  0
 15 16  1  0  0  0
 15 17  1  0  0  0
 15 18  1  0  0  0
 19 20  1  0  0  0
 19 34  1  0  0  0
 19 35  1  0  0  0
 20 21  1  0  0  0
 20 32  1  0  0  0
 20 33  1  0  0  0
 21 22  1  0  0  0
 21 28  1  0  0  0
 22 23  1  0  0  0
 22 26  1  0  0  0
 22 27  1  0  0  0
 23 24  1  0  0  0
 23 25  1  0  0  0
 28 29  1  0  0  0
 28 30  1  0  0  0
 28 31  1  0  0  0
 37 38  1  0  0  0
 37 39  1  0  0  0
 37 40  1  0  0  0
M  END
> <Tumorigenic>
none

> <Score>
34.574017

> <Active/Decoy>
active

> <InChI>
InChI=1S/C16H24O3/c1-10(15(17)18)12-5-7-16(3)8-6-14(19-4)11(2)13(16)9-12/h12,14H,1,5-9H2,2-4H3,(H,17,18)/t12-,14+,16+/m1/s1

> <Matching Features>
H:14924486185440016873||HBA:14924321692640012300|HBA:14924486112070016868

> <Mol. Index>
1067

> <Pharmacophore Match>
Model -1

> <# Confs.>
25

> <Source Database>
Pharm-Screening-input-NANPDB_After_DataWarror.ldb

> <Pharmacophore-Fit Score>
34.57

> <formula>
C16H24O3

> <Mutagenic>
none

> <Reproductive Effective>
none

> <Irritant>
none

$$$$
4-O-methyl guaiacylglycerol 8-O-beta-glucopyranoside
XX    ILIB03122402123D

 53 54  0  0  1  0              1 V2000
   -1.2139    2.9072   -2.9536 O   0  0  0  0  0
   -0.5869    1.9543   -2.0894 C   0  0  2  0  0
    0.8132    2.2201   -1.9531 O   0  0  0  0  0
    1.4800    1.3459   -1.0288 C   0  0  2  0  0
    0.8901    1.4674    0.3764 C   0  0  2  0  0
    1.0224    2.8169    0.8151 O   0  0  0  0  0
    0.7738    2.8564    1.7544 H   0  0  0  0  0
    1.5214    0.5488    1.3785 C   0  0  0  0  0
    2.6144    0.9852    2.1340 C   0  0  0  0  0
    3.2295    0.1207    3.0442 C   0  0  0  0  0
    4.2708    0.6142    3.7772 O   0  0  0  0  0
    5.5649    0.3918    3.2231 C   0  0  0  0  0
    5.7819   -0.6781    3.1450 H   0  0  0  0  0
    6.2990    0.8339    3.9044 H   0  0  0  0  0
    5.6700    0.8862    2.2517 H   0  0  0  0  0
    2.7478   -1.1804    3.2443 C   0  0  0  0  0
    3.3922   -1.9202    4.1948 O   0  0  0  0  0
    2.8770   -3.2460    4.3742 C   0  0  0  0  0
    1.8364   -3.2225    4.7154 H   0  0  0  0  0
    3.4724   -3.7277    5.1554 H   0  0  0  0  0
    2.9773   -3.8398    3.4612 H   0  0  0  0  0
    1.6614   -1.6173    2.4810 C   0  0  0  0  0
    1.0588   -0.7608    1.5533 C   0  0  0  0  0
    0.2168   -1.1255    0.9697 H   0  0  0  0  0
    1.2530   -2.6188    2.5836 H   0  0  0  0  0
    2.9923    1.9979    2.0111 H   0  0  0  0  0
   -0.2053    1.2624    0.3326 H   0  0  0  0  0
    2.9616    1.7074   -1.0469 C   0  0  0  0  0
    3.4942    1.5413   -2.3508 O   0  0  0  0  0
    4.4352    1.7821   -2.3076 H   0  0  0  0  0
    3.5224    1.0780   -0.3471 H   0  0  0  0  0
    3.1011    2.7483   -0.7362 H   0  0  0  0  0
    1.3645    0.3095   -1.3896 H   0  0  0  0  0
   -0.7458    0.5172   -2.5942 C   0  0  2  0  0
   -0.1523    0.4097   -3.8902 O   0  0  0  0  0
    0.7722    0.7018   -3.8114 H   0  0  0  0  0
   -2.2220    0.1333   -2.7068 C   0  0  1  0  0
   -2.5950   -0.5691   -1.5197 O   0  0  0  0  0
   -3.5259   -0.8314   -1.6138 H   0  0  0  0  0
   -3.1283    1.3657   -2.8418 C   0  0  2  0  0
   -4.3204    0.9890   -3.5249 O   0  0  0  0  0
   -4.7524    0.2936   -3.0015 H   0  0  0  0  0
   -2.4145    2.4793   -3.6110 C   0  0  1  0  0
   -3.2901    3.7047   -3.7876 C   0  0  0  0  0
   -3.5954    4.2698   -2.5228 O   0  0  0  0  0
   -4.1548    5.0485   -2.6845 H   0  0  0  0  0
   -4.2247    3.4510   -4.3018 H   0  0  0  0  0
   -2.7759    4.4565   -4.3968 H   0  0  0  0  0
   -2.1288    2.1229   -4.6095 H   0  0  0  0  0
   -3.4234    1.7285   -1.8499 H   0  0  0  0  0
   -2.3754   -0.5566   -3.5451 H   0  0  0  0  0
   -0.2044   -0.1769   -1.9414 H   0  0  0  0  0
   -1.0471    2.0366   -1.0956 H   0  0  0  0  0
  1  2  1  0  0  0
  1 43  1  0  0  0
  2  3  1  0  0  0
  2 34  1  0  0  0
  2 53  1  0  0  0
  3  4  1  0  0  0
  4  5  1  0  0  0
  4 28  1  0  0  0
  4 33  1  0  0  0
  5  6  1  0  0  0
  5  8  1  0  0  0
  5 27  1  0  0  0
  6  7  1  0  0  0
  8  9  2  0  0  0
  8 23  1  0  0  0
  9 10  1  0  0  0
  9 26  1  0  0  0
 10 11  1  0  0  0
 10 16  2  0  0  0
 11 12  1  0  0  0
 12 13  1  0  0  0
 12 14  1  0  0  0
 12 15  1  0  0  0
 16 17  1  0  0  0
 16 22  1  0  0  0
 17 18  1  0  0  0
 18 19  1  0  0  0
 18 20  1  0  0  0
 18 21  1  0  0  0
 22 23  2  0  0  0
 22 25  1  0  0  0
 23 24  1  0  0  0
 28 29  1  0  0  0
 28 31  1  0  0  0
 28 32  1  0  0  0
 29 30  1  0  0  0
 34 35  1  0  0  0
 34 37  1  0  0  0
 34 52  1  0  0  0
 35 36  1  0  0  0
 37 38  1  0  0  0
 37 40  1  0  0  0
 37 51  1  0  0  0
 38 39  1  0  0  0
 40 41  1  0  0  0
 40 43  1  0  0  0
 40 50  1  0  0  0
 41 42  1  0  0  0
 43 44  1  0  0  0
 43 49  1  0  0  0
 44 45  1  0  0  0
 44 47  1  0  0  0
 44 48  1  0  0  0
 45 46  1  0  0  0
M  END
> <Tumorigenic>
none

> <Score>
34.568604

> <Active/Decoy>
active

> <InChI>
InChI=1S/C17H26O10/c1-24-9-4-3-8(5-10(9)25-2)13(20)11(6-18)26-17-16(23)15(22)14(21)12(7-19)27-17/h3-5,11-23H,6-7H2,1-2H3/t11-,12+,13+,14+,15-,16+,17-/m0/s1

> <Matching Features>
H:14924486185440016873||HBA:14924321692640012300|HBA:14924486112070016868

> <Mol. Index>
529

> <Pharmacophore Match>
Model -1

> <# Confs.>
25

> <Source Database>
Pharm-Screening-input-NANPDB_After_DataWarror.ldb

> <Pharmacophore-Fit Score>
34.57

> <formula>
C17H26O10

> <Mutagenic>
none

> <Reproductive Effective>
none

> <Irritant>
none

$$$$
d-cyclocapillarol
XX    ILIB03122402123D

 37 38  0  0  1  0              1 V2000
   -6.1952    0.8803   -3.8688 O   0  0  0  0  0
   -5.1704    1.5333   -3.9842 C   0  0  0  0  0
   -5.0150    2.6990   -4.6568 O   0  0  0  0  0
   -6.1965    3.1982   -5.2926 C   0  0  0  0  0
   -6.9779    3.3810   -4.5494 H   0  0  0  0  0
   -5.9463    4.1441   -5.7797 H   0  0  0  0  0
   -6.5413    2.4906   -6.0519 H   0  0  0  0  0
   -3.8657    1.1737   -3.3984 C   0  0  0  0  0
   -3.6524    0.0829   -2.6737 C   0  0  0  0  0
   -2.3778   -0.2921   -2.0704 C   0  0  0  0  0
   -1.3370    0.6258   -1.8606 C   0  0  0  0  0
   -0.1418    0.1835   -1.3185 C   0  0  0  0  0
    0.0327   -1.1423   -0.9621 C   0  0  0  0  0
    1.2555   -1.4022   -0.3984 O   0  0  0  0  0
    2.0342   -0.2070   -0.6885 C   0  0  2  0  0
    3.0423    0.0306    0.4596 C   0  0  1  0  0
    3.8983    1.2664    0.2400 C   0  0  0  0  0
    4.6525    1.1560   -0.9570 O   0  0  0  0  0
    5.2748    0.4174   -0.8486 H   0  0  0  0  0
    3.2653    2.1570    0.1642 H   0  0  0  0  0
    4.5812    1.4367    1.0801 H   0  0  0  0  0
    2.3098    0.1764    1.8019 C   0  0  0  0  0
    3.0207    0.3608    2.6138 H   0  0  0  0  0
    1.6012    1.0108    1.7780 H   0  0  0  0  0
    1.7580   -0.7330    2.0584 H   0  0  0  0  0
    3.7038   -0.8418    0.5383 H   0  0  0  0  0
    1.0630    0.9600   -0.9448 C   0  0  0  0  0
    0.8646    1.5560   -0.0490 H   0  0  0  0  0
    1.4187    1.6089   -1.7497 H   0  0  0  0  0
    2.5961   -0.4175   -1.6105 H   0  0  0  0  0
   -0.9685   -2.0762   -1.1253 C   0  0  0  0  0
   -2.1734   -1.6497   -1.6909 C   0  0  0  0  0
   -2.9612   -2.3850   -1.8431 H   0  0  0  0  0
   -0.8298   -3.1113   -0.8341 H   0  0  0  0  0
   -1.4446    1.6723   -2.1284 H   0  0  0  0  0
   -4.4756   -0.6213   -2.4668 H   0  0  0  0  0
   -3.0645    1.8759   -3.6082 H   0  0  0  0  0
  1  2  2  0  0  0
  2  3  1  0  0  0
  2  8  1  0  0  0
  3  4  1  0  0  0
  4  5  1  0  0  0
  4  6  1  0  0  0
  4  7  1  0  0  0
  8  9  2  0  0  0
  8 37  1  0  0  0
  9 10  1  0  0  0
  9 36  1  0  0  0
 10 11  2  0  0  0
 10 32  1  0  0  0
 11 12  1  0  0  0
 11 35  1  0  0  0
 12 13  2  0  0  0
 12 27  1  0  0  0
 13 14  1  0  0  0
 13 31  1  0  0  0
 14 15  1  0  0  0
 15 16  1  0  0  0
 15 27  1  0  0  0
 15 30  1  0  0  0
 16 17  1  0  0  0
 16 22  1  0  0  0
 16 26  1  0  0  0
 17 18  1  0  0  0
 17 20  1  0  0  0
 17 21  1  0  0  0
 18 19  1  0  0  0
 22 23  1  0  0  0
 22 24  1  0  0  0
 22 25  1  0  0  0
 27 28  1  0  0  0
 27 29  1  0  0  0
 31 32  2  0  0  0
 31 34  1  0  0  0
 32 33  1  0  0  0
M  END
> <Tumorigenic>
none

> <Score>
34.57396

> <Active/Decoy>
active

> <InChI>
InChI=1S/C15H18O4/c1-10(9-16)14-8-12-7-11(3-5-13(12)19-14)4-6-15(17)18-2/h3-7,10,14,16H,8-9H2,1-2H3/b6-4+/t10-,14+/m1/s1

> <Matching Features>
H:14924486185440016873||HBA:14924321692640012300|HBA:14924486112070016868

> <Mol. Index>
426

> <Pharmacophore Match>
Model -1

> <# Confs.>
25

> <Source Database>
Pharm-Screening-input-NANPDB_After_DataWarror.ldb

> <Pharmacophore-Fit Score>
34.57

> <formula>
C15H18O4

> <Mutagenic>
none

> <Reproductive Effective>
none

> <Irritant>
none

$$$$
3-oxo-eudesma-4,11(13)-dien-12-oic acid
XX    ILIB03122402123D

 38 39  0  0  1  0              1 V2000
    4.3719    1.5380   -2.0483 O   0  0  0  0  0
    3.4607    1.0139   -1.4071 C   0  0  0  0  0
    2.0507    1.5176   -1.5136 C   0  0  0  0  0
    1.0473    0.8411   -0.9060 C   0  0  0  0  0
    1.2577   -0.4713   -0.1356 C   0  0  2  0  0
    2.6262   -1.1122   -0.4713 C   0  0  0  0  0
    3.7573   -0.1076   -0.4468 C   0  0  0  0  0
    4.6837   -0.6016   -0.7627 H   0  0  0  0  0
    3.9229    0.3125    0.5496 H   0  0  0  0  0
    2.5912   -1.5582   -1.4753 H   0  0  0  0  0
    2.8474   -1.9333    0.2217 H   0  0  0  0  0
    0.1789   -1.5185   -0.5192 C   0  0  0  0  0
   -1.2521   -0.9904   -0.4715 C   0  0  0  0  0
   -1.4062    0.2631   -1.3467 C   0  0  1  0  0
   -2.7932    0.8063   -1.3781 C   0  0  0  0  0
   -3.3193    1.4415   -2.5897 C   0  0  0  0  0
   -2.8387    2.4031   -3.1528 O   0  0  0  0  0
   -4.4311    0.7843   -3.0275 O   0  0  0  0  0
   -4.7272    0.0154   -2.4941 H   0  0  0  0  0
   -3.6388    0.7695   -0.3322 C   0  0  0  0  0
   -3.3448    0.3216    0.6114 H   0  0  0  0  0
   -4.6418    1.1797   -0.3934 H   0  0  0  0  0
   -0.3949    1.3335   -0.9126 C   0  0  0  0  0
   -0.5147    2.1942   -1.5923 H   0  0  0  0  0
   -0.6453    1.7037    0.0801 H   0  0  0  0  0
   -1.1590   -0.0452   -2.3864 H   0  0  0  0  0
   -1.5337   -0.7716    0.5654 H   0  0  0  0  0
   -1.9297   -1.7806   -0.8193 H   0  0  0  0  0
    0.2573   -2.3951    0.1363 H   0  0  0  0  0
    0.3638   -1.8832   -1.5389 H   0  0  0  0  0
    1.1918   -0.1825    1.3813 C   0  0  0  0  0
    1.9273    0.5699    1.6836 H   0  0  0  0  0
    1.3897   -1.0905    1.9623 H   0  0  0  0  0
    0.2112    0.1915    1.6909 H   0  0  0  0  0
    1.8951    2.8095   -2.2708 C   0  0  0  0  0
    1.1172    3.4511   -1.8486 H   0  0  0  0  0
    1.6611    2.6052   -3.3198 H   0  0  0  0  0
    2.8102    3.4106   -2.2388 H   0  0  0  0  0
  1  2  2  0  0  0
  2  3  1  0  0  0
  2  7  1  0  0  0
  3  4  2  0  0  0
  3 35  1  0  0  0
  4  5  1  0  0  0
  4 23  1  0  0  0
  5  6  1  0  0  0
  5 12  1  0  0  0
  5 31  1  0  0  0
  6  7  1  0  0  0
  6 10  1  0  0  0
  6 11  1  0  0  0
  7  8  1  0  0  0
  7  9  1  0  0  0
 12 13  1  0  0  0
 12 29  1  0  0  0
 12 30  1  0  0  0
 13 14  1  0  0  0
 13 27  1  0  0  0
 13 28  1  0  0  0
 14 15  1  0  0  0
 14 23  1  0  0  0
 14 26  1  0  0  0
 15 16  1  0  0  0
 15 20  2  0  0  0
 16 17  2  0  0  0
 16 18  1  0  0  0
 18 19  1  0  0  0
 20 21  1  0  0  0
 20 22  1  0  0  0
 23 24  1  0  0  0
 23 25  1  0  0  0
 31 32  1  0  0  0
 31 33  1  0  0  0
 31 34  1  0  0  0
 35 36  1  0  0  0
 35 37  1  0  0  0
 35 38  1  0  0  0
M  END
> <Tumorigenic>
none

> <Score>
34.56877

> <Active/Decoy>
active

> <InChI>
InChI=1S/C15H20O3/c1-9(14(17)18)11-4-6-15(3)7-5-13(16)10(2)12(15)8-11/h11H,1,4-8H2,2-3H3,(H,17,18)/t11-,15+/m1/s1

> <Matching Features>
H:14924486185440016873||HBA:14924321692640012300|HBA:14924486112070016868

> <Mol. Index>
388

> <Pharmacophore Match>
Model -1

> <# Confs.>
25

> <Source Database>
Pharm-Screening-input-NANPDB_After_DataWarror.ldb

> <Pharmacophore-Fit Score>
34.57

> <formula>
C15H20O3

> <Mutagenic>
none

> <Reproductive Effective>
none

> <Irritant>
none

$$$$
totarolone
XX    ILIB03122402123D

 50 52  0  0  1  0              1 V2000
   -5.4082    0.9257   -3.7239 O   0  0  0  0  0
   -4.4262    1.3178   -3.0893 C   0  0  0  0  0
   -4.1680    0.9048   -1.6383 C   0  0  0  0  0
   -2.6615    0.4765   -1.4198 C   0  0  1  0  0
   -1.6553    0.9419   -2.5387 C   0  0  2  0  0
   -0.1780    1.0173   -2.0757 C   0  0  0  0  0
    0.2385    0.6665   -0.7670 C   0  0  0  0  0
    1.6160    0.6372   -0.4386 C   0  0  0  0  0
    2.5557    1.0635   -1.4012 C   0  0  0  0  0
    3.8908    1.1095   -1.0906 O   0  0  0  0  0
    4.3852    1.4264   -1.8657 H   0  0  0  0  0
    2.1529    1.4567   -2.6712 C   0  0  0  0  0
    0.8058    1.4157   -3.0048 C   0  0  0  0  0
    0.5318    1.6969   -4.0193 H   0  0  0  0  0
    2.8773    1.7816   -3.4125 H   0  0  0  0  0
    2.1138    0.1701    0.9164 C   0  0  0  0  0
    2.8809    1.2547    1.6477 C   0  0  0  0  0
    2.2681    2.1556    1.7589 H   0  0  0  0  0
    3.1695    0.9198    2.6492 H   0  0  0  0  0
    3.7949    1.5370    1.1138 H   0  0  0  0  0
    2.9556   -1.1121    0.7937 C   0  0  0  0  0
    3.8759   -0.9353    0.2261 H   0  0  0  0  0
    3.2414   -1.4811    1.7853 H   0  0  0  0  0
    2.3998   -1.9093    0.2880 H   0  0  0  0  0
    1.2312   -0.0930    1.5277 H   0  0  0  0  0
   -0.7967    0.2737    0.2563 C   0  0  0  0  0
   -2.1584    0.8805   -0.0287 C   0  0  0  0  0
   -2.0933    1.9713    0.0592 H   0  0  0  0  0
   -2.8521    0.5296    0.7433 H   0  0  0  0  0
   -0.5053    0.6378    1.2474 H   0  0  0  0  0
   -0.8656   -0.8196    0.2981 H   0  0  0  0  0
   -2.1091    2.3307   -3.0556 C   0  0  0  0  0
   -3.4818    2.3170   -3.7155 C   0  0  0  0  0
   -3.9359    3.3117   -3.6640 H   0  0  0  0  0
   -3.3733    2.0493   -4.7735 H   0  0  0  0  0
   -1.4054    2.7501   -3.7838 H   0  0  0  0  0
   -2.1101    3.0451   -2.2223 H   0  0  0  0  0
   -1.6995   -0.1116   -3.6853 C   0  0  0  0  0
   -1.2039   -1.0414   -3.3806 H   0  0  0  0  0
   -1.1949    0.2467   -4.5888 H   0  0  0  0  0
   -2.7188   -0.3815   -3.9757 H   0  0  0  0  0
   -2.6343   -0.6241   -1.4278 H   0  0  0  0  0
   -4.6438    2.0965   -0.7788 C   0  0  0  0  0
   -5.6565    2.4055   -1.0653 H   0  0  0  0  0
   -4.6785    1.8458    0.2865 H   0  0  0  0  0
   -4.0038    2.9746   -0.9013 H   0  0  0  0  0
   -5.0698   -0.2992   -1.2900 C   0  0  0  0  0
   -4.8665   -1.1504   -1.9496 H   0  0  0  0  0
   -4.9143   -0.6267   -0.2560 H   0  0  0  0  0
   -6.1316   -0.0531   -1.4020 H   0  0  0  0  0
  1  2  2  0  0  0
  2  3  1  0  0  0
  2 33  1  0  0  0
  3  4  1  0  0  0
  3 43  1  0  0  0
  3 47  1  0  0  0
  4  5  1  0  0  0
  4 27  1  0  0  0
  4 42  1  0  0  0
  5  6  1  0  0  0
  5 32  1  0  0  0
  5 38  1  0  0  0
  6  7  2  0  0  0
  6 13  1  0  0  0
  7  8  1  0  0  0
  7 26  1  0  0  0
  8  9  2  0  0  0
  8 16  1  0  0  0
  9 10  1  0  0  0
  9 12  1  0  0  0
 10 11  1  0  0  0
 12 13  2  0  0  0
 12 15  1  0  0  0
 13 14  1  0  0  0
 16 17  1  0  0  0
 16 21  1  0  0  0
 16 25  1  0  0  0
 17 18  1  0  0  0
 17 19  1  0  0  0
 17 20  1  0  0  0
 21 22  1  0  0  0
 21 23  1  0  0  0
 21 24  1  0  0  0
 26 27  1  0  0  0
 26 30  1  0  0  0
 26 31  1  0  0  0
 27 28  1  0  0  0
 27 29  1  0  0  0
 32 33  1  0  0  0
 32 36  1  0  0  0
 32 37  1  0  0  0
 33 34  1  0  0  0
 33 35  1  0  0  0
 38 39  1  0  0  0
 38 40  1  0  0  0
 38 41  1  0  0  0
 43 44  1  0  0  0
 43 45  1  0  0  0
 43 46  1  0  0  0
 47 48  1  0  0  0
 47 49  1  0  0  0
 47 50  1  0  0  0
M  END
> <Tumorigenic>
none

> <Score>
34.555874

> <Active/Decoy>
active

> <InChI>
InChI=1S/C20H28O2/c1-12(2)18-13-6-9-16-19(3,4)17(22)10-11-20(16,5)14(13)7-8-15(18)21/h7-8,12,16,21H,6,9-11H2,1-5H3/t16-,20-/m0/s1

> <Matching Features>
H:14924486185440016873||HBA:14924321692640012300|HBA:14924486112070016868

> <Mol. Index>
1015

> <Pharmacophore Match>
Model -1

> <# Confs.>
6

> <Source Database>
Pharm-Screening-input-NANPDB_After_DataWarror.ldb

> <Pharmacophore-Fit Score>
34.56

> <formula>
C20H28O2

> <Mutagenic>
none

> <Reproductive Effective>
none

> <Irritant>
none

$$$$
(E)-1,10-secoeudesma-3,5(10)-dien-6beta,11betaH-12,6-olide-1-oic acid
XX    ILIB03122402123D

 39 40  0  0  1  0              1 V2000
   -4.6090    0.7443   -2.9826 O   0  0  0  0  0
   -3.9184    0.6539   -1.9799 C   0  0  0  0  0
   -2.5991    1.0541   -1.9031 O   0  0  0  0  0
   -2.2014    0.9698   -0.5325 C   0  0  2  0  0
   -0.7266    0.7845   -0.2690 C   0  0  0  0  0
   -0.3359    0.0734    0.8194 C   0  0  0  0  0
    1.0964   -0.1407    1.2386 C   0  0  0  0  0
    1.2279    0.1516    2.2856 H   0  0  0  0  0
    1.8143    0.4446    0.6584 H   0  0  0  0  0
    1.3630   -1.1973    1.1390 H   0  0  0  0  0
   -1.3410   -0.5917    1.7603 C   0  0  0  0  0
   -2.8293   -0.3479    1.4483 C   0  0  0  0  0
   -2.9967   -0.2252   -0.0495 C   0  0  1  0  0
   -4.3563    0.1018   -0.6323 C   0  0  2  0  0
   -5.2572   -1.1109   -0.7623 C   0  0  0  0  0
   -4.8058   -1.8842   -1.3933 H   0  0  0  0  0
   -6.2115   -0.8335   -1.2245 H   0  0  0  0  0
   -5.4701   -1.5476    0.2184 H   0  0  0  0  0
   -4.8568    0.9016   -0.0753 H   0  0  0  0  0
   -2.6250   -1.1455   -0.5289 H   0  0  0  0  0
   -3.1642    0.5698    1.9483 H   0  0  0  0  0
   -3.4360   -1.1674    1.8508 H   0  0  0  0  0
   -1.1593   -1.6744    1.7229 H   0  0  0  0  0
   -1.1476   -0.2751    2.7928 H   0  0  0  0  0
    0.1830    1.4328   -1.2075 C   0  0  0  0  0
    1.3148    0.8232   -1.6143 C   0  0  0  0  0
    2.3599    1.3133   -2.5515 C   0  0  0  0  0
    3.4117    2.1093   -1.8009 C   0  0  0  0  0
    3.2223    3.1045   -1.1318 O   0  0  0  0  0
    4.6451    1.5360   -1.9516 O   0  0  0  0  0
    5.3379    2.0327   -1.4661 H   0  0  0  0  0
    2.8451    0.4972   -3.0770 H   0  0  0  0  0
    1.8853    1.9865   -3.2783 H   0  0  0  0  0
    1.5418   -0.1681   -1.1921 H   0  0  0  0  0
   -0.2692    2.7823   -1.7013 C   0  0  0  0  0
   -0.5187    3.4313   -0.8542 H   0  0  0  0  0
    0.4908    3.3088   -2.2823 H   0  0  0  0  0
   -1.1546    2.6893   -2.3397 H   0  0  0  0  0
   -2.5168    1.9041   -0.0453 H   0  0  0  0  0
  1  2  2  0  0  0
  2  3  1  0  0  0
  2 14  1  0  0  0
  3  4  1  0  0  0
  4  5  1  0  0  0
  4 13  1  0  0  0
  4 39  1  0  0  0
  5  6  2  0  0  0
  5 25  1  0  0  0
  6  7  1  0  0  0
  6 11  1  0  0  0
  7  8  1  0  0  0
  7  9  1  0  0  0
  7 10  1  0  0  0
 11 12  1  0  0  0
 11 23  1  0  0  0
 11 24  1  0  0  0
 12 13  1  0  0  0
 12 21  1  0  0  0
 12 22  1  0  0  0
 13 14  1  0  0  0
 13 20  1  0  0  0
 14 15  1  0  0  0
 14 19  1  0  0  0
 15 16  1  0  0  0
 15 17  1  0  0  0
 15 18  1  0  0  0
 25 26  2  0  0  0
 25 35  1  0  0  0
 26 27  1  0  0  0
 26 34  1  0  0  0
 27 28  1  0  0  0
 27 32  1  0  0  0
 27 33  1  0  0  0
 28 29  2  0  0  0
 28 30  1  0  0  0
 30 31  1  0  0  0
 35 36  1  0  0  0
 35 37  1  0  0  0
 35 38  1  0  0  0
M  END
> <Tumorigenic>
none

> <Score>
34.56304

> <Active/Decoy>
active

> <InChI>
InChI=1S/C15H20O4/c1-8-4-6-11-10(3)15(18)19-14(11)13(8)9(2)5-7-12(16)17/h5,10-11,14H,4,6-7H2,1-3H3,(H,16,17)/b9-5+/t10-,11-,14-/m0/s1

> <Matching Features>
H:14924486185440016873||HBA:14924321692640012300|HBA:14924486112070016868

> <Mol. Index>
366

> <Pharmacophore Match>
Model -1

> <# Confs.>
16

> <Source Database>
Pharm-Screening-input-NANPDB_After_DataWarror.ldb

> <Pharmacophore-Fit Score>
34.56

> <formula>
C15H20O4

> <Mutagenic>
none

> <Reproductive Effective>
none

> <Irritant>
none

$$$$
3-oxo-alpha-costic acid
XX    ILIB03122402123D

 38 39  0  0  1  0              1 V2000
    4.5429    1.4890   -1.8631 O   0  0  0  0  0
    3.5688    0.8782   -1.4247 C   0  0  0  0  0
    3.7684   -0.5013   -0.9124 C   0  0  0  0  0
    2.7518   -1.1871   -0.3765 C   0  0  0  0  0
    1.3353   -0.6644   -0.2690 C   0  0  1  0  0
    1.1022    0.3972   -1.3877 C   0  0  2  0  0
    2.1752    1.5090   -1.3297 C   0  0  2  0  0
    2.0114    2.5522   -2.4378 C   0  0  0  0  0
    1.0868    3.1242   -2.3163 H   0  0  0  0  0
    2.0034    2.0821   -3.4273 H   0  0  0  0  0
    2.8327    3.2776   -2.4244 H   0  0  0  0  0
    2.1267    2.0359   -0.3695 H   0  0  0  0  0
   -0.3491    0.9124   -1.3753 C   0  0  0  0  0
   -1.3665   -0.2495   -1.5259 C   0  0  2  0  0
   -2.7761    0.2665   -1.5046 C   0  0  0  0  0
   -3.6676    0.0238   -2.6521 C   0  0  0  0  0
   -4.5882    0.7509   -2.9928 O   0  0  0  0  0
   -3.3222   -1.1172   -3.2921 O   0  0  0  0  0
   -3.8979   -1.2946   -4.0656 H   0  0  0  0  0
   -3.3288    0.9298   -0.4765 C   0  0  0  0  0
   -2.7685    1.1566    0.4237 H   0  0  0  0  0
   -4.3559    1.2815   -0.4917 H   0  0  0  0  0
   -1.1228   -1.3531   -0.4972 C   0  0  0  0  0
    0.3340   -1.8236   -0.4815 C   0  0  0  0  0
    0.4525   -2.5826    0.3023 H   0  0  0  0  0
    0.5488   -2.3312   -1.4319 H   0  0  0  0  0
   -1.7683   -2.2118   -0.7223 H   0  0  0  0  0
   -1.4091   -1.0138    0.5049 H   0  0  0  0  0
   -1.1798   -0.6915   -2.5223 H   0  0  0  0  0
   -0.5037    1.6032   -2.2209 H   0  0  0  0  0
   -0.5410    1.4902   -0.4709 H   0  0  0  0  0
    1.2370   -0.1130   -2.3559 H   0  0  0  0  0
    1.1779   -0.0999    1.1613 C   0  0  0  0  0
    0.2068    0.3747    1.3225 H   0  0  0  0  0
    1.9444    0.6459    1.3974 H   0  0  0  0  0
    1.2745   -0.8981    1.9083 H   0  0  0  0  0
    2.9591   -2.1751    0.0288 H   0  0  0  0  0
    4.7673   -0.9205   -0.9583 H   0  0  0  0  0
  1  2  2  0  0  0
  2  3  1  0  0  0
  2  7  1  0  0  0
  3  4  2  0  0  0
  3 38  1  0  0  0
  4  5  1  0  0  0
  4 37  1  0  0  0
  5  6  1  0  0  0
  5 24  1  0  0  0
  5 33  1  0  0  0
  6  7  1  0  0  0
  6 13  1  0  0  0
  6 32  1  0  0  0
  7  8  1  0  0  0
  7 12  1  0  0  0
  8  9  1  0  0  0
  8 10  1  0  0  0
  8 11  1  0  0  0
 13 14  1  0  0  0
 13 30  1  0  0  0
 13 31  1  0  0  0
 14 15  1  0  0  0
 14 23  1  0  0  0
 14 29  1  0  0  0
 15 16  1  0  0  0
 15 20  2  0  0  0
 16 17  2  0  0  0
 16 18  1  0  0  0
 18 19  1  0  0  0
 20 21  1  0  0  0
 20 22  1  0  0  0
 23 24  1  0  0  0
 23 27  1  0  0  0
 23 28  1  0  0  0
 24 25  1  0  0  0
 24 26  1  0  0  0
 33 34  1  0  0  0
 33 35  1  0  0  0
 33 36  1  0  0  0
M  END
> <Tumorigenic>
none

> <Score>
34.52679

> <Active/Decoy>
active

> <InChI>
InChI=1S/C15H20O3/c1-9(14(17)18)11-4-6-15(3)7-5-13(16)10(2)12(15)8-11/h5,7,10-12H,1,4,6,8H2,2-3H3,(H,17,18)/t10-,11+,12-,15-/m0/s1

> <Matching Features>
H:14924486185440016873||HBA:14924321692640012300|HBA:14924486112070016868

> <Mol. Index>
1269

> <Pharmacophore Match>
Model -1

> <# Confs.>
18

> <Source Database>
Pharm-Screening-input-NANPDB_After_DataWarror.ldb

> <Pharmacophore-Fit Score>
34.53

> <formula>
C15H20O3

> <Mutagenic>
none

> <Reproductive Effective>
none

> <Irritant>
none

$$$$
foetidin
XX    ILIB03122402123D

 58 61  0  0  1  0              1 V2000
   -6.0618    0.9451   -3.9935 O   0  0  0  0  0
   -4.8680    0.9966   -4.2673 C   0  0  0  0  0
   -4.3953    1.7048   -5.3612 O   0  0  0  0  0
   -3.0259    1.7301   -5.6853 C   0  0  0  0  0
   -2.0897    1.0478   -4.9101 C   0  0  0  0  0
   -0.7468    1.1023   -5.3057 C   0  0  0  0  0
   -0.3645    1.8431   -6.4316 C   0  0  0  0  0
   -1.3199    2.5288   -7.1799 C   0  0  0  0  0
   -2.6594    2.4742   -6.8076 C   0  0  0  0  0
   -3.4070    3.0054   -7.3884 H   0  0  0  0  0
   -1.0192    3.1021   -8.0497 H   0  0  0  0  0
    0.6815    1.8841   -6.7222 H   0  0  0  0  0
    0.0274    0.5812   -4.7487 H   0  0  0  0  0
   -2.5552    0.2938   -3.7398 C   0  0  0  0  0
   -3.8669    0.2821   -3.4523 C   0  0  0  0  0
   -4.2727   -0.2798   -2.6175 H   0  0  0  0  0
   -1.5754   -0.3591   -3.0494 O   0  0  0  0  0
   -1.9819   -1.0814   -1.8968 C   0  0  0  0  0
   -0.7745   -1.7180   -1.2325 C   0  0  1  0  0
    0.3206   -0.6851   -0.7444 C   0  0  1  0  0
    1.5866   -1.5187   -0.2876 C   0  0  1  0  0
    2.9167   -0.7102   -0.0303 C   0  0  0  0  0
    3.1752    0.2320   -1.2434 C   0  0  2  0  0
    4.2637    1.1227   -1.0000 O   0  0  0  0  0
    5.0836    0.6028   -1.0066 H   0  0  0  0  0
    1.9725    1.0868   -1.6186 C   0  0  0  0  0
    0.7388    0.2426   -1.9135 C   0  0  0  0  0
    0.9374   -0.3629   -2.8078 H   0  0  0  0  0
   -0.0766    0.9272   -2.1740 H   0  0  0  0  0
    1.7674    1.8275   -0.8385 H   0  0  0  0  0
    2.2196    1.6823   -2.5074 H   0  0  0  0  0
    3.4458   -0.3701   -2.1209 H   0  0  0  0  0
    2.9325    0.0720    1.2988 C   0  0  0  0  0
    2.2876    0.9497    1.2870 H   0  0  0  0  0
    2.6383   -0.5555    2.1451 H   0  0  0  0  0
    3.9408    0.4440    1.5229 H   0  0  0  0  0
    4.1093   -1.7058    0.0509 C   0  0  0  0  0
    4.0450   -2.3501    0.9320 H   0  0  0  0  0
    4.1498   -2.3480   -0.8352 H   0  0  0  0  0
    5.0689   -1.1842    0.1225 H   0  0  0  0  0
    1.2223   -2.5192    0.8348 C   0  0  0  0  0
    0.0939   -3.4607    0.4096 C   0  0  0  0  0
   -1.1008   -2.6964   -0.0992 C   0  0  0  0  0
   -2.3078   -2.8874    0.4573 C   0  0  0  0  0
   -2.4444   -3.5961    1.2689 H   0  0  0  0  0
   -3.1922   -2.3534    0.1357 H   0  0  0  0  0
    0.4511   -4.1274   -0.3848 H   0  0  0  0  0
   -0.1692   -4.1044    1.2588 H   0  0  0  0  0
    0.9334   -1.9910    1.7491 H   0  0  0  0  0
    2.0821   -3.1431    1.0963 H   0  0  0  0  0
    1.8322   -2.1518   -1.1710 H   0  0  0  0  0
   -0.2876    0.1895    0.3806 C   0  0  0  0  0
    0.3658    1.0054    0.6854 H   0  0  0  0  0
   -1.2129    0.6710    0.0469 H   0  0  0  0  0
   -0.5313   -0.3833    1.2790 H   0  0  0  0  0
   -0.3152   -2.3431   -2.0233 H   0  0  0  0  0
   -2.5084   -0.4349   -1.1805 H   0  0  0  0  0
   -2.6968   -1.8796   -2.1925 H   0  0  0  0  0
  1  2  2  0  0  0
  2  3  1  0  0  0
  2 15  1  0  0  0
  3  4  1  0  0  0
  4  5  2  0  0  0
  4  9  1  0  0  0
  5  6  1  0  0  0
  5 14  1  0  0  0
  6  7  2  0  0  0
  6 13  1  0  0  0
  7  8  1  0  0  0
  7 12  1  0  0  0
  8  9  2  0  0  0
  8 11  1  0  0  0
  9 10  1  0  0  0
 14 15  2  0  0  0
 14 17  1  0  0  0
 15 16  1  0  0  0
 17 18  1  0  0  0
 18 19  1  0  0  0
 18 57  1  0  0  0
 18 58  1  0  0  0
 19 20  1  0  0  0
 19 43  1  0  0  0
 19 56  1  0  0  0
 20 21  1  0  0  0
 20 27  1  0  0  0
 20 52  1  0  0  0
 21 22  1  0  0  0
 21 41  1  0  0  0
 21 51  1  0  0  0
 22 23  1  0  0  0
 22 33  1  0  0  0
 22 37  1  0  0  0
 23 24  1  0  0  0
 23 26  1  0  0  0
 23 32  1  0  0  0
 24 25  1  0  0  0
 26 27  1  0  0  0
 26 30  1  0  0  0
 26 31  1  0  0  0
 27 28  1  0  0  0
 27 29  1  0  0  0
 33 34  1  0  0  0
 33 35  1  0  0  0
 33 36  1  0  0  0
 37 38  1  0  0  0
 37 39  1  0  0  0
 37 40  1  0  0  0
 41 42  1  0  0  0
 41 49  1  0  0  0
 41 50  1  0  0  0
 42 43  1  0  0  0
 42 47  1  0  0  0
 42 48  1  0  0  0
 43 44  2  0  0  0
 44 45  1  0  0  0
 44 46  1  0  0  0
 52 53  1  0  0  0
 52 54  1  0  0  0
 52 55  1  0  0  0
M  END
> <Tumorigenic>
none

> <Score>
34.531727

> <Active/Decoy>
active

> <InChI>
InChI=1S/C24H30O4/c1-15-9-10-20-23(2,3)21(25)11-12-24(20,4)17(15)14-27-19-13-22(26)28-18-8-6-5-7-16(18)19/h5-8,13,17,20-21,25H,1,9-12,14H2,2-4H3/t17-,20-,21-,24+/m1/s1

> <Matching Features>
H:14924486185440016873||HBA:14924321692640012300|HBA:14924486112070016868

> <Mol. Index>
895

> <Pharmacophore Match>
Model -1

> <# Confs.>
25

> <Source Database>
Pharm-Screening-input-NANPDB_After_DataWarror.ldb

> <Pharmacophore-Fit Score>
34.53

> <formula>
C24H30O4

> <Mutagenic>
none

> <Reproductive Effective>
none

> <Irritant>
none

$$$$
(-)-evofolin B
XX    ILIB03122402123D

 41 42  0  0  1  0              1 V2000
    1.3523   -1.7547   -2.6157 O   0  0  0  0  0
    0.9338   -0.6573   -2.2105 C   0  0  0  0  0
   -0.4729   -0.3011   -2.4388 C   0  0  0  0  0
   -1.5165   -1.0806   -1.9171 C   0  0  0  0  0
   -2.8495   -0.7149   -2.1441 C   0  0  0  0  0
   -3.9417   -1.3949   -1.6844 O   0  0  0  0  0
   -3.6546   -2.5621   -0.9183 C   0  0  0  0  0
   -3.1174   -3.3054   -1.5172 H   0  0  0  0  0
   -3.0986   -2.3119   -0.0092 H   0  0  0  0  0
   -4.6087   -3.0046   -0.6155 H   0  0  0  0  0
   -3.1170    0.4334   -2.8972 C   0  0  0  0  0
   -4.4023    0.8340   -3.1476 O   0  0  0  0  0
   -5.0042    0.1981   -2.7206 H   0  0  0  0  0
   -2.0869    1.2119   -3.4172 C   0  0  0  0  0
   -0.7626    0.8459   -3.1873 C   0  0  0  0  0
    0.0283    1.4658   -3.6008 H   0  0  0  0  0
   -2.3062    2.1021   -4.0014 H   0  0  0  0  0
   -1.2854   -1.9681   -1.3367 H   0  0  0  0  0
    1.8428    0.3056   -1.4819 C   0  0  2  0  0
    3.2961    0.1602   -1.9428 C   0  0  0  0  0
    3.9740    1.4004   -1.8223 O   0  0  0  0  0
    3.9092    1.6831   -0.8945 H   0  0  0  0  0
    3.8425   -0.5787   -1.3279 H   0  0  0  0  0
    3.3443   -0.1551   -2.9835 H   0  0  0  0  0
    1.6466    0.2113    0.0278 C   0  0  0  0  0
    1.2175    1.3321    0.7600 C   0  0  0  0  0
    1.0379    1.2537    2.1456 C   0  0  0  0  0
    0.6232    2.2811    2.9445 O   0  0  0  0  0
    0.3693    3.5112    2.2712 C   0  0  0  0  0
    1.2770    3.8990    1.7989 H   0  0  0  0  0
   -0.4400    3.4031    1.5412 H   0  0  0  0  0
    0.0450    4.2411    3.0222 H   0  0  0  0  0
    1.2920    0.0386    2.7898 C   0  0  0  0  0
    1.1201   -0.0971    4.1405 O   0  0  0  0  0
    0.7875    0.7472    4.4898 H   0  0  0  0  0
    1.7305   -1.0769    2.0799 C   0  0  0  0  0
    1.9105   -0.9884    0.7010 C   0  0  0  0  0
    2.2544   -1.8620    0.1538 H   0  0  0  0  0
    1.9307   -2.0139    2.5903 H   0  0  0  0  0
    1.0274    2.2556    0.2194 H   0  0  0  0  0
    1.5311    1.3243   -1.7521 H   0  0  0  0  0
  1  2  2  0  0  0
  2  3  1  0  0  0
  2 19  1  0  0  0
  3  4  2  0  0  0
  3 15  1  0  0  0
  4  5  1  0  0  0
  4 18  1  0  0  0
  5  6  1  0  0  0
  5 11  2  0  0  0
  6  7  1  0  0  0
  7  8  1  0  0  0
  7  9  1  0  0  0
  7 10  1  0  0  0
 11 12  1  0  0  0
 11 14  1  0  0  0
 12 13  1  0  0  0
 14 15  2  0  0  0
 14 17  1  0  0  0
 15 16  1  0  0  0
 19 20  1  0  0  0
 19 25  1  0  0  0
 19 41  1  0  0  0
 20 21  1  0  0  0
 20 23  1  0  0  0
 20 24  1  0  0  0
 21 22  1  0  0  0
 25 26  2  0  0  0
 25 37  1  0  0  0
 26 27  1  0  0  0
 26 40  1  0  0  0
 27 28  1  0  0  0
 27 33  2  0  0  0
 28 29  1  0  0  0
 29 30  1  0  0  0
 29 31  1  0  0  0
 29 32  1  0  0  0
 33 34  1  0  0  0
 33 36  1  0  0  0
 34 35  1  0  0  0
 36 37  2  0  0  0
 36 39  1  0  0  0
 37 38  1  0  0  0
M  END
> <Tumorigenic>
none

> <Score>
34.53267

> <Active/Decoy>
active

> <InChI>
InChI=1S/C17H18O6/c1-22-15-7-10(3-5-13(15)19)12(9-18)17(21)11-4-6-14(20)16(8-11)23-2/h3-8,12,18-20H,9H2,1-2H3/t12-/m1/s1

> <Matching Features>
H:14924486185440016873||HBA:14924321692640012300|HBA:14924486112070016868

> <Mol. Index>
261

> <Pharmacophore Match>
Model -1

> <# Confs.>
25

> <Source Database>
Pharm-Screening-input-NANPDB_After_DataWarror.ldb

> <Pharmacophore-Fit Score>
34.53

> <formula>
C17H18O6

> <Mutagenic>
none

> <Reproductive Effective>
none

> <Irritant>
none

$$$$
(-)-pseudosemiglabrin
XX    ILIB03122402123D

 49 53  0  0  1  0              1 V2000
   -4.8716    0.9531   -3.6158 O   0  0  0  0  0
   -3.7325    1.3092   -3.3435 C   0  0  0  0  0
   -3.2534    1.4197   -1.9579 C   0  0  0  0  0
   -1.9294    1.8046   -1.7349 C   0  0  0  0  0
   -1.0713    2.1221   -2.7518 O   0  0  0  0  0
   -1.5195    2.0350   -4.0630 C   0  0  0  0  0
   -2.7626    1.6556   -4.4016 C   0  0  0  0  0
   -3.1134    1.5898   -5.4243 H   0  0  0  0  0
   -0.5182    2.3989   -5.0583 C   0  0  0  0  0
    0.0459    3.6811   -5.0561 C   0  0  0  0  0
    1.0018    4.0289   -6.0104 C   0  0  0  0  0
    1.4002    3.1011   -6.9724 C   0  0  0  0  0
    0.8419    1.8237   -6.9797 C   0  0  0  0  0
   -0.1151    1.4720   -6.0264 C   0  0  0  0  0
   -0.5388    0.4712   -6.0469 H   0  0  0  0  0
    1.1524    1.1007   -7.7288 H   0  0  0  0  0
    2.1452    3.3728   -7.7126 H   0  0  0  0  0
    1.4364    5.0242   -6.0057 H   0  0  0  0  0
   -0.2519    4.4176   -4.3130 H   0  0  0  0  0
   -1.4773    1.8990   -0.4278 C   0  0  0  0  0
   -2.3548    1.6689    0.6240 C   0  0  0  0  0
   -1.8041    1.8637    1.8626 O   0  0  0  0  0
   -0.3966    2.0532    1.6088 C   0  0  1  0  0
    0.3584    0.8866    1.9842 O   0  0  0  0  0
    1.0842    0.3811    0.8446 C   0  0  0  0  0
    1.1187    1.5314   -0.1656 C   0  0  1  0  0
    1.2346    1.1174   -1.5271 O   0  0  0  0  0
    2.4811    0.9825   -2.0119 C   0  0  0  0  0
    3.5216    1.1804   -1.3993 O   0  0  0  0  0
    2.4223    0.5399   -3.4420 C   0  0  0  0  0
    3.4283    0.5631   -3.8714 H   0  0  0  0  0
    1.7878    1.2142   -4.0226 H   0  0  0  0  0
    2.0406   -0.4826   -3.4903 H   0  0  0  0  0
   -0.1616    2.3286    0.1159 C   0  0  1  0  0
   -0.0379    3.3990   -0.0859 H   0  0  0  0  0
    1.9455    2.2111    0.0945 H   0  0  0  0  0
    0.3721   -0.8841    0.3418 C   0  0  0  0  0
   -0.6597   -0.6913    0.0391 H   0  0  0  0  0
    0.9008   -1.3328   -0.5048 H   0  0  0  0  0
    0.3126   -1.6313    1.1414 H   0  0  0  0  0
    2.4830    0.0056    1.3197 C   0  0  0  0  0
    3.1006   -0.3789    0.5027 H   0  0  0  0  0
    2.4372   -0.7568    2.1057 H   0  0  0  0  0
    2.9902    0.8694    1.7638 H   0  0  0  0  0
   -0.0419    2.8842    2.2286 H   0  0  0  0  0
   -3.6713    1.2984    0.4255 C   0  0  0  0  0
   -4.1236    1.1610   -0.8859 C   0  0  0  0  0
   -5.1567    0.8695   -1.0593 H   0  0  0  0  0
   -4.3386    1.1209    1.2614 H   0  0  0  0  0
  1  2  2  0  0  0
  2  3  1  0  0  0
  2  7  1  0  0  0
  3  4  2  0  0  0
  3 47  1  0  0  0
  4  5  1  0  0  0
  4 20  1  0  0  0
  5  6  1  0  0  0
  6  7  2  0  0  0
  6  9  1  0  0  0
  7  8  1  0  0  0
  9 10  2  0  0  0
  9 14  1  0  0  0
 10 11  1  0  0  0
 10 19  1  0  0  0
 11 12  2  0  0  0
 11 18  1  0  0  0
 12 13  1  0  0  0
 12 17  1  0  0  0
 13 14  2  0  0  0
 13 16  1  0  0  0
 14 15  1  0  0  0
 20 21  2  0  0  0
 20 34  1  0  0  0
 21 22  1  0  0  0
 21 46  1  0  0  0
 22 23  1  0  0  0
 23 24  1  0  0  0
 23 34  1  0  0  0
 23 45  1  0  0  0
 24 25  1  0  0  0
 25 26  1  0  0  0
 25 37  1  0  0  0
 25 41  1  0  0  0
 26 27  1  0  0  0
 26 34  1  0  0  0
 26 36  1  0  0  0
 27 28  1  0  0  0
 28 29  2  0  0  0
 28 30  1  0  0  0
 30 31  1  0  0  0
 30 32  1  0  0  0
 30 33  1  0  0  0
 34 35  1  0  0  0
 37 38  1  0  0  0
 37 39  1  0  0  0
 37 40  1  0  0  0
 41 42  1  0  0  0
 41 43  1  0  0  0
 41 44  1  0  0  0
 46 47  2  0  0  0
 46 49  1  0  0  0
 47 48  1  0  0  0
M  END
> <Tumorigenic>
none

> <Score>
34.51722

> <Active/Decoy>
active

> <InChI>
InChI=1S/C23H20O6/c1-12(24)26-21-19-18-16(28-22(19)29-23(21,2)3)10-9-14-15(25)11-17(27-20(14)18)13-7-5-4-6-8-13/h4-11,19,21-22H,1-3H3/t19-,21+,22+/m1/s1

> <Matching Features>
H:14924486185440016873||HBA:14924321692640012300|HBA:14924486112070016868

> <Mol. Index>
601

> <Pharmacophore Match>
Model -1

> <# Confs.>
4

> <Source Database>
Pharm-Screening-input-NANPDB_After_DataWarror.ldb

> <Pharmacophore-Fit Score>
34.52

> <formula>
C23H20O6

> <Mutagenic>
none

> <Reproductive Effective>
none

> <Irritant>
none

$$$$
norbutsanguinine
XX    ILIB03122402123D

 48 51  0  0  1  0              1 V2000
   -2.0449    2.2330   -0.3156 O   0  0  0  0  0
   -2.1176    1.0315   -0.5701 C   0  0  0  0  0
   -1.4168    0.0567    0.0563 O   0  0  0  0  0
   -0.5431    0.4487    1.1209 C   0  0  1  0  0
    0.1073   -0.8246    1.6404 C   0  0  0  0  0
    1.4268   -1.0159    1.7653 C   0  0  0  0  0
    2.3755    0.1054    1.4435 C   0  0  2  0  0
    1.7574    0.7805    0.1904 C   0  0  2  0  0
    2.7688    1.5503   -0.4689 O   0  0  0  0  0
    3.8656    0.7320   -0.2725 C   0  0  0  0  0
    5.0492    0.8098   -0.9759 C   0  0  0  0  0
    5.2054    1.6418   -2.0403 O   0  0  0  0  0
    4.3675    2.1148   -2.1807 H   0  0  0  0  0
    6.1181    0.0197   -0.5614 C   0  0  0  0  0
    6.0016   -0.7713    0.5950 C   0  0  0  0  0
    4.8038   -0.8161    1.3256 C   0  0  0  0  0
    3.7109   -0.1304    0.8174 C   0  0  0  0  0
    4.7496   -1.3905    2.7149 C   0  0  0  0  0
    4.5970   -0.3444    3.7337 N   0  0  0  0  0
    3.2388    0.1807    3.8957 C   0  0  0  0  0
    2.6280    0.9672    2.7077 C   0  0  0  0  0
    3.2702    1.8277    2.4775 H   0  0  0  0  0
    1.6818    1.3916    3.0670 H   0  0  0  0  0
    3.2698    0.8662    4.7525 H   0  0  0  0  0
    2.5695   -0.6286    4.2062 H   0  0  0  0  0
    5.2476    0.4177    3.5506 H   0  0  0  0  0
    3.9681   -2.1518    2.7972 H   0  0  0  0  0
    5.6883   -1.9168    2.9229 H   0  0  0  0  0
    6.8815   -1.3027    0.9518 H   0  0  0  0  0
    7.0655    0.0539   -1.0910 H   0  0  0  0  0
    0.4599    1.4924    0.5411 C   0  0  0  0  0
    0.0596    1.9939   -0.3474 H   0  0  0  0  0
    0.6522    2.2870    1.2706 H   0  0  0  0  0
    1.4794    0.0162   -0.5608 H   0  0  0  0  0
    1.7978   -1.9589    2.1483 H   0  0  0  0  0
   -0.5716   -1.6329    1.9356 H   0  0  0  0  0
   -1.1228    0.9093    1.9228 H   0  0  0  0  0
   -2.9627    0.4632   -1.6669 C   0  0  0  0  0
   -4.2035    1.3105   -1.9204 C   0  0  1  0  0
   -4.9488    0.6949   -2.9674 O   0  0  0  0  0
   -5.7241    1.2552   -3.1438 H   0  0  0  0  0
   -5.0897    1.4254   -0.6855 C   0  0  0  0  0
   -4.5612    1.8992    0.1467 H   0  0  0  0  0
   -5.4433    0.4394   -0.3639 H   0  0  0  0  0
   -5.9815    2.0172   -0.9110 H   0  0  0  0  0
   -3.9164    2.3120   -2.2611 H   0  0  0  0  0
   -3.2576   -0.5549   -1.3849 H   0  0  0  0  0
   -2.3546    0.4014   -2.5773 H   0  0  0  0  0
  1  2  2  0  0  0
  2  3  1  0  0  0
  2 38  1  0  0  0
  3  4  1  0  0  0
  4  5  1  0  0  0
  4 31  1  0  0  0
  4 37  1  0  0  0
  5  6  2  0  0  0
  5 36  1  0  0  0
  6  7  1  0  0  0
  6 35  1  0  0  0
  7  8  1  0  0  0
  7 17  1  0  0  0
  7 21  1  0  0  0
  8  9  1  0  0  0
  8 31  1  0  0  0
  8 34  1  0  0  0
  9 10  1  0  0  0
 10 11  1  0  0  0
 10 17  2  0  0  0
 11 12  1  0  0  0
 11 14  2  0  0  0
 12 13  1  0  0  0
 14 15  1  0  0  0
 14 30  1  0  0  0
 15 16  2  0  0  0
 15 29  1  0  0  0
 16 17  1  0  0  0
 16 18  1  0  0  0
 18 19  1  0  0  0
 18 27  1  0  0  0
 18 28  1  0  0  0
 19 20  1  0  0  0
 19 26  1  0  0  0
 20 21  1  0  0  0
 20 24  1  0  0  0
 20 25  1  0  0  0
 21 22  1  0  0  0
 21 23  1  0  0  0
 31 32  1  0  0  0
 31 33  1  0  0  0
 38 39  1  0  0  0
 38 47  1  0  0  0
 38 48  1  0  0  0
 39 40  1  0  0  0
 39 42  1  0  0  0
 39 46  1  0  0  0
 40 41  1  0  0  0
 42 43  1  0  0  0
 42 44  1  0  0  0
 42 45  1  0  0  0
M  END
> <Tumorigenic>
none

> <Score>
34.518467

> <Active/Decoy>
active

> <InChI>
InChI=1S/C19H23NO5/c1-11(21)8-16(23)24-13-4-5-19-6-7-20-10-12-2-3-14(22)18(17(12)19)25-15(19)9-13/h2-5,11,13,15,20-22H,6-10H2,1H3/t11-,13-,15+,19-/m0/s1

> <Matching Features>
H:14924486185440016873||HBA:14924321692640012300|HBA:14924486112070016868

> <Mol. Index>
45

> <Pharmacophore Match>
Model -1

> <# Confs.>
25

> <Source Database>
Pharm-Screening-input-NANPDB_After_DataWarror.ldb

> <Pharmacophore-Fit Score>
34.52

> <formula>
C19H23NO5

> <Mutagenic>
none

> <Reproductive Effective>
none

> <Irritant>
none

$$$$
1beta-hydroxyisocostic acid
XX    ILIB03122402123D

 40 41  0  0  1  0              1 V2000
   -4.2456    0.8666   -3.1803 O   0  0  0  0  0
   -3.3589    1.3955   -2.5518 C   0  0  0  0  0
   -3.0891    2.7375   -2.6007 O   0  0  0  0  0
   -2.3444    3.0590   -2.0485 H   0  0  0  0  0
   -2.4302    0.7129   -1.6478 C   0  0  0  0  0
   -2.9176   -0.3644   -1.0262 C   0  0  0  0  0
   -2.3046   -0.9531   -0.3515 H   0  0  0  0  0
   -3.9342   -0.7037   -1.1940 H   0  0  0  0  0
   -1.0250    1.2304   -1.4704 C   0  0  1  0  0
   -0.2463    0.3475   -0.4722 C   0  0  0  0  0
    1.1933    0.8644   -0.2628 C   0  0  2  0  0
    1.9711    0.9312   -1.6183 C   0  0  2  0  0
    3.3641    1.5545   -1.3217 C   0  0  2  0  0
    4.1220    1.6872   -2.5216 O   0  0  0  0  0
    4.9777    2.0826   -2.2835 H   0  0  0  0  0
    4.1672    0.7249   -0.3092 C   0  0  0  0  0
    3.3369    0.1245    0.7854 C   0  0  0  0  0
    1.9915    0.1644    0.8310 C   0  0  0  0  0
    1.2561   -0.4142    2.0063 C   0  0  0  0  0
    0.6230   -1.2492    1.6911 H   0  0  0  0  0
    0.6284    0.3507    2.4754 H   0  0  0  0  0
    1.9366   -0.7926    2.7751 H   0  0  0  0  0
    3.8890   -0.3660    1.5846 H   0  0  0  0  0
    4.9420    1.3626    0.1321 H   0  0  0  0  0
    4.7081   -0.0788   -0.8233 H   0  0  0  0  0
    3.2244    2.5662   -0.9190 H   0  0  0  0  0
    1.1823    1.8390   -2.5957 C   0  0  0  0  0
   -0.2667    1.3892   -2.7998 C   0  0  0  0  0
   -0.2810    0.4527   -3.3680 H   0  0  0  0  0
   -0.7764    2.1324   -3.4265 H   0  0  0  0  0
    1.1756    2.8686   -2.2137 H   0  0  0  0  0
    1.6808    1.8768   -3.5720 H   0  0  0  0  0
    2.1479   -0.4658   -2.2752 C   0  0  0  0  0
    2.7027   -1.1614   -1.6407 H   0  0  0  0  0
    2.6923   -0.3851   -3.2237 H   0  0  0  0  0
    1.1936   -0.9490   -2.4996 H   0  0  0  0  0
    1.0810    1.8982    0.1034 H   0  0  0  0  0
   -0.7823    0.3585    0.4852 H   0  0  0  0  0
   -0.2381   -0.6981   -0.8025 H   0  0  0  0  0
   -1.0998    2.2361   -1.0311 H   0  0  0  0  0
  1  2  2  0  0  0
  2  3  1  0  0  0
  2  5  1  0  0  0
  3  4  1  0  0  0
  5  6  2  0  0  0
  5  9  1  0  0  0
  6  7  1  0  0  0
  6  8  1  0  0  0
  9 10  1  0  0  0
  9 28  1  0  0  0
  9 40  1  0  0  0
 10 11  1  0  0  0
 10 38  1  0  0  0
 10 39  1  0  0  0
 11 12  1  0  0  0
 11 18  1  0  0  0
 11 37  1  0  0  0
 12 13  1  0  0  0
 12 27  1  0  0  0
 12 33  1  0  0  0
 13 14  1  0  0  0
 13 16  1  0  0  0
 13 26  1  0  0  0
 14 15  1  0  0  0
 16 17  1  0  0  0
 16 24  1  0  0  0
 16 25  1  0  0  0
 17 18  2  0  0  0
 17 23  1  0  0  0
 18 19  1  0  0  0
 19 20  1  0  0  0
 19 21  1  0  0  0
 19 22  1  0  0  0
 27 28  1  0  0  0
 27 31  1  0  0  0
 27 32  1  0  0  0
 28 29  1  0  0  0
 28 30  1  0  0  0
 33 34  1  0  0  0
 33 35  1  0  0  0
 33 36  1  0  0  0
M  END
> <Tumorigenic>
none

> <Score>
34.508144

> <Active/Decoy>
active

> <InChI>
InChI=1S/C15H22O3/c1-9-4-5-13(16)15(3)7-6-11(8-12(9)15)10(2)14(17)18/h4,11-13,16H,2,5-8H2,1,3H3,(H,17,18)/t11-,12+,13-,15-/m1/s1

> <Matching Features>
H:14924486185440016873||HBA:14924321692640012300|HBA:14924486112070016868

> <Mol. Index>
1276

> <Pharmacophore Match>
Model -1

> <# Confs.>
15

> <Source Database>
Pharm-Screening-input-NANPDB_After_DataWarror.ldb

> <Pharmacophore-Fit Score>
34.51

> <formula>
C15H22O3

> <Mutagenic>
none

> <Reproductive Effective>
none

> <Irritant>
none

$$$$
gummosin
XX    ILIB03122402123D

 58 61  0  0  1  0              1 V2000
    4.0894    1.5728   -2.2337 O   0  0  0  0  0
    3.6759    1.1357   -1.1651 C   0  0  0  0  0
    2.3376    0.8169   -0.9674 O   0  0  0  0  0
    1.8705    0.3134    0.2651 C   0  0  0  0  0
    2.7514    0.1091    1.3230 C   0  0  0  0  0
    2.2523   -0.3948    2.5238 C   0  0  0  0  0
    0.8901   -0.6843    2.6469 C   0  0  0  0  0
    0.0093   -0.4616    1.5794 C   0  0  0  0  0
    0.5057    0.0444    0.3755 C   0  0  0  0  0
   -0.1354    0.2232   -0.4818 H   0  0  0  0  0
   -1.2989   -0.7926    1.8288 O   0  0  0  0  0
   -2.2080   -0.6084    0.7511 C   0  0  0  0  0
   -3.6137   -0.9939    1.1643 C   0  0  2  0  0
   -4.7482   -0.8238    0.0681 C   0  0  1  0  0
   -5.0350    0.7003   -0.1695 C   0  0  1  0  0
   -5.9743    1.0561   -1.3853 C   0  0  0  0  0
   -5.4990    0.2904   -2.6561 C   0  0  1  0  0
   -4.2557    0.8381   -3.1092 O   0  0  0  0  0
   -4.0090    0.3712   -3.9257 H   0  0  0  0  0
   -5.2989   -1.2086   -2.4256 C   0  0  0  0  0
   -4.3231   -1.4822   -1.2787 C   0  0  0  0  0
   -3.3452   -1.1019   -1.5916 H   0  0  0  0  0
   -4.2061   -2.5660   -1.1556 H   0  0  0  0  0
   -4.8832   -1.6623   -3.3341 H   0  0  0  0  0
   -6.2581   -1.7021   -2.2478 H   0  0  0  0  0
   -6.2198    0.4372   -3.4685 H   0  0  0  0  0
   -7.4699    0.7700   -1.1378 C   0  0  0  0  0
   -7.8263    1.2300   -0.2112 H   0  0  0  0  0
   -8.0776    1.1843   -1.9503 H   0  0  0  0  0
   -7.7079   -0.2913   -1.1011 H   0  0  0  0  0
   -5.8815    2.5812   -1.6761 C   0  0  0  0  0
   -4.8419    2.9247   -1.7248 H   0  0  0  0  0
   -6.3895    3.1729   -0.9070 H   0  0  0  0  0
   -6.3568    2.8261   -2.6325 H   0  0  0  0  0
   -5.4087    1.4106    1.1534 C   0  0  0  0  0
   -4.3412    1.2134    2.2324 C   0  0  0  0  0
   -3.9996   -0.2394    2.4204 C   0  0  0  0  0
   -4.0620   -0.8314    3.6229 C   0  0  0  0  0
   -4.3532   -0.2786    4.5099 H   0  0  0  0  0
   -3.8259   -1.8828    3.7471 H   0  0  0  0  0
   -4.6940    1.6638    3.1674 H   0  0  0  0  0
   -3.4320    1.7585    1.9502 H   0  0  0  0  0
   -6.3747    1.0562    1.5270 H   0  0  0  0  0
   -5.5175    2.4890    0.9939 H   0  0  0  0  0
   -4.0652    1.1353   -0.4525 H   0  0  0  0  0
   -5.9782   -1.6199    0.6023 C   0  0  0  0  0
   -6.4377   -1.1449    1.4731 H   0  0  0  0  0
   -6.7610   -1.7645   -0.1401 H   0  0  0  0  0
   -5.6823   -2.6311    0.9097 H   0  0  0  0  0
   -3.5587   -2.0737    1.4019 H   0  0  0  0  0
   -1.8915   -1.1383   -0.1577 H   0  0  0  0  0
   -2.1925    0.4657    0.4804 H   0  0  0  0  0
    0.5134   -1.0597    3.5952 H   0  0  0  0  0
    2.9091   -0.5633    3.3736 H   0  0  0  0  0
    4.1545    0.4351    1.1408 C   0  0  0  0  0
    4.5879    0.9116   -0.0286 C   0  0  0  0  0
    5.6360    1.1492   -0.1753 H   0  0  0  0  0
    4.8430    0.2770    1.9631 H   0  0  0  0  0
  1  2  2  0  0  0
  2  3  1  0  0  0
  2 56  1  0  0  0
  3  4  1  0  0  0
  4  5  2  0  0  0
  4  9  1  0  0  0
  5  6  1  0  0  0
  5 55  1  0  0  0
  6  7  2  0  0  0
  6 54  1  0  0  0
  7  8  1  0  0  0
  7 53  1  0  0  0
  8  9  2  0  0  0
  8 11  1  0  0  0
  9 10  1  0  0  0
 11 12  1  0  0  0
 12 13  1  0  0  0
 12 51  1  0  0  0
 12 52  1  0  0  0
 13 14  1  0  0  0
 13 37  1  0  0  0
 13 50  1  0  0  0
 14 15  1  0  0  0
 14 21  1  0  0  0
 14 46  1  0  0  0
 15 16  1  0  0  0
 15 35  1  0  0  0
 15 45  1  0  0  0
 16 17  1  0  0  0
 16 27  1  0  0  0
 16 31  1  0  0  0
 17 18  1  0  0  0
 17 20  1  0  0  0
 17 26  1  0  0  0
 18 19  1  0  0  0
 20 21  1  0  0  0
 20 24  1  0  0  0
 20 25  1  0  0  0
 21 22  1  0  0  0
 21 23  1  0  0  0
 27 28  1  0  0  0
 27 29  1  0  0  0
 27 30  1  0  0  0
 31 32  1  0  0  0
 31 33  1  0  0  0
 31 34  1  0  0  0
 35 36  1  0  0  0
 35 43  1  0  0  0
 35 44  1  0  0  0
 36 37  1  0  0  0
 36 41  1  0  0  0
 36 42  1  0  0  0
 37 38  2  0  0  0
 38 39  1  0  0  0
 38 40  1  0  0  0
 46 47  1  0  0  0
 46 48  1  0  0  0
 46 49  1  0  0  0
 55 56  2  0  0  0
 55 58  1  0  0  0
 56 57  1  0  0  0
M  END
> <Tumorigenic>
none

> <Score>
34.510483

> <Active/Decoy>
active

> <InChI>
InChI=1S/C24H30O4/c1-15-5-9-20-23(2,3)21(25)11-12-24(20,4)18(15)14-27-17-8-6-16-7-10-22(26)28-19(16)13-17/h6-8,10,13,18,20-21,25H,1,5,9,11-12,14H2,2-4H3/t18-,20+,21-,24-/m0/s1

> <Matching Features>
H:14924486185440016873||HBA:14924321692640012300|HBA:14924486112070016868

> <Mol. Index>
911

> <Pharmacophore Match>
Model -1

> <# Confs.>
25

> <Source Database>
Pharm-Screening-input-NANPDB_After_DataWarror.ldb

> <Pharmacophore-Fit Score>
34.51

> <formula>
C24H30O4

> <Mutagenic>
none

> <Reproductive Effective>
none

> <Irritant>
none

$$$$
12-epi-montanin D
XX    ILIB03122402123D

 52 56  0  0  1  0              1 V2000
    3.3280    1.5340   -2.3874 O   0  0  0  0  0
    2.5047    1.1910   -1.5510 C   0  0  0  0  0
    2.7186    0.1781   -0.6630 O   0  0  0  0  0
    1.5892    0.0221    0.2239 C   0  0  1  0  0
    1.9946   -0.3339    1.5993 C   0  0  0  0  0
    1.2886   -1.0680    2.5131 C   0  0  0  0  0
    1.9735   -1.2052    3.6768 O   0  0  0  0  0
    3.1496   -0.5475    3.5165 C   0  0  0  0  0
    3.2223    0.0091    2.2610 C   0  0  0  0  0
    4.0477    0.5863    1.8696 H   0  0  0  0  0
    3.8153   -0.5648    4.3673 H   0  0  0  0  0
    0.3198   -1.5464    2.4856 H   0  0  0  0  0
    0.8965    1.3761    0.1221 C   0  0  0  0  0
    1.1071    1.8024   -1.3405 C   0  0  2  0  0
    0.0842    1.1168   -2.3065 C   0  0  1  0  0
   -1.3745    1.6895   -2.1083 C   0  0  1  0  0
   -2.4279    1.3015   -3.2716 C   0  0  1  0  0
   -2.6352    0.0172   -2.5899 O   0  0  0  0  0
   -2.2212    0.6298   -1.3345 C   0  0  0  0  0
   -1.6798   -0.0785   -0.7017 H   0  0  0  0  0
   -3.0817    1.0032   -0.7693 H   0  0  0  0  0
   -3.7738    1.9877   -3.3823 C   0  0  0  0  0
   -4.7320    1.0974   -3.9460 O   0  0  0  0  0
   -4.4483    0.8969   -4.8537 H   0  0  0  0  0
   -3.7269    2.8833   -4.0128 H   0  0  0  0  0
   -4.1410    2.2940   -2.3970 H   0  0  0  0  0
   -1.8431    1.1062   -4.6756 C   0  0  0  0  0
   -0.4842    0.4369   -4.6653 C   0  0  0  0  0
    0.4892    1.2127   -3.7913 C   0  0  0  0  0
    1.4810    0.7741   -3.9411 H   0  0  0  0  0
    0.5433    2.2499   -4.1331 H   0  0  0  0  0
   -0.5675   -0.5984   -4.3141 H   0  0  0  0  0
   -0.0974    0.3939   -5.6890 H   0  0  0  0  0
   -2.5193    0.5067   -5.2966 H   0  0  0  0  0
   -1.7497    2.0836   -5.1665 H   0  0  0  0  0
   -1.3707    3.0739   -1.4261 C   0  0  2  0  0
   -2.5907    3.7796   -1.6240 O   0  0  0  0  0
   -2.5523    4.2148   -2.4921 H   0  0  0  0  0
   -0.2200    3.9338   -1.9308 C   0  0  0  0  0
    1.1614    3.3405   -1.5988 C   0  0  1  0  0
    1.8357    4.1605   -0.4915 C   0  0  0  0  0
    1.2127    4.2208    0.4062 H   0  0  0  0  0
    2.0097    5.1871   -0.8331 H   0  0  0  0  0
    2.8086    3.7388   -0.2202 H   0  0  0  0  0
    1.7818    3.5172   -2.4895 H   0  0  0  0  0
   -0.3166    4.9532   -1.5401 H   0  0  0  0  0
   -0.3133    4.0477   -3.0182 H   0  0  0  0  0
   -1.2798    2.9619   -0.3417 H   0  0  0  0  0
    0.0786    0.0410   -2.0879 H   0  0  0  0  0
    1.3774    2.0715    0.8232 H   0  0  0  0  0
   -0.1465    1.2999    0.4348 H   0  0  0  0  0
    0.9663   -0.7717   -0.1869 H   0  0  0  0  0
  1  2  2  0  0  0
  2  3  1  0  0  0
  2 14  1  0  0  0
  3  4  1  0  0  0
  4  5  1  0  0  0
  4 13  1  0  0  0
  4 52  1  0  0  0
  5  6  2  0  0  0
  5  9  1  0  0  0
  6  7  1  0  0  0
  6 12  1  0  0  0
  7  8  1  0  0  0
  8  9  2  0  0  0
  8 11  1  0  0  0
  9 10  1  0  0  0
 13 14  1  0  0  0
 13 50  1  0  0  0
 13 51  1  0  0  0
 14 15  1  0  0  0
 14 40  1  0  0  0
 15 16  1  0  0  0
 15 29  1  0  0  0
 15 49  1  0  0  0
 16 17  1  0  0  0
 16 19  1  0  0  0
 16 36  1  0  0  0
 17 18  1  0  0  0
 17 22  1  0  0  0
 17 27  1  0  0  0
 18 19  1  0  0  0
 19 20  1  0  0  0
 19 21  1  0  0  0
 22 23  1  0  0  0
 22 25  1  0  0  0
 22 26  1  0  0  0
 23 24  1  0  0  0
 27 28  1  0  0  0
 27 34  1  0  0  0
 27 35  1  0  0  0
 28 29  1  0  0  0
 28 32  1  0  0  0
 28 33  1  0  0  0
 29 30  1  0  0  0
 29 31  1  0  0  0
 36 37  1  0  0  0
 36 39  1  0  0  0
 36 48  1  0  0  0
 37 38  1  0  0  0
 39 40  1  0  0  0
 39 46  1  0  0  0
 39 47  1  0  0  0
 40 41  1  0  0  0
 40 45  1  0  0  0
 41 42  1  0  0  0
 41 43  1  0  0  0
 41 44  1  0  0  0
M  END
> <Tumorigenic>
none

> <Score>
34.49338

> <Active/Decoy>
active

> <InChI>
InChI=1S/C20H26O6/c1-12-7-16(22)20-11-25-18(20,10-21)5-2-3-15(20)19(12)8-14(26-17(19)23)13-4-6-24-9-13/h4,6,9,12,14-16,21-22H,2-3,5,7-8,10-11H2,1H3/t12-,14-,15+,16-,18-,19+,20+/m1/s1

> <Matching Features>
H:14924486185440016873||HBA:14924321692640012300|HBA:14924486112070016868

> <Mol. Index>
1345

> <Pharmacophore Match>
Model -1

> <# Confs.>
13

> <Source Database>
Pharm-Screening-input-NANPDB_After_DataWarror.ldb

> <Pharmacophore-Fit Score>
34.49

> <formula>
C20H26O6

> <Mutagenic>
none

> <Reproductive Effective>
none

> <Irritant>
none

$$$$
2-((4aS,7R)-1,2,4a,5,6,7,8,8a-octahydro-4a-methyl-1-methylene-2-oxonaphthalen-7-yl)acrylic acid
XX    ILIB03122402123D

 36 37  0  0  1  0              1 V2000
    4.5156    1.4780   -1.8436 O   0  0  0  0  0
    3.5655    0.8160   -1.4401 C   0  0  0  0  0
    2.1522    1.3092   -1.4588 C   0  0  0  0  0
    1.9667    2.6344   -1.5145 C   0  0  0  0  0
    0.9741    3.0703   -1.5331 H   0  0  0  0  0
    2.7956    3.3336   -1.5336 H   0  0  0  0  0
    1.0875    0.2349   -1.4182 C   0  0  1  0  0
    1.3515   -0.7487   -0.2495 C   0  0  2  0  0
    2.7812   -1.2483   -0.3428 C   0  0  0  0  0
    3.7811   -0.5524   -0.9011 C   0  0  0  0  0
    4.7916   -0.9481   -0.9262 H   0  0  0  0  0
    3.0103   -2.2181    0.0932 H   0  0  0  0  0
    0.3737   -1.9383   -0.3849 C   0  0  0  0  0
   -1.0930   -1.5025   -0.4317 C   0  0  0  0  0
   -1.3659   -0.4599   -1.5339 C   0  0  1  0  0
   -2.7818    0.0376   -1.5590 C   0  0  0  0  0
   -3.4313    0.3422   -2.8534 C   0  0  0  0  0
   -4.5738    0.7517   -2.9902 O   0  0  0  0  0
   -2.5882    0.0836   -3.8793 O   0  0  0  0  0
   -2.9966    0.2769   -4.7500 H   0  0  0  0  0
   -3.5348    0.2534   -0.4767 C   0  0  0  0  0
   -3.1582    0.0677    0.5228 H   0  0  0  0  0
   -4.5535    0.6246   -0.5334 H   0  0  0  0  0
   -0.3771    0.7151   -1.4476 C   0  0  0  0  0
   -0.6011    1.3305   -0.5748 H   0  0  0  0  0
   -0.5245    1.3640   -2.3296 H   0  0  0  0  0
   -1.1807   -0.9814   -2.4984 H   0  0  0  0  0
   -1.3837   -1.1020    0.5464 H   0  0  0  0  0
   -1.7162   -2.3910   -0.5964 H   0  0  0  0  0
    0.5084   -2.6413    0.4477 H   0  0  0  0  0
    0.5996   -2.5024   -1.3000 H   0  0  0  0  0
    1.1909   -0.0898    1.1393 C   0  0  0  0  0
    1.9137    0.7201    1.2950 H   0  0  0  0  0
    0.1961    0.3378    1.2904 H   0  0  0  0  0
    1.3521   -0.8218    1.9402 H   0  0  0  0  0
    1.2241   -0.3257   -2.3655 H   0  0  0  0  0
  1  2  2  0  0  0
  2  3  1  0  0  0
  2 10  1  0  0  0
  3  4  2  0  0  0
  3  7  1  0  0  0
  4  5  1  0  0  0
  4  6  1  0  0  0
  7  8  1  0  0  0
  7 24  1  0  0  0
  7 36  1  0  0  0
  8  9  1  0  0  0
  8 13  1  0  0  0
  8 32  1  0  0  0
  9 10  2  0  0  0
  9 12  1  0  0  0
 10 11  1  0  0  0
 13 14  1  0  0  0
 13 30  1  0  0  0
 13 31  1  0  0  0
 14 15  1  0  0  0
 14 28  1  0  0  0
 14 29  1  0  0  0
 15 16  1  0  0  0
 15 24  1  0  0  0
 15 27  1  0  0  0
 16 17  1  0  0  0
 16 21  2  0  0  0
 17 18  2  0  0  0
 17 19  1  0  0  0
 19 20  1  0  0  0
 21 22  1  0  0  0
 21 23  1  0  0  0
 24 25  1  0  0  0
 24 26  1  0  0  0
 32 33  1  0  0  0
 32 34  1  0  0  0
 32 35  1  0  0  0
M  END
> <Tumorigenic>
none

> <Score>
34.49227

> <Active/Decoy>
active

> <InChI>
InChI=1S/C15H18O3/c1-9(14(17)18)11-4-6-15(3)7-5-13(16)10(2)12(15)8-11/h5,7,11-12H,1-2,4,6,8H2,3H3,(H,17,18)/t11-,12+,15+/m1/s1

> <Matching Features>
H:14924486185440016873||HBA:14924321692640012300|HBA:14924486112070016868

> <Mol. Index>
1117

> <Pharmacophore Match>
Model -1

> <# Confs.>
18

> <Source Database>
Pharm-Screening-input-NANPDB_After_DataWarror.ldb

> <Pharmacophore-Fit Score>
34.49

> <formula>
C15H18O3

> <Mutagenic>
none

> <Reproductive Effective>
none

> <Irritant>
none

$$$$
p-hydroxycinnamic acid, ethyl ester
XX    ILIB03122402123D

 26 26  0  0  1  0              1 V2000
    3.3143    1.2304   -1.5992 O   0  0  0  0  0
    2.2583    0.8950   -1.0836 C   0  0  0  0  0
    2.0816    0.3998    0.1525 O   0  0  0  0  0
    3.2536    0.2473    0.9546 C   0  0  0  0  0
    2.8486   -0.3232    2.2992 C   0  0  0  0  0
    2.1360    0.3518    2.8053 H   0  0  0  0  0
    2.3477   -1.2796    2.1809 H   0  0  0  0  0
    3.7204   -0.4550    2.9463 H   0  0  0  0  0
    3.9576   -0.4250    0.4643 H   0  0  0  0  0
    3.7278    1.2325    1.0939 H   0  0  0  0  0
    0.9700    1.0252   -1.8117 C   0  0  0  0  0
   -0.2142    0.6707   -1.2892 C   0  0  0  0  0
   -1.4944    0.7696   -1.9974 C   0  0  0  0  0
   -2.5425   -0.1302   -1.7211 C   0  0  0  0  0
   -3.7677   -0.0395   -2.3873 C   0  0  0  0  0
   -3.9605    0.9584   -3.3390 C   0  0  0  0  0
   -5.1466    1.0684   -4.0089 O   0  0  0  0  0
   -5.7443    0.3672   -3.6981 H   0  0  0  0  0
   -2.9437    1.8556   -3.6338 C   0  0  0  0  0
   -1.7205    1.7613   -2.9667 C   0  0  0  0  0
   -0.9488    2.4862   -3.2181 H   0  0  0  0  0
   -3.0937    2.6337   -4.3772 H   0  0  0  0  0
   -4.5586   -0.7472   -2.1524 H   0  0  0  0  0
   -2.4228   -0.9195   -0.9823 H   0  0  0  0  0
   -0.2749    0.2747   -0.2785 H   0  0  0  0  0
    1.0521    1.4172   -2.8212 H   0  0  0  0  0
  1  2  2  0  0  0
  2  3  1  0  0  0
  2 11  1  0  0  0
  3  4  1  0  0  0
  4  5  1  0  0  0
  4  9  1  0  0  0
  4 10  1  0  0  0
  5  6  1  0  0  0
  5  7  1  0  0  0
  5  8  1  0  0  0
 11 12  2  0  0  0
 11 26  1  0  0  0
 12 13  1  0  0  0
 12 25  1  0  0  0
 13 14  2  0  0  0
 13 20  1  0  0  0
 14 15  1  0  0  0
 14 24  1  0  0  0
 15 16  2  0  0  0
 15 23  1  0  0  0
 16 17  1  0  0  0
 16 19  1  0  0  0
 17 18  1  0  0  0
 19 20  2  0  0  0
 19 22  1  0  0  0
 20 21  1  0  0  0
M  END
> <Tumorigenic>
none

> <Score>
34.48888

> <Active/Decoy>
active

> <InChI>
InChI=1S/C11H12O3/c1-2-14-11(13)8-5-9-3-6-10(12)7-4-9/h3-8,12H,2H2,1H3/b8-5+

> <Matching Features>
H:14924486185440016873||HBA:14924321692640012300|HBA:14924486112070016868

> <Mol. Index>
706

> <Pharmacophore Match>
Model -1

> <# Confs.>
25

> <Source Database>
Pharm-Screening-input-NANPDB_After_DataWarror.ldb

> <Pharmacophore-Fit Score>
34.49

> <formula>
C11H12O3

> <Mutagenic>
none

> <Reproductive Effective>
none

> <Irritant>
none

$$$$
(-)-secoisolariciresinol
XX    ILIB03122402123D

 52 53  0  0  1  0              1 V2000
   -4.9166   -0.2659   -3.9975 O   0  0  0  0  0
   -4.0565    0.4168   -3.1833 C   0  0  0  0  0
   -4.6385    1.0924   -2.1067 C   0  0  0  0  0
   -5.9899    1.0651   -1.8979 O   0  0  0  0  0
   -6.3938    0.5352   -2.6069 H   0  0  0  0  0
   -3.8618    1.8183   -1.2077 C   0  0  0  0  0
   -2.4794    1.8759   -1.3803 C   0  0  0  0  0
   -1.8677    1.2114   -2.4514 C   0  0  0  0  0
   -2.6668    0.4783   -3.3472 C   0  0  0  0  0
   -2.1786   -0.0423   -4.1668 H   0  0  0  0  0
   -0.3748    1.2749   -2.6180 C   0  0  0  0  0
    0.3561    0.1732   -1.8654 C   0  0  1  0  0
    0.2614   -1.2047   -2.5970 C   0  0  0  0  0
    0.8221   -1.1117   -3.8958 O   0  0  0  0  0
    0.7382   -1.9887   -4.3071 H   0  0  0  0  0
   -0.7816   -1.5302   -2.6783 H   0  0  0  0  0
    0.8012   -1.9718   -2.0312 H   0  0  0  0  0
    1.7992    0.6120   -1.5815 C   0  0  2  0  0
    2.7019    0.7523   -2.8272 C   0  0  0  0  0
    4.0059    1.1608   -2.4472 O   0  0  0  0  0
    4.5286    1.2419   -3.2629 H   0  0  0  0  0
    2.2801    1.4970   -3.5211 H   0  0  0  0  0
    2.7682   -0.1929   -3.3642 H   0  0  0  0  0
    2.4273   -0.3248   -0.5045 C   0  0  0  0  0
    1.9189   -0.0590    0.8841 C   0  0  0  0  0
    2.5547    0.8744    1.7240 C   0  0  0  0  0
    2.0725    1.1235    3.0152 C   0  0  0  0  0
    2.6179    2.0068    3.9024 O   0  0  0  0  0
    3.7718    2.7033    3.4367 C   0  0  0  0  0
    4.5899    2.0090    3.2180 H   0  0  0  0  0
    4.1027    3.3702    4.2374 H   0  0  0  0  0
    3.5359    3.3202    2.5626 H   0  0  0  0  0
    0.9405    0.4315    3.4556 C   0  0  0  0  0
    0.4260    0.6363    4.7066 O   0  0  0  0  0
    0.9850    1.2921    5.1595 H   0  0  0  0  0
    0.2963   -0.4918    2.6356 C   0  0  0  0  0
    0.7846   -0.7346    1.3546 C   0  0  0  0  0
    0.2724   -1.4565    0.7234 H   0  0  0  0  0
   -0.5830   -1.0236    2.9880 H   0  0  0  0  0
    3.4261    1.4000    1.3430 H   0  0  0  0  0
    2.2039   -1.3684   -0.7610 H   0  0  0  0  0
    3.5218   -0.2376   -0.5175 H   0  0  0  0  0
    1.7580    1.5952   -1.0907 H   0  0  0  0  0
   -0.1673    0.0622   -0.9197 H   0  0  0  0  0
   -0.0270    2.2476   -2.2493 H   0  0  0  0  0
   -0.1240    1.2487   -3.6867 H   0  0  0  0  0
   -1.8830    2.4441   -0.6710 H   0  0  0  0  0
   -4.3220    2.3395   -0.3737 H   0  0  0  0  0
   -4.3062   -0.9489   -5.0893 C   0  0  0  0  0
   -3.8050   -0.2461   -5.7639 H   0  0  0  0  0
   -5.1003   -1.4478   -5.6548 H   0  0  0  0  0
   -3.6111   -1.7185   -4.7379 H   0  0  0  0  0
  1  2  1  0  0  0
  1 49  1  0  0  0
  2  3  2  0  0  0
  2  9  1  0  0  0
  3  4  1  0  0  0
  3  6  1  0  0  0
  4  5  1  0  0  0
  6  7  2  0  0  0
  6 48  1  0  0  0
  7  8  1  0  0  0
  7 47  1  0  0  0
  8  9  2  0  0  0
  8 11  1  0  0  0
  9 10  1  0  0  0
 11 12  1  0  0  0
 11 45  1  0  0  0
 11 46  1  0  0  0
 12 13  1  0  0  0
 12 18  1  0  0  0
 12 44  1  0  0  0
 13 14  1  0  0  0
 13 16  1  0  0  0
 13 17  1  0  0  0
 14 15  1  0  0  0
 18 19  1  0  0  0
 18 24  1  0  0  0
 18 43  1  0  0  0
 19 20  1  0  0  0
 19 22  1  0  0  0
 19 23  1  0  0  0
 20 21  1  0  0  0
 24 25  1  0  0  0
 24 41  1  0  0  0
 24 42  1  0  0  0
 25 26  2  0  0  0
 25 37  1  0  0  0
 26 27  1  0  0  0
 26 40  1  0  0  0
 27 28  1  0  0  0
 27 33  2  0  0  0
 28 29  1  0  0  0
 29 30  1  0  0  0
 29 31  1  0  0  0
 29 32  1  0  0  0
 33 34  1  0  0  0
 33 36  1  0  0  0
 34 35  1  0  0  0
 36 37  2  0  0  0
 36 39  1  0  0  0
 37 38  1  0  0  0
 49 50  1  0  0  0
 49 51  1  0  0  0
 49 52  1  0  0  0
M  END
> <Tumorigenic>
none

> <Score>
34.484467

> <Active/Decoy>
active

> <InChI>
InChI=1S/C20H26O6/c1-25-19-9-13(3-5-17(19)23)7-15(11-21)16(12-22)8-14-4-6-18(24)20(10-14)26-2/h3-6,9-10,15-16,21-24H,7-8,11-12H2,1-2H3/t15-,16-/m0/s1

> <Matching Features>
H:14924486185440016873||HBA:14924321692640012300|HBA:14924486112070016868

> <Mol. Index>
982

> <Pharmacophore Match>
Model -1

> <# Confs.>
25

> <Source Database>
Pharm-Screening-input-NANPDB_After_DataWarror.ldb

> <Pharmacophore-Fit Score>
34.48

> <formula>
C20H26O6

> <Mutagenic>
none

> <Reproductive Effective>
none

> <Irritant>
none

$$$$
aucubin
XX    ILIB03122402123D

 46 48  0  0  1  0              1 V2000
   -1.4790    1.9548    1.7827 O   0  0  0  0  0
   -1.1850    1.6254    3.0740 C   0  0  0  0  0
    0.0222    1.3004    3.5444 C   0  0  0  0  0
    1.2391    1.3423    2.6780 C   0  0  1  0  0
    1.8905   -0.0362    2.4932 C   0  0  2  0  0
    2.8945   -0.2336    3.4746 O   0  0  0  0  0
    3.3064   -1.0974    3.3039 H   0  0  0  0  0
    2.4905    0.0792    1.1309 C   0  0  0  0  0
    1.9785    1.1102    0.4450 C   0  0  0  0  0
    0.9362    1.8672    1.2598 C   0  0  1  0  0
   -0.5124    1.5499    0.8135 C   0  0  2  0  0
   -0.7342    2.2202   -0.4247 O   0  0  0  0  0
   -2.0398    2.0488   -0.9547 C   0  0  2  0  0
   -2.2830    0.6530   -1.2243 O   0  0  0  0  0
   -3.5925    0.4132   -1.7520 C   0  0  1  0  0
   -3.7259    1.0928   -3.1165 C   0  0  1  0  0
   -5.0540    0.9244   -3.6019 O   0  0  0  0  0
   -5.1118    1.3847   -4.4569 H   0  0  0  0  0
   -3.4182    2.5862   -3.0063 C   0  0  2  0  0
   -3.3406    3.1496   -4.3177 O   0  0  0  0  0
   -2.6211    2.7017   -4.7940 H   0  0  0  0  0
   -2.1001    2.8254   -2.2749 C   0  0  1  0  0
   -2.0088    4.2284   -1.9803 O   0  0  0  0  0
   -1.1952    4.3634   -1.4655 H   0  0  0  0  0
   -1.2550    2.5845   -2.9185 H   0  0  0  0  0
   -4.2414    3.1089   -2.5056 H   0  0  0  0  0
   -3.0458    0.6270   -3.8409 H   0  0  0  0  0
   -3.7726   -1.0907   -1.8546 C   0  0  0  0  0
   -5.1484   -1.4204   -1.6887 O   0  0  0  0  0
   -5.6474   -0.9390   -2.3706 H   0  0  0  0  0
   -3.4534   -1.4734   -2.8294 H   0  0  0  0  0
   -3.2134   -1.6086   -1.0702 H   0  0  0  0  0
   -4.3359    0.8032   -1.0439 H   0  0  0  0  0
   -2.7789    2.4278   -0.2503 H   0  0  0  0  0
   -0.6247    0.4669    0.6376 H   0  0  0  0  0
    1.1238    2.9373    1.2138 H   0  0  0  0  0
    2.3461    1.4924   -0.9525 C   0  0  0  0  0
    3.6961    1.1356   -1.2237 O   0  0  0  0  0
    4.2598    1.6262   -0.6028 H   0  0  0  0  0
    2.2349    2.5678   -1.1286 H   0  0  0  0  0
    1.7044    0.9699   -1.6682 H   0  0  0  0  0
    3.2286   -0.6087    0.7420 H   0  0  0  0  0
    1.1743   -0.8642    2.5368 H   0  0  0  0  0
    1.9564    2.0250    3.1577 H   0  0  0  0  0
    0.1410    1.0571    4.5946 H   0  0  0  0  0
   -2.0644    1.6892    3.6981 H   0  0  0  0  0
  1  2  1  0  0  0
  1 11  1  0  0  0
  2  3  2  0  0  0
  2 46  1  0  0  0
  3  4  1  0  0  0
  3 45  1  0  0  0
  4  5  1  0  0  0
  4 10  1  0  0  0
  4 44  1  0  0  0
  5  6  1  0  0  0
  5  8  1  0  0  0
  5 43  1  0  0  0
  6  7  1  0  0  0
  8  9  2  0  0  0
  8 42  1  0  0  0
  9 10  1  0  0  0
  9 37  1  0  0  0
 10 11  1  0  0  0
 10 36  1  0  0  0
 11 12  1  0  0  0
 11 35  1  0  0  0
 12 13  1  0  0  0
 13 14  1  0  0  0
 13 22  1  0  0  0
 13 34  1  0  0  0
 14 15  1  0  0  0
 15 16  1  0  0  0
 15 28  1  0  0  0
 15 33  1  0  0  0
 16 17  1  0  0  0
 16 19  1  0  0  0
 16 27  1  0  0  0
 17 18  1  0  0  0
 19 20  1  0  0  0
 19 22  1  0  0  0
 19 26  1  0  0  0
 20 21  1  0  0  0
 22 23  1  0  0  0
 22 25  1  0  0  0
 23 24  1  0  0  0
 28 29  1  0  0  0
 28 31  1  0  0  0
 28 32  1  0  0  0
 29 30  1  0  0  0
 37 38  1  0  0  0
 37 40  1  0  0  0
 37 41  1  0  0  0
 38 39  1  0  0  0
M  END
> <Tumorigenic>
none

> <Score>
34.48271

> <Active/Decoy>
active

> <InChI>
InChI=1S/C15H22O9/c16-4-6-3-8(18)7-1-2-22-14(10(6)7)24-15-13(21)12(20)11(19)9(5-17)23-15/h1-3,7-21H,4-5H2/t7-,8+,9+,10+,11+,12-,13+,14-,15-/m0/s1

> <Matching Features>
H:14924486185440016873||HBA:14924321692640012300|HBA:14924486112070016868

> <Mol. Index>
757

> <Pharmacophore Match>
Model -1

> <# Confs.>
25

> <Source Database>
Pharm-Screening-input-NANPDB_After_DataWarror.ldb

> <Pharmacophore-Fit Score>
34.48

> <formula>
C15H22O9

> <Mutagenic>
none

> <Reproductive Effective>
none

> <Irritant>
none

$$$$
helioscopinolide A
XX    ILIB03122402123D

 51 54  0  0  1  0              1 V2000
   -6.1680    0.8865   -3.8761 O   0  0  0  0  0
   -5.0849    0.5443   -3.4353 C   0  0  0  0  0
   -3.9810    1.3478   -3.3385 O   0  0  0  0  0
   -2.8750    0.5599   -2.9018 C   0  0  2  0  0
   -3.4918   -0.7249   -2.5163 C   0  0  0  0  0
   -4.7706   -0.7852   -2.8804 C   0  0  0  0  0
   -5.7965   -1.8389   -2.7082 C   0  0  0  0  0
   -6.6322   -1.4656   -2.1094 H   0  0  0  0  0
   -5.3956   -2.7246   -2.2063 H   0  0  0  0  0
   -6.1833   -2.1539   -3.6817 H   0  0  0  0  0
   -2.6940   -1.6624   -1.7827 C   0  0  0  0  0
   -1.5919   -1.2607   -1.1208 C   0  0  0  0  0
   -0.7561   -2.2546   -0.3658 C   0  0  0  0  0
    0.5187   -1.6301    0.1971 C   0  0  0  0  0
    1.2848   -0.8129   -0.8698 C   0  0  2  0  0
    2.7129   -0.3603   -0.3671 C   0  0  0  0  0
    3.2618    0.7407   -1.3044 C   0  0  2  0  0
    4.5803    1.1338   -0.9230 O   0  0  0  0  0
    4.8822    1.8025   -1.5612 H   0  0  0  0  0
    2.3823    1.9859   -1.3600 C   0  0  0  0  0
    0.8974    1.7351   -1.1204 C   0  0  0  0  0
    0.3814    0.3310   -1.5212 C   0  0  2  0  0
   -1.1270    0.1941   -1.0559 C   0  0  1  0  0
   -2.1450    1.1751   -1.7141 C   0  0  0  0  0
   -2.8902    1.4596   -0.9561 H   0  0  0  0  0
   -1.6895    2.1237   -2.0117 H   0  0  0  0  0
   -1.1438    0.4685    0.0097 H   0  0  0  0  0
    0.4704    0.2029   -3.0641 C   0  0  0  0  0
   -0.0028   -0.7191   -3.4176 H   0  0  0  0  0
    1.5032    0.1811   -3.4205 H   0  0  0  0  0
   -0.0122    1.0476   -3.5653 H   0  0  0  0  0
    0.6807    1.9050   -0.0593 H   0  0  0  0  0
    0.3473    2.5230   -1.6466 H   0  0  0  0  0
    2.7343    2.7403   -0.6429 H   0  0  0  0  0
    2.5177    2.4542   -2.3434 H   0  0  0  0  0
    3.3577    0.3246   -2.3138 H   0  0  0  0  0
    2.7217    0.1186    1.1047 C   0  0  0  0  0
    1.9902    0.9046    1.2977 H   0  0  0  0  0
    3.7032    0.5114    1.3896 H   0  0  0  0  0
    2.5061   -0.7041    1.7958 H   0  0  0  0  0
    3.6796   -1.5729   -0.4333 C   0  0  0  0  0
    3.3328   -2.4054    0.1871 H   0  0  0  0  0
    4.6819   -1.3075   -0.0802 H   0  0  0  0  0
    3.7795   -1.9434   -1.4597 H   0  0  0  0  0
    1.4757   -1.5320   -1.6820 H   0  0  0  0  0
    1.1448   -2.4389    0.5904 H   0  0  0  0  0
    0.2626   -0.9938    1.0527 H   0  0  0  0  0
   -0.4812   -3.0801   -1.0348 H   0  0  0  0  0
   -1.3373   -2.6794    0.4612 H   0  0  0  0  0
   -3.0157   -2.6982   -1.7414 H   0  0  0  0  0
   -2.2030    0.4318   -3.7561 H   0  0  0  0  0
  1  2  2  0  0  0
  2  3  1  0  0  0
  2  6  1  0  0  0
  3  4  1  0  0  0
  4  5  1  0  0  0
  4 24  1  0  0  0
  4 51  1  0  0  0
  5  6  2  0  0  0
  5 11  1  0  0  0
  6  7  1  0  0  0
  7  8  1  0  0  0
  7  9  1  0  0  0
  7 10  1  0  0  0
 11 12  2  0  0  0
 11 50  1  0  0  0
 12 13  1  0  0  0
 12 23  1  0  0  0
 13 14  1  0  0  0
 13 48  1  0  0  0
 13 49  1  0  0  0
 14 15  1  0  0  0
 14 46  1  0  0  0
 14 47  1  0  0  0
 15 16  1  0  0  0
 15 22  1  0  0  0
 15 45  1  0  0  0
 16 17  1  0  0  0
 16 37  1  0  0  0
 16 41  1  0  0  0
 17 18  1  0  0  0
 17 20  1  0  0  0
 17 36  1  0  0  0
 18 19  1  0  0  0
 20 21  1  0  0  0
 20 34  1  0  0  0
 20 35  1  0  0  0
 21 22  1  0  0  0
 21 32  1  0  0  0
 21 33  1  0  0  0
 22 23  1  0  0  0
 22 28  1  0  0  0
 23 24  1  0  0  0
 23 27  1  0  0  0
 24 25  1  0  0  0
 24 26  1  0  0  0
 28 29  1  0  0  0
 28 30  1  0  0  0
 28 31  1  0  0  0
 37 38  1  0  0  0
 37 39  1  0  0  0
 37 40  1  0  0  0
 41 42  1  0  0  0
 41 43  1  0  0  0
 41 44  1  0  0  0
M  END
> <Tumorigenic>
none

> <Score>
34.480194

> <Active/Decoy>
active

> <InChI>
InChI=1S/C20H28O3/c1-11-13-9-12-5-6-16-19(2,3)17(21)7-8-20(16,4)14(12)10-15(13)23-18(11)22/h9,14-17,21H,5-8,10H2,1-4H3/t14-,15-,16+,17+,20+/m0/s1

> <Matching Features>
H:14924486185440016873||HBA:14924321692640012300|HBA:14924486112070016868

> <Mol. Index>
476

> <Pharmacophore Match>
Model -1

> <# Confs.>
4

> <Source Database>
Pharm-Screening-input-NANPDB_After_DataWarror.ldb

> <Pharmacophore-Fit Score>
34.48

> <formula>
C20H28O3

> <Mutagenic>
none

> <Reproductive Effective>
none

> <Irritant>
none

$$$$
methyl 4-O-beta-D-glucopyranosylcaffeate
XX    ILIB03122402123D

 45 46  0  0  1  0              1 V2000
    5.2943    1.4739   -1.5722 O   0  0  0  0  0
    4.6750    0.7463   -0.8126 C   0  0  0  0  0
    3.7760   -0.2108   -1.1491 O   0  0  0  0  0
    3.5459   -0.3642   -2.5534 C   0  0  0  0  0
    4.4763   -0.6328   -3.0642 H   0  0  0  0  0
    2.8230   -1.1721   -2.6941 H   0  0  0  0  0
    3.1290    0.5579   -2.9701 H   0  0  0  0  0
    4.7855    0.7629    0.6565 C   0  0  0  0  0
    3.8092    0.4645    1.5288 C   0  0  0  0  0
    2.4253    0.1039    1.2594 C   0  0  0  0  0
    1.9382   -1.1465    1.6509 C   0  0  0  0  0
    0.6164   -1.5130    1.3879 C   0  0  0  0  0
    0.2113   -2.7546    1.8009 O   0  0  0  0  0
   -0.7248   -2.8620    1.5589 H   0  0  0  0  0
   -0.2638   -0.6420    0.7410 C   0  0  0  0  0
   -1.5357   -1.1019    0.5503 O   0  0  0  0  0
   -2.2228   -0.5994   -0.5943 C   0  0  2  0  0
   -2.9432    0.5931   -0.2779 O   0  0  0  0  0
   -3.6317    1.1396   -1.4072 C   0  0  1  0  0
   -4.7062    0.1562   -1.8815 C   0  0  1  0  0
   -5.3255    0.6791   -3.0523 O   0  0  0  0  0
   -6.0673    0.0931   -3.2780 H   0  0  0  0  0
   -4.0879   -1.2057   -2.1982 C   0  0  2  0  0
   -5.1245   -2.1678   -2.3849 O   0  0  0  0  0
   -5.6347   -1.9031   -3.1703 H   0  0  0  0  0
   -3.1948   -1.6877   -1.0539 C   0  0  1  0  0
   -2.4592   -2.8331   -1.4842 O   0  0  0  0  0
   -1.8836   -2.5611   -2.2194 H   0  0  0  0  0
   -3.8161   -2.0187   -0.2123 H   0  0  0  0  0
   -3.5228   -1.1684   -3.1384 H   0  0  0  0  0
   -5.4800    0.0406   -1.1135 H   0  0  0  0  0
   -4.2353    2.4636   -0.9744 C   0  0  0  0  0
   -3.2107    3.3460   -0.5476 O   0  0  0  0  0
   -3.6422    4.1769   -0.2822 H   0  0  0  0  0
   -4.9508    2.3196   -0.1559 H   0  0  0  0  0
   -4.7798    2.9243   -1.8070 H   0  0  0  0  0
   -2.9030    1.3382   -2.2046 H   0  0  0  0  0
   -1.4769   -0.3927   -1.3751 H   0  0  0  0  0
    0.2088    0.6091    0.3420 C   0  0  0  0  0
    1.5306    0.9866    0.6132 C   0  0  0  0  0
    1.8555    1.9718    0.2862 H   0  0  0  0  0
   -0.4359    1.3399   -0.1380 H   0  0  0  0  0
    2.5936   -1.8522    2.1572 H   0  0  0  0  0
    4.0755    0.4453    2.5829 H   0  0  0  0  0
    5.7633    1.0216    1.0589 H   0  0  0  0  0
  1  2  2  0  0  0
  2  3  1  0  0  0
  2  8  1  0  0  0
  3  4  1  0  0  0
  4  5  1  0  0  0
  4  6  1  0  0  0
  4  7  1  0  0  0
  8  9  2  0  0  0
  8 45  1  0  0  0
  9 10  1  0  0  0
  9 44  1  0  0  0
 10 11  2  0  0  0
 10 40  1  0  0  0
 11 12  1  0  0  0
 11 43  1  0  0  0
 12 13  1  0  0  0
 12 15  2  0  0  0
 13 14  1  0  0  0
 15 16  1  0  0  0
 15 39  1  0  0  0
 16 17  1  0  0  0
 17 18  1  0  0  0
 17 26  1  0  0  0
 17 38  1  0  0  0
 18 19  1  0  0  0
 19 20  1  0  0  0
 19 32  1  0  0  0
 19 37  1  0  0  0
 20 21  1  0  0  0
 20 23  1  0  0  0
 20 31  1  0  0  0
 21 22  1  0  0  0
 23 24  1  0  0  0
 23 26  1  0  0  0
 23 30  1  0  0  0
 24 25  1  0  0  0
 26 27  1  0  0  0
 26 29  1  0  0  0
 27 28  1  0  0  0
 32 33  1  0  0  0
 32 35  1  0  0  0
 32 36  1  0  0  0
 33 34  1  0  0  0
 39 40  2  0  0  0
 39 42  1  0  0  0
 40 41  1  0  0  0
M  END
> <Tumorigenic>
none

> <Score>
34.479702

> <Active/Decoy>
active

> <InChI>
InChI=1S/C16H20O9/c1-23-12(19)5-3-8-2-4-10(9(18)6-8)24-16-15(22)14(21)13(20)11(7-17)25-16/h2-6,11,13-18,20-22H,7H2,1H3/b5-3+/t11-,13-,14+,15-,16-/m1/s1

> <Matching Features>
H:14924486185440016873||HBA:14924321692640012300|HBA:14924486112070016868

> <Mol. Index>
239

> <Pharmacophore Match>
Model -1

> <# Confs.>
25

> <Source Database>
Pharm-Screening-input-NANPDB_After_DataWarror.ldb

> <Pharmacophore-Fit Score>
34.48

> <formula>
C16H20O9

> <Mutagenic>
none

> <Reproductive Effective>
none

> <Irritant>
none

$$$$
8-C-phydroxybenzylquercetin
XX    ILIB03122402123D

 46 49  0  0  1  0              1 V2000
    3.2976    1.2941   -1.7712 O   0  0  0  0  0
    2.2195    0.9754   -1.2874 C   0  0  0  0  0
    0.9709    1.1059   -2.0751 C   0  0  0  0  0
    1.0720    1.6197   -3.3497 O   0  0  0  0  0
    2.0117    1.8093   -3.5153 H   0  0  0  0  0
   -0.1966    0.7465   -1.5130 C   0  0  0  0  0
   -0.3079    0.2562   -0.2226 O   0  0  0  0  0
    0.8191    0.0882    0.5474 C   0  0  0  0  0
    2.0935    0.4277    0.0789 C   0  0  0  0  0
    3.2038    0.2448    0.9081 C   0  0  0  0  0
    4.4613    0.5605    0.4711 O   0  0  0  0  0
    5.0988    0.3710    1.1802 H   0  0  0  0  0
    3.0416   -0.2586    2.1977 C   0  0  0  0  0
    1.7670   -0.5822    2.6644 C   0  0  0  0  0
    0.6213   -0.4177    1.8489 C   0  0  0  0  0
   -0.7389   -0.7798    2.3538 C   0  0  0  0  0
   -1.2984    0.2227    3.3288 C   0  0  0  0  0
   -1.9357   -0.2262    4.4955 C   0  0  0  0  0
   -2.4531    0.6827    5.4190 C   0  0  0  0  0
   -2.3370    2.0484    5.1795 C   0  0  0  0  0
   -2.8527    2.9143    6.1016 O   0  0  0  0  0
   -2.6929    3.8243    5.7959 H   0  0  0  0  0
   -1.7124    2.5176    4.0272 C   0  0  0  0  0
   -1.1955    1.6054    3.1057 C   0  0  0  0  0
   -0.7116    1.9819    2.2081 H   0  0  0  0  0
   -1.6226    3.5831    3.8358 H   0  0  0  0  0
   -2.9410    0.3180    6.3176 H   0  0  0  0  0
   -2.0314   -1.2905    4.6947 H   0  0  0  0  0
   -1.4301   -0.8577    1.4890 H   0  0  0  0  0
   -0.7347   -1.7685    2.7969 H   0  0  0  0  0
    1.7061   -1.0506    3.9505 O   0  0  0  0  0
    0.7813   -1.1449    4.2266 H   0  0  0  0  0
    3.9047   -0.3938    2.8457 H   0  0  0  0  0
   -1.4977    0.8418   -2.2022 C   0  0  0  0  0
   -2.6798    1.0693   -1.4761 C   0  0  0  0  0
   -3.9111    1.1548   -2.1279 C   0  0  0  0  0
   -5.0269    1.3782   -1.3699 O   0  0  0  0  0
   -5.7942    1.4104   -1.9676 H   0  0  0  0  0
   -3.9889    1.0146   -3.5081 C   0  0  0  0  0
   -5.2067    1.1040   -4.1221 O   0  0  0  0  0
   -5.0817    0.9778   -5.0778 H   0  0  0  0  0
   -2.8353    0.7856   -4.2489 C   0  0  0  0  0
   -1.6101    0.6972   -3.5954 C   0  0  0  0  0
   -0.7190    0.5154   -4.2111 H   0  0  0  0  0
   -2.8793    0.6692   -5.3277 H   0  0  0  0  0
   -2.6555    1.1858   -0.3942 H   0  0  0  0  0
  1  2  2  0  0  0
  2  3  1  0  0  0
  2  9  1  0  0  0
  3  4  1  0  0  0
  3  6  2  0  0  0
  4  5  1  0  0  0
  6  7  1  0  0  0
  6 34  1  0  0  0
  7  8  1  0  0  0
  8  9  2  0  0  0
  8 15  1  0  0  0
  9 10  1  0  0  0
 10 11  1  0  0  0
 10 13  2  0  0  0
 11 12  1  0  0  0
 13 14  1  0  0  0
 13 33  1  0  0  0
 14 15  2  0  0  0
 14 31  1  0  0  0
 15 16  1  0  0  0
 16 17  1  0  0  0
 16 29  1  0  0  0
 16 30  1  0  0  0
 17 18  2  0  0  0
 17 24  1  0  0  0
 18 19  1  0  0  0
 18 28  1  0  0  0
 19 20  2  0  0  0
 19 27  1  0  0  0
 20 21  1  0  0  0
 20 23  1  0  0  0
 21 22  1  0  0  0
 23 24  2  0  0  0
 23 26  1  0  0  0
 24 25  1  0  0  0
 31 32  1  0  0  0
 34 35  2  0  0  0
 34 43  1  0  0  0
 35 36  1  0  0  0
 35 46  1  0  0  0
 36 37  1  0  0  0
 36 39  2  0  0  0
 37 38  1  0  0  0
 39 40  1  0  0  0
 39 42  1  0  0  0
 40 41  1  0  0  0
 42 43  2  0  0  0
 42 45  1  0  0  0
 43 44  1  0  0  0
M  END
> <Tumorigenic>
none

> <Score>
34.4722

> <Active/Decoy>
active

> <InChI>
InChI=1S/C22H16O8/c23-12-4-1-10(2-5-12)7-13-15(25)9-17(27)18-19(28)20(29)21(30-22(13)18)11-3-6-14(24)16(26)8-11/h1-6,8-9,23-27,29H,7H2

> <Matching Features>
H:14924486185440016873||HBA:14924321692640012300|HBA:14924486112070016868

> <Mol. Index>
1314

> <Pharmacophore Match>
Model -1

> <# Confs.>
25

> <Source Database>
Pharm-Screening-input-NANPDB_After_DataWarror.ldb

> <Pharmacophore-Fit Score>
34.47

> <formula>
C22H16O8

> <Mutagenic>
none

> <Reproductive Effective>
none

> <Irritant>
none

$$$$
sinaicin
XX    ILIB03122402123D

 44 46  0  0  1  0              1 V2000
    1.4035    5.1976   -2.4218 O   0  0  0  0  0
    1.5016    4.0092   -2.6862 C   0  0  0  0  0
    0.4802    3.1119   -2.5888 O   0  0  0  0  0
    0.8787    1.8445   -3.1284 C   0  0  1  0  0
    2.4001    1.8325   -3.0432 C   0  0  2  0  0
    2.9927    1.1622   -1.7912 C   0  0  1  0  0
    4.3983    1.4193   -1.7295 O   0  0  0  0  0
    4.7881    1.1157   -2.5667 H   0  0  0  0  0
    2.3628    1.5905   -0.4650 C   0  0  0  0  0
    1.2286    0.6832   -0.0731 C   0  0  0  0  0
    0.0052    0.5580   -0.9494 C   0  0  2  0  0
    0.1169    0.6675   -2.4890 C   0  0  1  0  0
   -1.3639    0.7925   -2.8504 C   0  0  0  0  0
   -1.8880    0.4047   -4.0141 C   0  0  0  0  0
   -1.2649   -0.0010   -4.8040 H   0  0  0  0  0
   -2.9525    0.4895   -4.2023 H   0  0  0  0  0
   -2.1715    1.3166   -1.6924 C   0  0  1  0  0
   -3.1145    0.3212   -1.2871 O   0  0  0  0  0
   -4.3402    0.3609   -1.8966 C   0  0  0  0  0
   -4.5821    0.7630   -3.0226 O   0  0  0  0  0
   -5.3823   -0.1824   -0.9591 C   0  0  0  0  0
   -6.3763    0.1026   -1.3171 H   0  0  0  0  0
   -5.3084   -1.2705   -0.9283 H   0  0  0  0  0
   -5.2522    0.2409    0.0408 H   0  0  0  0  0
   -1.1268    1.5244   -0.5725 C   0  0  0  0  0
   -0.7734    2.5607   -0.5503 H   0  0  0  0  0
   -1.5304    1.2920    0.4195 H   0  0  0  0  0
   -2.6561    2.2696   -1.9415 H   0  0  0  0  0
    0.5205   -0.2709   -2.8886 H   0  0  0  0  0
   -0.3909   -0.4564   -0.7655 H   0  0  0  0  0
    1.3163   -0.0428    1.0565 C   0  0  0  0  0
    0.5170   -0.7099    1.3628 H   0  0  0  0  0
    2.1837    0.0141    1.7042 H   0  0  0  0  0
    3.1366    1.5745    0.3140 H   0  0  0  0  0
    2.0182    2.6280   -0.4812 H   0  0  0  0  0
    2.9018    0.0738   -1.9012 H   0  0  0  0  0
    2.7478    3.3214   -3.1732 C   0  0  1  0  0
    3.0317    3.7414   -4.6106 C   0  0  0  0  0
    2.1834    3.5309   -5.2711 H   0  0  0  0  0
    3.2278    4.8172   -4.6672 H   0  0  0  0  0
    3.9089    3.2166   -5.0011 H   0  0  0  0  0
    3.5835    3.6087   -2.5280 H   0  0  0  0  0
    2.8134    1.2811   -3.8996 H   0  0  0  0  0
    0.6098    1.8802   -4.1941 H   0  0  0  0  0
  1  2  2  0  0  0
  2  3  1  0  0  0
  2 37  1  0  0  0
  3  4  1  0  0  0
  4  5  1  0  0  0
  4 12  1  0  0  0
  4 44  1  0  0  0
  5  6  1  0  0  0
  5 37  1  0  0  0
  5 43  1  0  0  0
  6  7  1  0  0  0
  6  9  1  0  0  0
  6 36  1  0  0  0
  7  8  1  0  0  0
  9 10  1  0  0  0
  9 34  1  0  0  0
  9 35  1  0  0  0
 10 11  1  0  0  0
 10 31  2  0  0  0
 11 12  1  0  0  0
 11 25  1  0  0  0
 11 30  1  0  0  0
 12 13  1  0  0  0
 12 29  1  0  0  0
 13 14  2  0  0  0
 13 17  1  0  0  0
 14 15  1  0  0  0
 14 16  1  0  0  0
 17 18  1  0  0  0
 17 25  1  0  0  0
 17 28  1  0  0  0
 18 19  1  0  0  0
 19 20  2  0  0  0
 19 21  1  0  0  0
 21 22  1  0  0  0
 21 23  1  0  0  0
 21 24  1  0  0  0
 25 26  1  0  0  0
 25 27  1  0  0  0
 31 32  1  0  0  0
 31 33  1  0  0  0
 37 38  1  0  0  0
 37 42  1  0  0  0
 38 39  1  0  0  0
 38 40  1  0  0  0
 38 41  1  0  0  0
M  END
> <Tumorigenic>
none

> <Score>
34.472767

> <Active/Decoy>
active

> <InChI>
InChI=1S/C17H22O5/c1-7-5-12(19)15-9(3)17(20)22-16(15)14-8(2)13(6-11(7)14)21-10(4)18/h9,11-16,19H,1-2,5-6H2,3-4H3/t9-,11-,12+,13+,14-,15+,16-/m1/s1

> <Matching Features>
H:14924486185440016873||HBA:14924321692640012300|HBA:14924486112070016868

> <Mol. Index>
1105

> <Pharmacophore Match>
Model -1

> <# Confs.>
12

> <Source Database>
Pharm-Screening-input-NANPDB_After_DataWarror.ldb

> <Pharmacophore-Fit Score>
34.47

> <formula>
C17H22O5

> <Mutagenic>
none

> <Reproductive Effective>
none

> <Irritant>
none

$$$$
9-epi-6-p-hydroxybenzoylisolancerotrial
XX    ILIB03122402123D

 57 59  0  0  1  0              1 V2000
   -0.1171   -0.8868   -3.5524 O   0  0  0  0  0
   -0.7117    0.0433   -3.0603 C   0  0  0  0  0
   -0.2124    1.0107   -2.2651 O   0  0  0  0  0
    0.8980    0.6511   -1.4356 C   0  0  2  0  0
    0.8158    1.5214   -0.1509 C   0  0  1  0  0
   -0.4016    1.1726    0.7890 C   0  0  2  0  0
   -0.6738   -0.2326    0.7113 O   0  0  0  0  0
   -1.3256   -0.4575    1.3972 H   0  0  0  0  0
   -1.6947    1.9223    0.4183 C   0  0  0  0  0
   -2.8660    1.6010    1.3521 C   0  0  0  0  0
   -2.6534    1.8963    2.3835 H   0  0  0  0  0
   -3.7670    2.1363    1.0334 H   0  0  0  0  0
   -3.0999    0.5322    1.3434 H   0  0  0  0  0
   -1.4639    3.4349    0.3820 C   0  0  0  0  0
   -0.6457    3.6871   -0.3007 H   0  0  0  0  0
   -1.2165    3.8319    1.3727 H   0  0  0  0  0
   -2.3621    3.9537    0.0312 H   0  0  0  0  0
   -1.9851    1.6112   -0.5937 H   0  0  0  0  0
    0.0799    1.4720    2.2247 C   0  0  0  0  0
    1.4590    2.0981    2.0852 C   0  0  0  0  0
    2.0593    1.5213    0.7818 C   0  0  2  0  0
    3.1634    2.5074    0.3114 C   0  0  0  0  0
    3.8516    2.2617   -1.0333 C   0  0  1  0  0
    4.7443    1.1545   -0.9222 O   0  0  0  0  0
    5.2019    1.0567   -1.7749 H   0  0  0  0  0
    2.8996    2.0757   -2.1901 C   0  0  0  0  0
    2.1663    0.7646   -2.2875 C   0  0  0  0  0
    1.9181    0.5682   -3.3397 H   0  0  0  0  0
    2.8551   -0.0441   -2.0201 H   0  0  0  0  0
    2.7454    3.0253   -3.1260 C   0  0  0  0  0
    2.0732    2.8865   -3.9657 H   0  0  0  0  0
    3.2837    3.9667   -3.0713 H   0  0  0  0  0
    4.4940    3.1318   -1.2241 H   0  0  0  0  0
    2.7315    3.5182    0.2703 H   0  0  0  0  0
    3.9390    2.5434    1.0896 H   0  0  0  0  0
    2.6292    0.1203    1.0687 C   0  0  0  0  0
    3.4549    0.1812    1.7868 H   0  0  0  0  0
    3.0150   -0.3700    0.1742 H   0  0  0  0  0
    1.8793   -0.5504    1.4982 H   0  0  0  0  0
    1.3417    3.1872    2.0135 H   0  0  0  0  0
    2.0828    1.8995    2.9637 H   0  0  0  0  0
   -0.5792    2.1536    2.7714 H   0  0  0  0  0
    0.1496    0.5544    2.8210 H   0  0  0  0  0
    0.6701    2.5597   -0.4802 H   0  0  0  0  0
    0.7950   -0.4037   -1.1556 H   0  0  0  0  0
   -2.1680    0.2765   -3.2702 C   0  0  0  0  0
   -3.0057   -0.8255   -3.4859 C   0  0  0  0  0
   -4.3749   -0.6386   -3.6816 C   0  0  0  0  0
   -4.9034    0.6499   -3.6587 C   0  0  0  0  0
   -6.2403    0.8641   -3.8417 O   0  0  0  0  0
   -6.6776    0.0055   -3.9645 H   0  0  0  0  0
   -4.0799    1.7524   -3.4495 C   0  0  0  0  0
   -2.7096    1.5674   -3.2552 C   0  0  0  0  0
   -2.0903    2.4448   -3.0943 H   0  0  0  0  0
   -4.4945    2.7556   -3.4336 H   0  0  0  0  0
   -5.0154   -1.5002   -3.8475 H   0  0  0  0  0
   -2.6117   -1.8384   -3.5044 H   0  0  0  0  0
  1  2  2  0  0  0
  2  3  1  0  0  0
  2 46  1  0  0  0
  3  4  1  0  0  0
  4  5  1  0  0  0
  4 27  1  0  0  0
  4 45  1  0  0  0
  5  6  1  0  0  0
  5 21  1  0  0  0
  5 44  1  0  0  0
  6  7  1  0  0  0
  6  9  1  0  0  0
  6 19  1  0  0  0
  7  8  1  0  0  0
  9 10  1  0  0  0
  9 14  1  0  0  0
  9 18  1  0  0  0
 10 11  1  0  0  0
 10 12  1  0  0  0
 10 13  1  0  0  0
 14 15  1  0  0  0
 14 16  1  0  0  0
 14 17  1  0  0  0
 19 20  1  0  0  0
 19 42  1  0  0  0
 19 43  1  0  0  0
 20 21  1  0  0  0
 20 40  1  0  0  0
 20 41  1  0  0  0
 21 22  1  0  0  0
 21 36  1  0  0  0
 22 23  1  0  0  0
 22 34  1  0  0  0
 22 35  1  0  0  0
 23 24  1  0  0  0
 23 26  1  0  0  0
 23 33  1  0  0  0
 24 25  1  0  0  0
 26 27  1  0  0  0
 26 30  2  0  0  0
 27 28  1  0  0  0
 27 29  1  0  0  0
 30 31  1  0  0  0
 30 32  1  0  0  0
 36 37  1  0  0  0
 36 38  1  0  0  0
 36 39  1  0  0  0
 46 47  2  0  0  0
 46 53  1  0  0  0
 47 48  1  0  0  0
 47 57  1  0  0  0
 48 49  2  0  0  0
 48 56  1  0  0  0
 49 50  1  0  0  0
 49 52  1  0  0  0
 50 51  1  0  0  0
 52 53  2  0  0  0
 52 55  1  0  0  0
 53 54  1  0  0  0
M  END
> <Tumorigenic>
none

> <Score>
34.472847

> <Active/Decoy>
active

> <InChI>
InChI=1S/C22H30O5/c1-13(2)22(26)10-9-21(4)12-17(24)14(3)11-18(19(21)22)27-20(25)15-5-7-16(23)8-6-15/h5-8,13,17-19,23-24,26H,3,9-12H2,1-2,4H3/t17-,18+,19-,21-,22-/m1/s1

> <Matching Features>
H:14924486185440016873||HBA:14924321692640012300|HBA:14924486112070016868

> <Mol. Index>
899

> <Pharmacophore Match>
Model -1

> <# Confs.>
25

> <Source Database>
Pharm-Screening-input-NANPDB_After_DataWarror.ldb

> <Pharmacophore-Fit Score>
34.47

> <formula>
C22H30O5

> <Mutagenic>
none

> <Reproductive Effective>
none

> <Irritant>
none

$$$$
8-C-p-hydroxybenzylkaempferol
XX    ILIB03122402123D

 45 48  0  0  1  0              1 V2000
    3.2895    1.2931   -1.7711 O   0  0  0  0  0
    2.2129    0.9742   -1.2840 C   0  0  0  0  0
    0.9620    1.1042   -2.0680 C   0  0  0  0  0
    1.0592    1.6176   -3.3430 O   0  0  0  0  0
    1.9983    1.8074   -3.5115 H   0  0  0  0  0
   -0.2038    0.7446   -1.5023 C   0  0  0  0  0
   -0.3111    0.2547   -0.2115 O   0  0  0  0  0
    0.8183    0.0872    0.5552 C   0  0  0  0  0
    2.0912    0.4269    0.0828 C   0  0  0  0  0
    3.2040    0.2445    0.9088 C   0  0  0  0  0
    4.4601    0.5604    0.4679 O   0  0  0  0  0
    5.0998    0.3713    1.1752 H   0  0  0  0  0
    3.0457   -0.2585    2.1990 C   0  0  0  0  0
    1.7727   -0.5824    2.6696 C   0  0  0  0  0
    0.6245   -0.4184    1.8575 C   0  0  0  0  0
   -0.7475   -0.7567    2.3460 C   0  0  0  0  0
   -1.2928    0.2211    3.3431 C   0  0  0  0  0
   -1.1897    1.6032    3.1225 C   0  0  0  0  0
   -1.6996    2.5133    4.0498 C   0  0  0  0  0
   -2.3154    2.0431    5.2060 C   0  0  0  0  0
   -2.8024    2.9555    6.0983 O   0  0  0  0  0
   -3.1938    2.4761    6.8481 H   0  0  0  0  0
   -2.4271    0.6767    5.4463 C   0  0  0  0  0
   -1.9169   -0.2306    4.5158 C   0  0  0  0  0
   -2.0099   -1.2953    4.7146 H   0  0  0  0  0
   -2.9052    0.3071    6.3478 H   0  0  0  0  0
   -1.6119    3.5794    3.8639 H   0  0  0  0  0
   -0.7054    1.9831    2.2262 H   0  0  0  0  0
   -0.7305   -1.7692    2.8098 H   0  0  0  0  0
   -1.4255   -0.8587    1.5019 H   0  0  0  0  0
    1.7157   -1.0503    3.9560 O   0  0  0  0  0
    0.7918   -1.1448    4.2349 H   0  0  0  0  0
    3.9108   -0.3934    2.8444 H   0  0  0  0  0
   -1.5073    0.8393   -2.1875 C   0  0  0  0  0
   -1.7450    0.1324   -3.3802 C   0  0  0  0  0
   -2.9763    0.2141   -4.0370 C   0  0  0  0  0
   -3.9884    1.0054   -3.5054 C   0  0  0  0  0
   -5.2027    1.1051   -4.1235 O   0  0  0  0  0
   -5.1885    0.5522   -4.9223 H   0  0  0  0  0
   -3.7834    1.7150   -2.3286 C   0  0  0  0  0
   -2.5508    1.6318   -1.6751 C   0  0  0  0  0
   -2.4272    2.1998   -0.7558 H   0  0  0  0  0
   -4.5738    2.3325   -1.9096 H   0  0  0  0  0
   -3.1305   -0.3437   -4.9571 H   0  0  0  0  0
   -0.9759   -0.4969   -3.8228 H   0  0  0  0  0
  1  2  2  0  0  0
  2  3  1  0  0  0
  2  9  1  0  0  0
  3  4  1  0  0  0
  3  6  2  0  0  0
  4  5  1  0  0  0
  6  7  1  0  0  0
  6 34  1  0  0  0
  7  8  1  0  0  0
  8  9  2  0  0  0
  8 15  1  0  0  0
  9 10  1  0  0  0
 10 11  1  0  0  0
 10 13  2  0  0  0
 11 12  1  0  0  0
 13 14  1  0  0  0
 13 33  1  0  0  0
 14 15  2  0  0  0
 14 31  1  0  0  0
 15 16  1  0  0  0
 16 17  1  0  0  0
 16 29  1  0  0  0
 16 30  1  0  0  0
 17 18  2  0  0  0
 17 24  1  0  0  0
 18 19  1  0  0  0
 18 28  1  0  0  0
 19 20  2  0  0  0
 19 27  1  0  0  0
 20 21  1  0  0  0
 20 23  1  0  0  0
 21 22  1  0  0  0
 23 24  2  0  0  0
 23 26  1  0  0  0
 24 25  1  0  0  0
 31 32  1  0  0  0
 34 35  2  0  0  0
 34 41  1  0  0  0
 35 36  1  0  0  0
 35 45  1  0  0  0
 36 37  2  0  0  0
 36 44  1  0  0  0
 37 38  1  0  0  0
 37 40  1  0  0  0
 38 39  1  0  0  0
 40 41  2  0  0  0
 40 43  1  0  0  0
 41 42  1  0  0  0
M  END
> <Tumorigenic>
none

> <Score>
34.455273

> <Active/Decoy>
active

> <InChI>
InChI=1S/C22H16O7/c23-13-5-1-11(2-6-13)9-15-16(25)10-17(26)18-19(27)20(28)21(29-22(15)18)12-3-7-14(24)8-4-12/h1-8,10,23-26,28H,9H2

> <Matching Features>
H:14924486185440016873||HBA:14924321692640012300|HBA:14924486112070016868

> <Mol. Index>
1315

> <Pharmacophore Match>
Model -1

> <# Confs.>
19

> <Source Database>
Pharm-Screening-input-NANPDB_After_DataWarror.ldb

> <Pharmacophore-Fit Score>
34.46

> <formula>
C22H16O7

> <Mutagenic>
none

> <Reproductive Effective>
none

> <Irritant>
none

$$$$
N-cis-feruloyltyramine
XX    ILIB03122402123D

 42 43  0  0  1  0              1 V2000
    3.3524    1.5681   -2.4684 O   0  0  0  0  0
    2.2929    1.8207   -1.9071 C   0  0  0  0  0
    1.2842    2.6213   -2.3825 N   0  0  0  0  0
    1.3581    3.2567   -3.6861 C   0  0  0  0  0
    0.7760    2.3515   -4.7730 C   0  0  0  0  0
   -0.6679    1.9981   -4.5471 C   0  0  0  0  0
   -1.6821    2.8178   -5.0632 C   0  0  0  0  0
   -3.0260    2.5064   -4.8517 C   0  0  0  0  0
   -3.3629    1.3720   -4.1200 C   0  0  0  0  0
   -4.6855    1.0950   -3.9239 O   0  0  0  0  0
   -4.7559    0.2822   -3.3941 H   0  0  0  0  0
   -2.3728    0.5432   -3.5990 C   0  0  0  0  0
   -1.0301    0.8566   -3.8130 C   0  0  0  0  0
   -0.2651    0.2045   -3.3981 H   0  0  0  0  0
   -2.6316   -0.3423   -3.0267 H   0  0  0  0  0
   -3.7989    3.1525   -5.2588 H   0  0  0  0  0
   -1.4320    3.7077   -5.6351 H   0  0  0  0  0
    0.8890    2.8275   -5.7567 H   0  0  0  0  0
    1.3564    1.4214   -4.8192 H   0  0  0  0  0
    0.7980    4.1915   -3.6209 H   0  0  0  0  0
    2.4015    3.4911   -3.9089 H   0  0  0  0  0
    0.4224    2.7115   -1.8632 H   0  0  0  0  0
    1.9828    1.3031   -0.5414 C   0  0  0  0  0
    2.8040    0.5055    0.1579 C   0  0  0  0  0
    2.5057   -0.0235    1.4934 C   0  0  0  0  0
    1.1766   -0.0873    1.9591 C   0  0  0  0  0
    0.8755   -0.6003    3.2286 C   0  0  0  0  0
   -0.4419   -0.5820    3.5878 O   0  0  0  0  0
   -1.1658   -1.7781    3.3104 C   0  0  0  0  0
   -1.1923   -1.9841    2.2365 H   0  0  0  0  0
   -0.7529   -2.6279    3.8648 H   0  0  0  0  0
   -2.1963   -1.6295    3.6480 H   0  0  0  0  0
    1.9089   -1.0207    4.0644 C   0  0  0  0  0
    1.6356   -1.4451    5.3348 O   0  0  0  0  0
    2.4709   -1.6845    5.7715 H   0  0  0  0  0
    3.2277   -0.9758    3.6193 C   0  0  0  0  0
    3.5193   -0.4907    2.3410 C   0  0  0  0  0
    4.5623   -0.4643    2.0347 H   0  0  0  0  0
    4.0419   -1.3040    4.2604 H   0  0  0  0  0
    0.3538    0.2576    1.3354 H   0  0  0  0  0
    3.7646    0.2055   -0.2530 H   0  0  0  0  0
    1.0185    1.6123   -0.1490 H   0  0  0  0  0
  1  2  2  0  0  0
  2  3  1  0  0  0
  2 23  1  0  0  0
  3  4  1  0  0  0
  3 22  1  0  0  0
  4  5  1  0  0  0
  4 20  1  0  0  0
  4 21  1  0  0  0
  5  6  1  0  0  0
  5 18  1  0  0  0
  5 19  1  0  0  0
  6  7  2  0  0  0
  6 13  1  0  0  0
  7  8  1  0  0  0
  7 17  1  0  0  0
  8  9  2  0  0  0
  8 16  1  0  0  0
  9 10  1  0  0  0
  9 12  1  0  0  0
 10 11  1  0  0  0
 12 13  2  0  0  0
 12 15  1  0  0  0
 13 14  1  0  0  0
 23 24  2  0  0  0
 23 42  1  0  0  0
 24 25  1  0  0  0
 24 41  1  0  0  0
 25 26  2  0  0  0
 25 37  1  0  0  0
 26 27  1  0  0  0
 26 40  1  0  0  0
 27 28  1  0  0  0
 27 33  2  0  0  0
 28 29  1  0  0  0
 29 30  1  0  0  0
 29 31  1  0  0  0
 29 32  1  0  0  0
 33 34  1  0  0  0
 33 36  1  0  0  0
 34 35  1  0  0  0
 36 37  2  0  0  0
 36 39  1  0  0  0
 37 38  1  0  0  0
M  END
> <Tumorigenic>
none

> <Score>
34.452854

> <Active/Decoy>
active

> <InChI>
InChI=1S/C18H19NO4/c1-23-17-12-14(4-8-16(17)21)5-9-18(22)19-11-10-13-2-6-15(20)7-3-13/h2-9,12,20-21H,10-11H2,1H3,(H,19,22)/b9-5-

> <Matching Features>
H:14924486185440016873||HBA:14924321692640012300|HBA:14924486112070016868

> <Mol. Index>
1004

> <Pharmacophore Match>
Model -1

> <# Confs.>
25

> <Source Database>
Pharm-Screening-input-NANPDB_After_DataWarror.ldb

> <Pharmacophore-Fit Score>
34.45

> <formula>
C18H19NO4

> <Mutagenic>
none

> <Reproductive Effective>
none

> <Irritant>
none

$$$$
naamidine B
XX    ILIB03122402123D

 59 62  0  0  1  0              1 V2000
   -6.2405    0.8709   -3.8596 O   0  0  0  0  0
   -5.8665    0.6239   -2.7188 C   0  0  0  0  0
   -4.6033    0.1632   -2.3904 N   0  0  0  0  0
   -4.5519    0.0176   -1.1015 C   0  0  0  0  0
   -3.5364   -0.4143   -0.2875 N   0  0  0  0  0
   -2.3024   -0.8016   -0.6852 C   0  0  0  0  0
   -1.8138   -0.8575   -1.9086 N   0  0  0  0  0
   -0.5211   -1.3035   -1.7973 C   0  0  0  0  0
    0.3352   -1.4447   -2.9885 C   0  0  0  0  0
    0.0984   -2.8488   -3.4880 C   0  0  0  0  0
   -0.9115   -3.1399   -4.3999 C   0  0  0  0  0
   -1.1200   -4.4456   -4.8556 C   0  0  0  0  0
   -0.3138   -5.4852   -4.3994 C   0  0  0  0  0
   -0.4118   -6.7960   -4.7676 O   0  0  0  0  0
   -1.4458   -7.0849   -5.7057 C   0  0  0  0  0
   -2.4316   -6.8506   -5.2896 H   0  0  0  0  0
   -1.4174   -8.1593   -5.9138 H   0  0  0  0  0
   -1.2831   -6.5572   -6.6503 H   0  0  0  0  0
    0.7061   -5.2064   -3.4771 C   0  0  0  0  0
    0.9132   -3.9022   -3.0222 C   0  0  0  0  0
    1.7097   -3.7128   -2.3081 H   0  0  0  0  0
    1.3460   -6.0047   -3.1077 H   0  0  0  0  0
   -1.9219   -4.6130   -5.5691 H   0  0  0  0  0
   -1.5532   -2.3444   -4.7702 H   0  0  0  0  0
    0.0486   -0.7255   -3.7676 H   0  0  0  0  0
    1.3831   -1.2809   -2.7584 H   0  0  0  0  0
   -0.1990   -1.5191   -0.4543 C   0  0  0  0  0
   -1.3569   -1.2182    0.2319 N   0  0  0  0  0
   -1.5676   -1.3299    1.6592 C   0  0  0  0  0
   -1.6370   -0.3080    2.0669 H   0  0  0  0  0
   -2.4862   -1.8780    1.8416 H   0  0  0  0  0
   -0.7384   -1.8515    2.1341 H   0  0  0  0  0
    1.0711   -1.9734    0.1727 C   0  0  0  0  0
    1.9840   -0.8373    0.5408 C   0  0  0  0  0
    2.9312   -0.3621   -0.3728 C   0  0  0  0  0
    3.7843    0.6850   -0.0157 C   0  0  0  0  0
    4.7077    1.1471   -0.9152 O   0  0  0  0  0
    4.6317    0.6304   -1.7351 H   0  0  0  0  0
    3.7141    1.2763    1.2493 C   0  0  0  0  0
    4.5915    2.2957    1.4900 O   0  0  0  0  0
    4.5016    2.8821    2.7853 C   0  0  0  0  0
    3.5191    3.3397    2.9455 H   0  0  0  0  0
    5.2527    3.6777    2.8438 H   0  0  0  0  0
    4.7284    2.1518    3.5695 H   0  0  0  0  0
    2.7746    0.7951    2.1647 C   0  0  0  0  0
    1.9197   -0.2561    1.8129 C   0  0  0  0  0
    1.1994   -0.6149    2.5438 H   0  0  0  0  0
    2.6789    1.2104    3.1637 H   0  0  0  0  0
    3.0011   -0.8085   -1.3617 H   0  0  0  0  0
    0.8487   -2.5627    1.0727 H   0  0  0  0  0
    1.5976   -2.6623   -0.5010 H   0  0  0  0  0
   -3.7401   -0.4390    0.7097 H   0  0  0  0  0
   -5.8761    0.4129   -0.5038 C   0  0  0  0  0
   -6.6205    0.7596   -1.5812 N   0  0  0  0  0
   -7.9929    1.2169   -1.5328 C   0  0  0  0  0
   -7.9862    2.3100   -1.4940 H   0  0  0  0  0
   -8.5238    0.8974   -2.4329 H   0  0  0  0  0
   -8.4872    0.8309   -0.6363 H   0  0  0  0  0
   -6.1025    0.3892    0.6846 O   0  0  0  0  0
  1  2  2  0  0  0
  2  3  1  0  0  0
  2 54  1  0  0  0
  3  4  2  0  0  0
  4  5  1  0  0  0
  4 53  1  0  0  0
  5  6  1  0  0  0
  5 52  1  0  0  0
  6  7  2  0  0  0
  6 28  1  0  0  0
  7  8  1  0  0  0
  8  9  1  0  0  0
  8 27  2  0  0  0
  9 10  1  0  0  0
  9 25  1  0  0  0
  9 26  1  0  0  0
 10 11  2  0  0  0
 10 20  1  0  0  0
 11 12  1  0  0  0
 11 24  1  0  0  0
 12 13  2  0  0  0
 12 23  1  0  0  0
 13 14  1  0  0  0
 13 19  1  0  0  0
 14 15  1  0  0  0
 15 16  1  0  0  0
 15 17  1  0  0  0
 15 18  1  0  0  0
 19 20  2  0  0  0
 19 22  1  0  0  0
 20 21  1  0  0  0
 27 28  1  0  0  0
 27 33  1  0  0  0
 28 29  1  0  0  0
 29 30  1  0  0  0
 29 31  1  0  0  0
 29 32  1  0  0  0
 33 34  1  0  0  0
 33 50  1  0  0  0
 33 51  1  0  0  0
 34 35  2  0  0  0
 34 46  1  0  0  0
 35 36  1  0  0  0
 35 49  1  0  0  0
 36 37  1  0  0  0
 36 39  2  0  0  0
 37 38  1  0  0  0
 39 40  1  0  0  0
 39 45  1  0  0  0
 40 41  1  0  0  0
 41 42  1  0  0  0
 41 43  1  0  0  0
 41 44  1  0  0  0
 45 46  2  0  0  0
 45 48  1  0  0  0
 46 47  1  0  0  0
 53 54  1  0  0  0
 53 59  2  0  0  0
 54 55  1  0  0  0
 55 56  1  0  0  0
 55 57  1  0  0  0
 55 58  1  0  0  0
M  END
> <Tumorigenic>
none

> <Score>
34.451733

> <Active/Decoy>
active

> <InChI>
InChI=1S/C24H25N5O5/c1-28-18(12-15-7-10-20(34-4)19(30)13-15)17(11-14-5-8-16(33-3)9-6-14)25-23(28)26-21-22(31)29(2)24(32)27-21/h5-10,13,30H,11-12H2,1-4H3,(H,25,26,27,32)

> <Matching Features>
H:14924486185440016873||HBA:14924321692640012300|HBA:14924486112070016868

> <Mol. Index>
607

> <Pharmacophore Match>
Model -1

> <# Confs.>
25

> <Source Database>
Pharm-Screening-input-NANPDB_After_DataWarror.ldb

> <Pharmacophore-Fit Score>
34.45

> <formula>
C24H25N5O5

> <Mutagenic>
none

> <Reproductive Effective>
none

> <Irritant>
none

$$$$
trans-N-feruloyltyramine
XX    ILIB03122402123D

 42 43  0  0  1  0              1 V2000
    3.3524    1.5681   -2.4684 O   0  0  0  0  0
    2.2929    1.8207   -1.9071 C   0  0  0  0  0
    1.2842    2.6213   -2.3825 N   0  0  0  0  0
    1.3581    3.2567   -3.6861 C   0  0  0  0  0
    0.7760    2.3515   -4.7730 C   0  0  0  0  0
   -0.6679    1.9981   -4.5471 C   0  0  0  0  0
   -1.6821    2.8178   -5.0632 C   0  0  0  0  0
   -3.0260    2.5064   -4.8517 C   0  0  0  0  0
   -3.3629    1.3720   -4.1200 C   0  0  0  0  0
   -4.6855    1.0950   -3.9239 O   0  0  0  0  0
   -4.7559    0.2822   -3.3941 H   0  0  0  0  0
   -2.3728    0.5432   -3.5990 C   0  0  0  0  0
   -1.0301    0.8566   -3.8130 C   0  0  0  0  0
   -0.2651    0.2045   -3.3981 H   0  0  0  0  0
   -2.6316   -0.3423   -3.0267 H   0  0  0  0  0
   -3.7989    3.1525   -5.2588 H   0  0  0  0  0
   -1.4320    3.7077   -5.6351 H   0  0  0  0  0
    0.8890    2.8275   -5.7567 H   0  0  0  0  0
    1.3564    1.4214   -4.8192 H   0  0  0  0  0
    0.7980    4.1915   -3.6209 H   0  0  0  0  0
    2.4015    3.4911   -3.9089 H   0  0  0  0  0
    0.4224    2.7115   -1.8632 H   0  0  0  0  0
    1.9828    1.3031   -0.5414 C   0  0  0  0  0
    2.8040    0.5055    0.1579 C   0  0  0  0  0
    2.5057   -0.0235    1.4934 C   0  0  0  0  0
    1.1766   -0.0873    1.9591 C   0  0  0  0  0
    0.8755   -0.6003    3.2286 C   0  0  0  0  0
   -0.4419   -0.5820    3.5878 O   0  0  0  0  0
   -1.1658   -1.7781    3.3104 C   0  0  0  0  0
   -1.1923   -1.9841    2.2365 H   0  0  0  0  0
   -0.7529   -2.6279    3.8648 H   0  0  0  0  0
   -2.1963   -1.6295    3.6480 H   0  0  0  0  0
    1.9089   -1.0207    4.0644 C   0  0  0  0  0
    1.6356   -1.4451    5.3348 O   0  0  0  0  0
    2.4709   -1.6845    5.7715 H   0  0  0  0  0
    3.2277   -0.9758    3.6193 C   0  0  0  0  0
    3.5193   -0.4907    2.3410 C   0  0  0  0  0
    4.5623   -0.4643    2.0347 H   0  0  0  0  0
    4.0419   -1.3040    4.2604 H   0  0  0  0  0
    0.3538    0.2576    1.3354 H   0  0  0  0  0
    3.7646    0.2055   -0.2530 H   0  0  0  0  0
    1.0185    1.6123   -0.1490 H   0  0  0  0  0
  1  2  2  0  0  0
  2  3  1  0  0  0
  2 23  1  0  0  0
  3  4  1  0  0  0
  3 22  1  0  0  0
  4  5  1  0  0  0
  4 20  1  0  0  0
  4 21  1  0  0  0
  5  6  1  0  0  0
  5 18  1  0  0  0
  5 19  1  0  0  0
  6  7  2  0  0  0
  6 13  1  0  0  0
  7  8  1  0  0  0
  7 17  1  0  0  0
  8  9  2  0  0  0
  8 16  1  0  0  0
  9 10  1  0  0  0
  9 12  1  0  0  0
 10 11  1  0  0  0
 12 13  2  0  0  0
 12 15  1  0  0  0
 13 14  1  0  0  0
 23 24  2  0  0  0
 23 42  1  0  0  0
 24 25  1  0  0  0
 24 41  1  0  0  0
 25 26  2  0  0  0
 25 37  1  0  0  0
 26 27  1  0  0  0
 26 40  1  0  0  0
 27 28  1  0  0  0
 27 33  2  0  0  0
 28 29  1  0  0  0
 29 30  1  0  0  0
 29 31  1  0  0  0
 29 32  1  0  0  0
 33 34  1  0  0  0
 33 36  1  0  0  0
 34 35  1  0  0  0
 36 37  2  0  0  0
 36 39  1  0  0  0
 37 38  1  0  0  0
M  END
> <Tumorigenic>
none

> <Score>
34.452854

> <Active/Decoy>
active

> <InChI>
InChI=1S/C18H19NO4/c1-23-17-12-14(4-8-16(17)21)5-9-18(22)19-11-10-13-2-6-15(20)7-3-13/h2-9,12,20-21H,10-11H2,1H3,(H,19,22)/b9-5+

> <Matching Features>
H:14924486185440016873||HBA:14924321692640012300|HBA:14924486112070016868

> <Mol. Index>
198

> <Pharmacophore Match>
Model -1

> <# Confs.>
25

> <Source Database>
Pharm-Screening-input-NANPDB_After_DataWarror.ldb

> <Pharmacophore-Fit Score>
34.45

> <formula>
C18H19NO4

> <Mutagenic>
none

> <Reproductive Effective>
none

> <Irritant>
none

$$$$
1beta,10alpha-epoxy-3beta-hydroxy-7alpha,11alphaH-germacra-4Z-en-12,6beta-olide
XX    ILIB03122402123D

 41 43  0  0  1  0              1 V2000
   -4.1854    0.9359   -3.3412 O   0  0  0  0  0
   -3.2257    1.1812   -2.6248 C   0  0  0  0  0
   -2.2203    2.0400   -2.9644 O   0  0  0  0  0
   -1.2151    2.1049   -1.9380 C   0  0  2  0  0
    0.0324    1.4415   -2.4372 C   0  0  0  0  0
    1.2929    1.9210   -2.4162 C   0  0  0  0  0
    2.4531    0.9609   -2.6658 C   0  0  1  0  0
    3.7092    1.6126   -2.4650 O   0  0  0  0  0
    4.4092    0.9908   -2.7271 H   0  0  0  0  0
    2.4374   -0.3271   -1.8085 C   0  0  0  0  0
    2.5469   -0.1374   -0.3154 C   0  0  1  0  0
    1.9966    1.0709    0.2109 O   0  0  0  0  0
    1.3533   -0.1245    0.6622 C   0  0  1  0  0
   -0.0782   -0.2795    0.1948 C   0  0  0  0  0
   -0.9563    0.9610    0.4321 C   0  0  0  0  0
   -1.8707    1.4636   -0.7069 C   0  0  2  0  0
   -2.9692    0.5641   -1.2652 C   0  0  2  0  0
   -2.6962   -0.9209   -1.4443 C   0  0  0  0  0
   -3.5649   -1.4162   -1.8959 H   0  0  0  0  0
   -2.5176   -1.4074   -0.4820 H   0  0  0  0  0
   -1.8521   -1.1131   -2.1118 H   0  0  0  0  0
   -3.8735    0.6895   -0.6661 H   0  0  0  0  0
   -2.4279    2.2956   -0.2413 H   0  0  0  0  0
   -1.6002    0.7421    1.2959 H   0  0  0  0  0
   -0.3369    1.8087    0.7496 H   0  0  0  0  0
   -0.1001   -0.6008   -0.8415 H   0  0  0  0  0
   -0.5185   -1.1209    0.7461 H   0  0  0  0  0
    1.6089   -0.4091    2.1116 C   0  0  0  0  0
    1.4084   -1.4618    2.3321 H   0  0  0  0  0
    2.6470   -0.1995    2.3918 H   0  0  0  0  0
    0.9615    0.2061    2.7449 H   0  0  0  0  0
    3.5150   -0.4426    0.0623 H   0  0  0  0  0
    1.5741   -0.9509   -2.0567 H   0  0  0  0  0
    3.3081   -0.9287   -2.1042 H   0  0  0  0  0
    2.4247    0.6797   -3.7256 H   0  0  0  0  0
    1.6501    3.3461   -2.0827 C   0  0  0  0  0
    2.2788    3.7678   -2.8749 H   0  0  0  0  0
    2.2014    3.3973   -1.1391 H   0  0  0  0  0
    0.7868    4.0071   -1.9960 H   0  0  0  0  0
   -0.1104    0.4163   -2.7715 H   0  0  0  0  0
   -1.0507    3.1647   -1.7312 H   0  0  0  0  0
  1  2  2  0  0  0
  2  3  1  0  0  0
  2 17  1  0  0  0
  3  4  1  0  0  0
  4  5  1  0  0  0
  4 16  1  0  0  0
  4 41  1  0  0  0
  5  6  2  0  0  0
  5 40  1  0  0  0
  6  7  1  0  0  0
  6 36  1  0  0  0
  7  8  1  0  0  0
  7 10  1  0  0  0
  7 35  1  0  0  0
  8  9  1  0  0  0
 10 11  1  0  0  0
 10 33  1  0  0  0
 10 34  1  0  0  0
 11 12  1  0  0  0
 11 13  1  0  0  0
 11 32  1  0  0  0
 12 13  1  0  0  0
 13 14  1  0  0  0
 13 28  1  0  0  0
 14 15  1  0  0  0
 14 26  1  0  0  0
 14 27  1  0  0  0
 15 16  1  0  0  0
 15 24  1  0  0  0
 15 25  1  0  0  0
 16 17  1  0  0  0
 16 23  1  0  0  0
 17 18  1  0  0  0
 17 22  1  0  0  0
 18 19  1  0  0  0
 18 20  1  0  0  0
 18 21  1  0  0  0
 28 29  1  0  0  0
 28 30  1  0  0  0
 28 31  1  0  0  0
 36 37  1  0  0  0
 36 38  1  0  0  0
 36 39  1  0  0  0
M  END
> <Tumorigenic>
none

> <Score>
34.4417

> <Active/Decoy>
active

> <InChI>
InChI=1S/C15H22O4/c1-8-6-12-10(9(2)14(17)18-12)4-5-15(3)13(19-15)7-11(8)16/h6,9-13,16H,4-5,7H2,1-3H3/b8-6+/t9-,10+,11-,12+,13+,15-/m0/s1

> <Matching Features>
H:14924486185440016873||HBA:14924321692640012300|HBA:14924486112070016868

> <Mol. Index>
1234

> <Pharmacophore Match>
Model -1

> <# Confs.>
4

> <Source Database>
Pharm-Screening-input-NANPDB_After_DataWarror.ldb

> <Pharmacophore-Fit Score>
34.44

> <formula>
C15H22O4

> <Mutagenic>
none

> <Reproductive Effective>
none

> <Irritant>
none

$$$$
3alpha-methoxy isocostic acid
XX    ILIB03122402123D

 43 44  0  0  1  0              1 V2000
   -2.9442   -0.9900   -3.3922 O   0  0  0  0  0
   -3.2279    0.0191   -2.7641 C   0  0  0  0  0
   -4.2936    0.8080   -3.0433 O   0  0  0  0  0
   -4.4205    1.5934   -2.4691 H   0  0  0  0  0
   -2.4656    0.5531   -1.6231 C   0  0  0  0  0
   -3.1899    1.2103   -0.7071 C   0  0  0  0  0
   -2.7237    1.6234    0.1814 H   0  0  0  0  0
   -4.2574    1.3670   -0.8241 H   0  0  0  0  0
   -1.0075    0.2684   -1.5094 C   0  0  1  0  0
   -0.2744    1.4095   -0.7605 C   0  0  0  0  0
    1.2223    1.1624   -0.6327 C   0  0  0  0  0
    2.1734    2.0575   -0.9990 C   0  0  0  0  0
    3.6610    1.7912   -0.8255 C   0  0  2  0  0
    4.1953    1.5440   -2.1230 O   0  0  0  0  0
    5.5553    1.9400   -2.2451 C   0  0  0  0  0
    6.1926    1.3653   -1.5670 H   0  0  0  0  0
    5.6608    3.0106   -2.0458 H   0  0  0  0  0
    5.8770    1.7442   -3.2709 H   0  0  0  0  0
    3.9756    0.6264    0.1148 C   0  0  0  0  0
    3.0780   -0.5600   -0.1991 C   0  0  0  0  0
    1.5751   -0.2137   -0.0363 C   0  0  2  0  0
    0.7808   -1.3373   -0.7548 C   0  0  0  0  0
   -0.7209   -1.0786   -0.8515 C   0  0  0  0  0
   -1.1722   -1.1294    0.1463 H   0  0  0  0  0
   -1.1826   -1.8822   -1.4394 H   0  0  0  0  0
    1.1644   -1.4628   -1.7768 H   0  0  0  0  0
    0.9449   -2.2961   -0.2476 H   0  0  0  0  0
    1.2306   -0.2124    1.4718 C   0  0  0  0  0
    0.1623   -0.0659    1.6583 H   0  0  0  0  0
    1.7569    0.5851    2.0076 H   0  0  0  0  0
    1.5091   -1.1646    1.9388 H   0  0  0  0  0
    3.2846   -0.8882   -1.2266 H   0  0  0  0  0
    3.3472   -1.4044    0.4476 H   0  0  0  0  0
    5.0209    0.3148    0.0136 H   0  0  0  0  0
    3.8369    0.9395    1.1557 H   0  0  0  0  0
    4.1330    2.6936   -0.4116 H   0  0  0  0  0
    1.9016    3.4189   -1.5969 C   0  0  0  0  0
    2.1822    3.4262   -2.6551 H   0  0  0  0  0
    2.4940    4.1833   -1.0816 H   0  0  0  0  0
    0.8660    3.7494   -1.5223 H   0  0  0  0  0
   -0.4942    2.3442   -1.2943 H   0  0  0  0  0
   -0.6911    1.5403    0.2393 H   0  0  0  0  0
   -0.5861    0.2372   -2.5312 H   0  0  0  0  0
  1  2  2  0  0  0
  2  3  1  0  0  0
  2  5  1  0  0  0
  3  4  1  0  0  0
  5  6  2  0  0  0
  5  9  1  0  0  0
  6  7  1  0  0  0
  6  8  1  0  0  0
  9 10  1  0  0  0
  9 23  1  0  0  0
  9 43  1  0  0  0
 10 11  1  0  0  0
 10 41  1  0  0  0
 10 42  1  0  0  0
 11 12  2  0  0  0
 11 21  1  0  0  0
 12 13  1  0  0  0
 12 37  1  0  0  0
 13 14  1  0  0  0
 13 19  1  0  0  0
 13 36  1  0  0  0
 14 15  1  0  0  0
 15 16  1  0  0  0
 15 17  1  0  0  0
 15 18  1  0  0  0
 19 20  1  0  0  0
 19 34  1  0  0  0
 19 35  1  0  0  0
 20 21  1  0  0  0
 20 32  1  0  0  0
 20 33  1  0  0  0
 21 22  1  0  0  0
 21 28  1  0  0  0
 22 23  1  0  0  0
 22 26  1  0  0  0
 22 27  1  0  0  0
 23 24  1  0  0  0
 23 25  1  0  0  0
 28 29  1  0  0  0
 28 30  1  0  0  0
 28 31  1  0  0  0
 37 38  1  0  0  0
 37 39  1  0  0  0
 37 40  1  0  0  0
M  END
> <Tumorigenic>
none

> <Score>
34.44173

> <Active/Decoy>
active

> <InChI>
InChI=1S/C16H24O3/c1-10(15(17)18)12-5-7-16(3)8-6-14(19-4)11(2)13(16)9-12/h12,14H,1,5-9H2,2-4H3,(H,17,18)/t12-,14-,16+/m1/s1

> <Matching Features>
H:14924486185440016873||HBA:14924321692640012300|HBA:14924486112070016868

> <Mol. Index>
1068

> <Pharmacophore Match>
Model -1

> <# Confs.>
25

> <Source Database>
Pharm-Screening-input-NANPDB_After_DataWarror.ldb

> <Pharmacophore-Fit Score>
34.44

> <formula>
C16H24O3

> <Mutagenic>
none

> <Reproductive Effective>
none

> <Irritant>
none

$$$$
6-hydroxyhyoscyamine
XX    ILIB03122402123D

 45 47  0  0  1  0              1 V2000
   -0.5871   -1.0762   -1.3507 O   0  0  0  0  0
   -0.0442    0.0103   -1.2149 C   0  0  0  0  0
   -0.6807    1.2258   -1.2389 O   0  0  0  0  0
   -2.1053    1.2215   -1.4321 C   0  0  2  0  0
   -2.5032    2.5234   -2.1489 C   0  0  0  0  0
   -4.0076    2.8403   -2.0231 C   0  0  2  0  0
   -4.2840    2.9425   -0.5772 N   0  0  0  0  0
   -5.5321    3.6392   -0.2782 C   0  0  0  0  0
   -5.6770    3.6948    0.8058 H   0  0  0  0  0
   -6.4198    3.1679   -0.7106 H   0  0  0  0  0
   -5.4840    4.6699   -0.6425 H   0  0  0  0  0
   -4.3038    1.5295   -0.1539 C   0  0  2  0  0
   -2.8306    1.0837   -0.0813 C   0  0  0  0  0
   -2.3026    1.6721    0.6816 H   0  0  0  0  0
   -2.7711    0.0420    0.2568 H   0  0  0  0  0
   -5.0658    0.7944   -1.2660 C   0  0  0  0  0
   -4.9270    1.7047   -2.4917 C   0  0  2  0  0
   -4.4096    1.0105   -3.6109 O   0  0  0  0  0
   -5.0011    0.2595   -3.7889 H   0  0  0  0  0
   -5.9113    2.1021   -2.7702 H   0  0  0  0  0
   -6.1269    0.7166   -0.9981 H   0  0  0  0  0
   -4.6929   -0.2206   -1.4374 H   0  0  0  0  0
   -4.7672    1.3865    0.8282 H   0  0  0  0  0
   -4.2121    3.7738   -2.5594 H   0  0  0  0  0
   -2.2101    2.4593   -3.2039 H   0  0  0  0  0
   -1.9197    3.3600   -1.7384 H   0  0  0  0  0
   -2.3709    0.3731   -2.0760 H   0  0  0  0  0
    1.4451    0.1986   -1.0364 C   0  0  1  0  0
    1.9367    1.5288   -1.6040 C   0  0  0  0  0
    3.2773    1.3974   -2.0478 O   0  0  0  0  0
    3.5487    2.2636   -2.3972 H   0  0  0  0  0
    1.8839    2.3190   -0.8390 H   0  0  0  0  0
    1.3125    1.8407   -2.4479 H   0  0  0  0  0
    1.8323   -0.0122    0.3969 C   0  0  0  0  0
    3.0990   -0.5234    0.7143 C   0  0  0  0  0
    3.4663   -0.7369    2.0433 C   0  0  0  0  0
    2.5729   -0.4458    3.0704 C   0  0  0  0  0
    1.3085    0.0567    2.7718 C   0  0  0  0  0
    0.9392    0.2706    1.4426 C   0  0  0  0  0
   -0.0536    0.6580    1.2283 H   0  0  0  0  0
    0.6090    0.2810    3.5705 H   0  0  0  0  0
    2.8595   -0.6125    4.1051 H   0  0  0  0  0
    4.4499   -1.1324    2.2768 H   0  0  0  0  0
    3.8101   -0.7594   -0.0733 H   0  0  0  0  0
    1.9134   -0.5784   -1.6552 H   0  0  0  0  0
  1  2  2  0  0  0
  2  3  1  0  0  0
  2 28  1  0  0  0
  3  4  1  0  0  0
  4  5  1  0  0  0
  4 13  1  0  0  0
  4 27  1  0  0  0
  5  6  1  0  0  0
  5 25  1  0  0  0
  5 26  1  0  0  0
  6  7  1  0  0  0
  6 17  1  0  0  0
  6 24  1  0  0  0
  7  8  1  0  0  0
  7 12  1  0  0  0
  8  9  1  0  0  0
  8 10  1  0  0  0
  8 11  1  0  0  0
 12 13  1  0  0  0
 12 16  1  0  0  0
 12 23  1  0  0  0
 13 14  1  0  0  0
 13 15  1  0  0  0
 16 17  1  0  0  0
 16 21  1  0  0  0
 16 22  1  0  0  0
 17 18  1  0  0  0
 17 20  1  0  0  0
 18 19  1  0  0  0
 28 29  1  0  0  0
 28 34  1  0  0  0
 28 45  1  0  0  0
 29 30  1  0  0  0
 29 32  1  0  0  0
 29 33  1  0  0  0
 30 31  1  0  0  0
 34 35  2  0  0  0
 34 39  1  0  0  0
 35 36  1  0  0  0
 35 44  1  0  0  0
 36 37  2  0  0  0
 36 43  1  0  0  0
 37 38  1  0  0  0
 37 42  1  0  0  0
 38 39  2  0  0  0
 38 41  1  0  0  0
 39 40  1  0  0  0
M  END
> <Tumorigenic>
none

> <Score>
34.43243

> <Active/Decoy>
active

> <InChI>
InChI=1S/C17H23NO4/c1-18-12-7-13(9-15(18)16(20)8-12)22-17(21)14(10-19)11-5-3-2-4-6-11/h2-6,12-16,19-20H,7-10H2,1H3/t12-,13-,14-,15+,16-/m0/s1

> <Matching Features>
H:14924486185440016873||HBA:14924321692640012300|HBA:14924486112070016868

> <Mol. Index>
794

> <Pharmacophore Match>
Model -1

> <# Confs.>
25

> <Source Database>
Pharm-Screening-input-NANPDB_After_DataWarror.ldb

> <Pharmacophore-Fit Score>
34.43

> <formula>
C17H23NO4

> <Mutagenic>
none

> <Reproductive Effective>
none

> <Irritant>
none

$$$$
N-E-caffeoyl tyramine
XX    ILIB03122402123D

 39 40  0  0  1  0              1 V2000
    3.3376    1.5651   -2.4653 O   0  0  0  0  0
    2.2832    1.8325   -1.8842 C   0  0  0  0  0
    1.2785    2.6092   -2.4082 N   0  0  0  0  0
    1.3449    3.2426   -3.7036 C   0  0  0  0  0
    0.7884    2.3675   -4.8052 C   0  0  0  0  0
   -0.6564    2.0283   -4.5764 C   0  0  0  0  0
   -1.6836    2.8470   -5.0723 C   0  0  0  0  0
   -3.0222    2.5257   -4.8466 C   0  0  0  0  0
   -3.3417    1.3820   -4.1214 C   0  0  0  0  0
   -4.6602    1.0934   -3.9115 O   0  0  0  0  0
   -4.7190    0.2757   -3.3893 H   0  0  0  0  0
   -2.3397    0.5569   -3.6185 C   0  0  0  0  0
   -1.0010    0.8808   -3.8469 C   0  0  0  0  0
   -0.2278    0.2286   -3.4493 H   0  0  0  0  0
   -2.5859   -0.3359   -3.0509 H   0  0  0  0  0
   -3.8056    3.1702   -5.2379 H   0  0  0  0  0
   -1.4465    3.7472   -5.6355 H   0  0  0  0  0
    1.3717    1.4406   -4.8777 H   0  0  0  0  0
    0.8946    2.8676   -5.7766 H   0  0  0  0  0
    0.8268    4.2150   -3.6606 H   0  0  0  0  0
    2.4108    3.4453   -3.8880 H   0  0  0  0  0
    0.4043    2.7116   -1.8797 H   0  0  0  0  0
    1.9594    1.3093   -0.5430 C   0  0  0  0  0
    2.7693    0.5148    0.1731 C   0  0  0  0  0
    2.4388   -0.0309    1.4941 C   0  0  0  0  0
    1.1098   -0.0839    1.9408 C   0  0  0  0  0
    0.8028   -0.5850    3.2075 C   0  0  0  0  0
   -0.5108   -0.6192    3.5865 O   0  0  0  0  0
   -0.5565   -0.9887    4.4839 H   0  0  0  0  0
    1.8110   -1.0327    4.0527 C   0  0  0  0  0
    1.4831   -1.5195    5.2875 O   0  0  0  0  0
    2.3010   -1.7801    5.7434 H   0  0  0  0  0
    3.1364   -0.9811    3.6375 C   0  0  0  0  0
    3.4486   -0.4812    2.3693 C   0  0  0  0  0
    4.4963   -0.4516    2.0802 H   0  0  0  0  0
    3.9376   -1.3233    4.2864 H   0  0  0  0  0
    0.2943    0.2558    1.3058 H   0  0  0  0  0
    3.7360    0.2114   -0.2213 H   0  0  0  0  0
    0.9801    1.6004   -0.1746 H   0  0  0  0  0
  1  2  2  0  0  0
  2  3  1  0  0  0
  2 23  1  0  0  0
  3  4  1  0  0  0
  3 22  1  0  0  0
  4  5  1  0  0  0
  4 20  1  0  0  0
  4 21  1  0  0  0
  5  6  1  0  0  0
  5 18  1  0  0  0
  5 19  1  0  0  0
  6  7  2  0  0  0
  6 13  1  0  0  0
  7  8  1  0  0  0
  7 17  1  0  0  0
  8  9  2  0  0  0
  8 16  1  0  0  0
  9 10  1  0  0  0
  9 12  1  0  0  0
 10 11  1  0  0  0
 12 13  2  0  0  0
 12 15  1  0  0  0
 13 14  1  0  0  0
 23 24  2  0  0  0
 23 39  1  0  0  0
 24 25  1  0  0  0
 24 38  1  0  0  0
 25 26  2  0  0  0
 25 34  1  0  0  0
 26 27  1  0  0  0
 26 37  1  0  0  0
 27 28  1  0  0  0
 27 30  2  0  0  0
 28 29  1  0  0  0
 30 31  1  0  0  0
 30 33  1  0  0  0
 31 32  1  0  0  0
 33 34  2  0  0  0
 33 36  1  0  0  0
 34 35  1  0  0  0
M  END
> <Tumorigenic>
none

> <Score>
34.430016

> <Active/Decoy>
active

> <InChI>
InChI=1S/C17H17NO4/c19-14-5-1-12(2-6-14)9-10-18-17(22)8-4-13-3-7-15(20)16(21)11-13/h1-8,11,19-21H,9-10H2,(H,18,22)/b8-4+

> <Matching Features>
H:14924486185440016873||HBA:14924321692640012300|HBA:14924486112070016868

> <Mol. Index>
673

> <Pharmacophore Match>
Model -1

> <# Confs.>
25

> <Source Database>
Pharm-Screening-input-NANPDB_After_DataWarror.ldb

> <Pharmacophore-Fit Score>
34.43

> <formula>
C17H17NO4

> <Mutagenic>
none

> <Reproductive Effective>
none

> <Irritant>
none

$$$$
(-)-isolariciresinol
XX    ILIB03122402123D

 50 52  0  0  1  0              1 V2000
    1.7772    1.0829    3.9334 O   0  0  0  0  0
    1.5215    0.6096    2.6785 C   0  0  0  0  0
    1.4769   -0.7804    2.5423 C   0  0  0  0  0
    1.6851   -1.6052    3.6145 O   0  0  0  0  0
    1.8628   -1.0494    4.3936 H   0  0  0  0  0
    1.2197   -1.3762    1.3108 C   0  0  0  0  0
    1.0026   -0.5768    0.1901 C   0  0  0  0  0
    1.0349    0.8039    0.2837 C   0  0  0  0  0
    1.2998    1.4049    1.5474 C   0  0  0  0  0
    1.3162    2.4895    1.6150 H   0  0  0  0  0
    0.7887    1.6673   -0.9145 C   0  0  2  0  0
   -0.5894    1.4312   -1.5209 C   0  0  0  0  0
   -0.7712    1.2369   -2.9042 C   0  0  0  0  0
   -2.0610    0.9952   -3.4192 C   0  0  0  0  0
   -3.1795    0.9842   -2.5842 C   0  0  0  0  0
   -4.4662    0.7653   -2.9898 O   0  0  0  0  0
   -4.6309    0.5229   -4.3844 C   0  0  0  0  0
   -4.3108    1.3881   -4.9764 H   0  0  0  0  0
   -5.6981    0.3666   -4.5710 H   0  0  0  0  0
   -4.1007   -0.3830   -4.6949 H   0  0  0  0  0
   -2.9948    1.2233   -1.2234 C   0  0  0  0  0
   -1.7233    1.4482   -0.6977 C   0  0  0  0  0
   -1.6221    1.6382    0.3685 H   0  0  0  0  0
   -4.0508    1.2422   -0.3529 O   0  0  0  0  0
   -4.8623    1.0533   -0.8568 H   0  0  0  0  0
   -2.1602    0.8285   -4.4894 H   0  0  0  0  0
    0.3905    1.2572   -3.8597 C   0  0  0  0  0
    1.5847    2.0700   -3.3289 C   0  0  2  0  0
    2.7192    2.0342   -4.3363 C   0  0  0  0  0
    2.2907    2.5915   -5.5675 O   0  0  0  0  0
    3.0456    2.5485   -6.1797 H   0  0  0  0  0
    3.0616    1.0066   -4.5067 H   0  0  0  0  0
    3.5756    2.6080   -3.9655 H   0  0  0  0  0
    1.9867    1.5146   -1.9372 C   0  0  1  0  0
    3.2480    2.1580   -1.3918 C   0  0  0  0  0
    4.3906    1.4780   -1.8855 O   0  0  0  0  0
    5.1707    1.9227   -1.5125 H   0  0  0  0  0
    3.2609    2.1328   -0.2967 H   0  0  0  0  0
    3.3016    3.2093   -1.6960 H   0  0  0  0  0
    2.2080    0.4496   -2.0718 H   0  0  0  0  0
    1.2620    3.1155   -3.2236 H   0  0  0  0  0
    0.0571    1.6884   -4.8120 H   0  0  0  0  0
    0.6934    0.2209   -4.0567 H   0  0  0  0  0
    0.7760    2.7228   -0.6082 H   0  0  0  0  0
    0.8018   -1.0537   -0.7658 H   0  0  0  0  0
    1.1869   -2.4582    1.2157 H   0  0  0  0  0
    1.8191    2.5021    4.0543 C   0  0  0  0  0
    2.6233    2.9260    3.4440 H   0  0  0  0  0
    2.0310    2.7414    5.0993 H   0  0  0  0  0
    0.8530    2.9497    3.7978 H   0  0  0  0  0
  1  2  1  0  0  0
  1 47  1  0  0  0
  2  3  2  0  0  0
  2  9  1  0  0  0
  3  4  1  0  0  0
  3  6  1  0  0  0
  4  5  1  0  0  0
  6  7  2  0  0  0
  6 46  1  0  0  0
  7  8  1  0  0  0
  7 45  1  0  0  0
  8  9  2  0  0  0
  8 11  1  0  0  0
  9 10  1  0  0  0
 11 12  1  0  0  0
 11 34  1  0  0  0
 11 44  1  0  0  0
 12 13  2  0  0  0
 12 22  1  0  0  0
 13 14  1  0  0  0
 13 27  1  0  0  0
 14 15  2  0  0  0
 14 26  1  0  0  0
 15 16  1  0  0  0
 15 21  1  0  0  0
 16 17  1  0  0  0
 17 18  1  0  0  0
 17 19  1  0  0  0
 17 20  1  0  0  0
 21 22  2  0  0  0
 21 24  1  0  0  0
 22 23  1  0  0  0
 24 25  1  0  0  0
 27 28  1  0  0  0
 27 42  1  0  0  0
 27 43  1  0  0  0
 28 29  1  0  0  0
 28 34  1  0  0  0
 28 41  1  0  0  0
 29 30  1  0  0  0
 29 32  1  0  0  0
 29 33  1  0  0  0
 30 31  1  0  0  0
 34 35  1  0  0  0
 34 40  1  0  0  0
 35 36  1  0  0  0
 35 38  1  0  0  0
 35 39  1  0  0  0
 36 37  1  0  0  0
 47 48  1  0  0  0
 47 49  1  0  0  0
 47 50  1  0  0  0
M  END
> <Tumorigenic>
none

> <Score>
34.418312

> <Active/Decoy>
active

> <InChI>
InChI=1S/C20H24O6/c1-25-18-6-11(3-4-16(18)23)20-14-8-17(24)19(26-2)7-12(14)5-13(9-21)15(20)10-22/h3-4,6-8,13,15,20-24H,5,9-10H2,1-2H3/t13-,15-,20-/m1/s1

> <Matching Features>
H:14924486185440016873||HBA:14924321692640012300|HBA:14924486112070016868

> <Mol. Index>
989

> <Pharmacophore Match>
Model -1

> <# Confs.>
25

> <Source Database>
Pharm-Screening-input-NANPDB_After_DataWarror.ldb

> <Pharmacophore-Fit Score>
34.42

> <formula>
C20H24O6

> <Mutagenic>
none

> <Reproductive Effective>
none

> <Irritant>
none

$$$$
4beta-hydroxy-6alpha-p-hydroxybenzoyloxy-10alpha-acetyloxydauc-8-ene
XX    ILIB03122402123D

 62 64  0  0  1  0              1 V2000
    0.2120    3.9248   -1.2286 O   0  0  0  0  0
    0.0383    2.7718   -1.5898 C   0  0  0  0  0
    0.9841    1.8116   -1.7174 O   0  0  0  0  0
    2.1001    1.8973   -0.8312 C   0  0  2  0  0
    3.3895    1.3144   -1.4358 C   0  0  2  0  0
    3.9573    2.0221   -2.7048 C   0  0  2  0  0
    5.3974    1.8876   -2.6179 O   0  0  0  0  0
    5.7768    2.1665   -3.4686 H   0  0  0  0  0
    3.7032    3.5210   -2.9498 C   0  0  0  0  0
    4.2420    4.4149   -1.8287 C   0  0  0  0  0
    5.3277    4.3250   -1.7257 H   0  0  0  0  0
    4.0143    5.4658   -2.0349 H   0  0  0  0  0
    3.7856    4.1643   -0.8664 H   0  0  0  0  0
    4.2893    3.9677   -4.2919 C   0  0  0  0  0
    3.8955    3.3569   -5.1106 H   0  0  0  0  0
    5.3817    3.8912   -4.3035 H   0  0  0  0  0
    4.0268    5.0100   -4.4984 H   0  0  0  0  0
    2.6169    3.6732   -3.0001 H   0  0  0  0  0
    3.4940    1.1288   -3.8530 C   0  0  0  0  0
    3.7686   -0.2707   -3.3217 C   0  0  0  0  0
    3.3670   -0.2313   -1.8159 C   0  0  2  0  0
    2.0376   -1.0313   -1.6419 C   0  0  2  0  0
    1.0380   -0.6078   -2.5804 O   0  0  0  0  0
    0.5715   -1.5494   -3.4296 C   0  0  0  0  0
    0.9184   -2.7230   -3.4746 O   0  0  0  0  0
   -0.4666   -0.9463   -4.3249 C   0  0  0  0  0
   -1.3344   -0.6447   -3.7331 H   0  0  0  0  0
   -0.7853   -1.6873   -5.0633 H   0  0  0  0  0
   -0.0471   -0.0909   -4.8602 H   0  0  0  0  0
    1.4247   -1.0895   -0.2717 C   0  0  0  0  0
    1.3402   -0.1420    0.6746 C   0  0  0  0  0
    1.7776    1.2953    0.5636 C   0  0  0  0  0
    2.6460    1.4360    1.2208 H   0  0  0  0  0
    0.9723    1.9048    0.9955 H   0  0  0  0  0
    0.7256   -0.4839    2.0107 C   0  0  0  0  0
    1.4345   -0.2718    2.8178 H   0  0  0  0  0
    0.4459   -1.5397    2.0876 H   0  0  0  0  0
   -0.1787    0.1101    2.1756 H   0  0  0  0  0
    1.0150   -2.0717   -0.0307 H   0  0  0  0  0
    2.2907   -2.0742   -1.8921 H   0  0  0  0  0
    4.4682   -0.9575   -1.0007 C   0  0  0  0  0
    5.4501   -0.4957   -1.1530 H   0  0  0  0  0
    4.5557   -2.0083   -1.2995 H   0  0  0  0  0
    4.2576   -0.9280    0.0727 H   0  0  0  0  0
    4.8339   -0.5035   -3.4402 H   0  0  0  0  0
    3.2273   -1.0259   -3.9008 H   0  0  0  0  0
    4.0568    1.3007   -4.7765 H   0  0  0  0  0
    2.4278    1.2554   -4.0654 H   0  0  0  0  0
    4.1474    1.4331   -0.6459 H   0  0  0  0  0
    2.2863    2.9587   -0.6303 H   0  0  0  0  0
   -1.2821    2.2339   -1.9690 C   0  0  0  0  0
   -1.9744    2.8208   -3.0354 C   0  0  0  0  0
   -3.2232    2.3263   -3.4194 C   0  0  0  0  0
   -3.7739    1.2456   -2.7347 C   0  0  0  0  0
   -4.9906    0.7359   -3.0884 O   0  0  0  0  0
   -5.3293    1.2431   -3.8467 H   0  0  0  0  0
   -3.0953    0.6574   -1.6699 C   0  0  0  0  0
   -1.8484    1.1517   -1.2852 C   0  0  0  0  0
   -1.3416    0.6747   -0.4520 H   0  0  0  0  0
   -3.5298   -0.1845   -1.1389 H   0  0  0  0  0
   -3.7506    2.7887   -4.2472 H   0  0  0  0  0
   -1.5594    3.6631   -3.5828 H   0  0  0  0  0
  1  2  2  0  0  0
  2  3  1  0  0  0
  2 51  1  0  0  0
  3  4  1  0  0  0
  4  5  1  0  0  0
  4 32  1  0  0  0
  4 50  1  0  0  0
  5  6  1  0  0  0
  5 21  1  0  0  0
  5 49  1  0  0  0
  6  7  1  0  0  0
  6  9  1  0  0  0
  6 19  1  0  0  0
  7  8  1  0  0  0
  9 10  1  0  0  0
  9 14  1  0  0  0
  9 18  1  0  0  0
 10 11  1  0  0  0
 10 12  1  0  0  0
 10 13  1  0  0  0
 14 15  1  0  0  0
 14 16  1  0  0  0
 14 17  1  0  0  0
 19 20  1  0  0  0
 19 47  1  0  0  0
 19 48  1  0  0  0
 20 21  1  0  0  0
 20 45  1  0  0  0
 20 46  1  0  0  0
 21 22  1  0  0  0
 21 41  1  0  0  0
 22 23  1  0  0  0
 22 30  1  0  0  0
 22 40  1  0  0  0
 23 24  1  0  0  0
 24 25  2  0  0  0
 24 26  1  0  0  0
 26 27  1  0  0  0
 26 28  1  0  0  0
 26 29  1  0  0  0
 30 31  2  0  0  0
 30 39  1  0  0  0
 31 32  1  0  0  0
 31 35  1  0  0  0
 32 33  1  0  0  0
 32 34  1  0  0  0
 35 36  1  0  0  0
 35 37  1  0  0  0
 35 38  1  0  0  0
 41 42  1  0  0  0
 41 43  1  0  0  0
 41 44  1  0  0  0
 51 52  2  0  0  0
 51 58  1  0  0  0
 52 53  1  0  0  0
 52 62  1  0  0  0
 53 54  2  0  0  0
 53 61  1  0  0  0
 54 55  1  0  0  0
 54 57  1  0  0  0
 55 56  1  0  0  0
 57 58  2  0  0  0
 57 60  1  0  0  0
 58 59  1  0  0  0
M  END
> <Tumorigenic>
none

> <Score>
34.406868

> <Active/Decoy>
active

> <InChI>
InChI=1S/C24H32O6/c1-14(2)24(28)11-10-23(5)20(29-16(4)25)13-15(3)12-19(21(23)24)30-22(27)17-6-8-18(26)9-7-17/h6-9,13-14,19-21,26,28H,10-12H2,1-5H3/t19-,20+,21-,23+,24+/m0/s1

> <Matching Features>
H:14924486185440016873||HBA:14924321692640012300|HBA:14924486112070016868

> <Mol. Index>
943

> <Pharmacophore Match>
Model -1

> <# Confs.>
25

> <Source Database>
Pharm-Screening-input-NANPDB_After_DataWarror.ldb

> <Pharmacophore-Fit Score>
34.41

> <formula>
C24H32O6

> <Mutagenic>
none

> <Reproductive Effective>
none

> <Irritant>
none

$$$$
malvinidin-3-arabinoside
XX    ILIB03122402123D

 56 59  0  0  1  0              1 V2000
    0.4074    1.3956   -0.8570 O   0  3  0  0  0
   -0.5813    1.0445   -0.1416 C   0  0  0  0  0
   -0.3962    0.2048    0.9854 C   0  0  0  0  0
   -1.5034   -0.1568    1.7025 O   0  0  0  0  0
   -1.3022   -0.3718    3.1073 C   0  0  1  0  0
   -0.8038    0.8055    3.7527 O   0  0  0  0  0
   -0.6012    0.6320    5.1566 C   0  0  0  0  0
   -1.9207    0.3199    5.8528 C   0  0  1  0  0
   -2.7900    1.4445    5.7107 O   0  0  0  0  0
   -2.3611    2.2017    6.1435 H   0  0  0  0  0
   -2.5745   -0.9036    5.2158 C   0  0  1  0  0
   -3.8715   -1.1064    5.7693 O   0  0  0  0  0
   -4.3930   -0.3034    5.6000 H   0  0  0  0  0
   -2.6655   -0.7596    3.6962 C   0  0  2  0  0
   -3.0684   -2.0155    3.1543 O   0  0  0  0  0
   -3.1010   -1.9133    2.1838 H   0  0  0  0  0
   -3.4334   -0.0241    3.4276 H   0  0  0  0  0
   -1.9904   -1.7992    5.4590 H   0  0  0  0  0
   -1.7752    0.1576    6.9258 H   0  0  0  0  0
    0.1377   -0.1598    5.3222 H   0  0  0  0  0
   -0.1844    1.5696    5.5353 H   0  0  0  0  0
   -0.5930   -1.2023    3.2432 H   0  0  0  0  0
    0.8909   -0.1909    1.3008 C   0  0  0  0  0
    1.9349    0.2362    0.4925 C   0  0  0  0  0
    1.5996    1.0504   -0.5962 C   0  0  0  0  0
    2.5992    1.5199   -1.4579 C   0  0  0  0  0
    3.9301    1.1742   -1.2365 C   0  0  0  0  0
    4.9168    1.6167   -2.0715 O   0  0  0  0  0
    4.5118    2.1615   -2.7676 H   0  0  0  0  0
    4.2882    0.3697   -0.1604 C   0  0  0  0  0
    3.2923   -0.0931    0.7004 C   0  0  0  0  0
    3.6349   -0.8868    1.7640 O   0  0  0  0  0
    4.5979   -1.0176    1.7580 H   0  0  0  0  0
    5.3291    0.1073    0.0039 H   0  0  0  0  0
    2.3249    2.1502   -2.3000 H   0  0  0  0  0
    1.0998   -0.8243    2.1568 H   0  0  0  0  0
   -1.8524    1.5606   -0.6309 C   0  0  0  0  0
   -2.3376    2.7966   -0.1790 C   0  0  0  0  0
   -3.5660    3.3069   -0.6154 C   0  0  0  0  0
   -4.1070    4.4965   -0.2199 O   0  0  0  0  0
   -3.3330    5.2362    0.7212 C   0  0  0  0  0
   -3.2097    4.6839    1.6526 H   0  0  0  0  0
   -2.3561    5.5167    0.2960 H   0  0  0  0  0
   -3.8774    6.1559    0.9512 H   0  0  0  0  0
   -4.3115    2.5728   -1.5429 C   0  0  0  0  0
   -5.5148    3.0504   -2.0004 O   0  0  0  0  0
   -5.6855    3.9048   -1.5687 H   0  0  0  0  0
   -3.8653    1.3376   -2.0191 C   0  0  0  0  0
   -2.6431    0.8342   -1.5537 C   0  0  0  0  0
   -2.2801   -0.1241   -1.9158 H   0  0  0  0  0
   -4.6752    0.7137   -2.9250 O   0  0  0  0  0
   -4.2020   -0.5450   -3.4004 C   0  0  0  0  0
   -3.2530   -0.4262   -3.9439 H   0  0  0  0  0
   -4.1011   -1.2660   -2.5886 H   0  0  0  0  0
   -4.9406   -0.9305   -4.1091 H   0  0  0  0  0
   -1.7403    3.3524    0.5401 H   0  0  0  0  0
  1  2  2  0  0  0
  1 25  1  0  0  0
  2  3  1  0  0  0
  2 37  1  0  0  0
  3  4  1  0  0  0
  3 23  2  0  0  0
  4  5  1  0  0  0
  5  6  1  0  0  0
  5 14  1  0  0  0
  5 22  1  0  0  0
  6  7  1  0  0  0
  7  8  1  0  0  0
  7 20  1  0  0  0
  7 21  1  0  0  0
  8  9  1  0  0  0
  8 11  1  0  0  0
  8 19  1  0  0  0
  9 10  1  0  0  0
 11 12  1  0  0  0
 11 14  1  0  0  0
 11 18  1  0  0  0
 12 13  1  0  0  0
 14 15  1  0  0  0
 14 17  1  0  0  0
 15 16  1  0  0  0
 23 24  1  0  0  0
 23 36  1  0  0  0
 24 25  1  0  0  0
 24 31  2  0  0  0
 25 26  2  0  0  0
 26 27  1  0  0  0
 26 35  1  0  0  0
 27 28  1  0  0  0
 27 30  2  0  0  0
 28 29  1  0  0  0
 30 31  1  0  0  0
 30 34  1  0  0  0
 31 32  1  0  0  0
 32 33  1  0  0  0
 37 38  2  0  0  0
 37 49  1  0  0  0
 38 39  1  0  0  0
 38 56  1  0  0  0
 39 40  1  0  0  0
 39 45  2  0  0  0
 40 41  1  0  0  0
 41 42  1  0  0  0
 41 43  1  0  0  0
 41 44  1  0  0  0
 45 46  1  0  0  0
 45 48  1  0  0  0
 46 47  1  0  0  0
 48 49  2  0  0  0
 48 51  1  0  0  0
 49 50  1  0  0  0
 51 52  1  0  0  0
 52 53  1  0  0  0
 52 54  1  0  0  0
 52 55  1  0  0  0
M  END
> <Tumorigenic>
none

> <Score>
34.401974

> <Active/Decoy>
active

> <InChI>
InChI=1S/C22H23O11/c1-29-15-3-9(4-16(30-2)19(15)27)21-17(33-22-20(28)18(26)13(25)8-31-22)7-11-12(24)5-10(23)6-14(11)32-21/h3-7,13,18,20,22-28H,8H2,1-2H3/q+1/t13-,18-,20+,22-/m1/s1

> <Matching Features>
H:14924486185440016873||HBA:14924321692640012300|HBA:14924486112070016868

> <Mol. Index>
612

> <Pharmacophore Match>
Model -1

> <# Confs.>
25

> <Source Database>
Pharm-Screening-input-NANPDB_After_DataWarror.ldb

> <Pharmacophore-Fit Score>
34.4

> <formula>
C22H23O11+

> <Mutagenic>
none

> <Reproductive Effective>
none

> <Irritant>
none

$$$$
kaempferol-3-rhamnoside
XX    ILIB03122402123D

 50 53  0  0  1  0              1 V2000
    1.5518    3.9729    2.0911 O   0  0  0  0  0
    0.3583    3.7091    2.0225 C   0  0  0  0  0
   -0.2060    3.1639    0.7610 C   0  0  0  0  0
    0.6510    2.8821   -0.2619 O   0  0  0  0  0
    1.9647    2.5069    0.0969 C   0  0  1  0  0
    1.9804    1.3192    0.9013 O   0  0  0  0  0
    3.2976    0.9554    1.3252 C   0  0  2  0  0
    4.1947    0.6570    0.1156 C   0  0  2  0  0
    5.5318    0.4103    0.5454 O   0  0  0  0  0
    5.8410    1.1977    1.0238 H   0  0  0  0  0
    4.1825    1.8362   -0.8618 C   0  0  1  0  0
    4.8780    1.4893   -2.0571 O   0  0  0  0  0
    4.3810    0.7743   -2.4896 H   0  0  0  0  0
    2.7530    2.2575   -1.1938 C   0  0  1  0  0
    2.1211    1.2028   -1.9266 O   0  0  0  0  0
    1.2007    1.4729   -2.0847 H   0  0  0  0  0
    2.7472    3.1372   -1.8464 H   0  0  0  0  0
    4.7248    2.6824   -0.4235 H   0  0  0  0  0
    3.8536   -0.2483   -0.4008 H   0  0  0  0  0
    3.1689   -0.2583    2.2399 C   0  0  0  0  0
    4.1387   -0.5610    2.6468 H   0  0  0  0  0
    2.4973   -0.0338    3.0756 H   0  0  0  0  0
    2.7315   -1.1076    1.7050 H   0  0  0  0  0
    3.7193    1.7757    1.9206 H   0  0  0  0  0
    2.4348    3.3317    0.6535 H   0  0  0  0  0
   -1.5506    3.0180    0.6666 C   0  0  0  0  0
   -2.4289    3.2821    1.7014 O   0  0  0  0  0
   -1.9345    3.6748    2.9182 C   0  0  0  0  0
   -0.5716    3.8992    3.1742 C   0  0  0  0  0
   -0.1015    4.3035    4.4635 C   0  0  0  0  0
    1.1229    4.5137    4.7690 O   0  5  0  0  0
   -1.1184    4.4632    5.4387 C   0  0  0  0  0
   -2.4722    4.2440    5.1747 C   0  0  0  0  0
   -2.8879    3.8483    3.9177 C   0  0  0  0  0
   -3.9386    3.6733    3.7088 H   0  0  0  0  0
   -3.3689    4.4299    6.1893 O   0  0  0  0  0
   -4.2616    4.2475    5.8492 H   0  0  0  0  0
   -0.8421    4.7719    6.4486 H   0  0  0  0  0
   -2.2292    2.5424   -0.5538 C   0  0  0  0  0
   -1.9482    1.2695   -1.0823 C   0  0  0  0  0
   -2.5845    0.8088   -2.2371 C   0  0  0  0  0
   -3.5176    1.6173   -2.8782 C   0  0  0  0  0
   -4.1564    1.1953   -4.0087 O   0  0  0  0  0
   -3.8350    0.3048   -4.2325 H   0  0  0  0  0
   -3.8188    2.8779   -2.3780 C   0  0  0  0  0
   -3.1789    3.3360   -1.2231 C   0  0  0  0  0
   -3.4425    4.3265   -0.8576 H   0  0  0  0  0
   -4.5477    3.5110   -2.8754 H   0  0  0  0  0
   -2.3458   -0.1785   -2.6226 H   0  0  0  0  0
   -1.2233    0.6124   -0.6065 H   0  0  0  0  0
  1  2  2  0  0  0
  2  3  1  0  0  0
  2 29  1  0  0  0
  3  4  1  0  0  0
  3 26  2  0  0  0
  4  5  1  0  0  0
  5  6  1  0  0  0
  5 14  1  0  0  0
  5 25  1  0  0  0
  6  7  1  0  0  0
  7  8  1  0  0  0
  7 20  1  0  0  0
  7 24  1  0  0  0
  8  9  1  0  0  0
  8 11  1  0  0  0
  8 19  1  0  0  0
  9 10  1  0  0  0
 11 12  1  0  0  0
 11 14  1  0  0  0
 11 18  1  0  0  0
 12 13  1  0  0  0
 14 15  1  0  0  0
 14 17  1  0  0  0
 15 16  1  0  0  0
 20 21  1  0  0  0
 20 22  1  0  0  0
 20 23  1  0  0  0
 26 27  1  0  0  0
 26 39  1  0  0  0
 27 28  1  0  0  0
 28 29  2  0  0  0
 28 34  1  0  0  0
 29 30  1  0  0  0
 30 31  1  0  0  0
 30 32  2  0  0  0
 32 33  1  0  0  0
 32 38  1  0  0  0
 33 34  2  0  0  0
 33 36  1  0  0  0
 34 35  1  0  0  0
 36 37  1  0  0  0
 39 40  2  0  0  0
 39 46  1  0  0  0
 40 41  1  0  0  0
 40 50  1  0  0  0
 41 42  2  0  0  0
 41 49  1  0  0  0
 42 43  1  0  0  0
 42 45  1  0  0  0
 43 44  1  0  0  0
 45 46  2  0  0  0
 45 48  1  0  0  0
 46 47  1  0  0  0
M  END
> <Tumorigenic>
none

> <Score>
34.401783

> <Active/Decoy>
active

> <InChI>
InChI=1S/C21H20O10/c1-8-15(25)17(27)18(28)21(29-8)31-20-16(26)14-12(24)6-11(23)7-13(14)30-19(20)9-2-4-10(22)5-3-9/h2-8,15,17-18,21-25,27-28H,1H3/p-1/t8-,15-,17+,18+,21+/m0/s1

> <Matching Features>
H:14924486185440016873||HBA:14924321692640012300|HBA:14924486112070016868

> <Mol. Index>
216

> <Pharmacophore Match>
Model -1

> <# Confs.>
9

> <Source Database>
Pharm-Screening-input-NANPDB_After_DataWarror.ldb

> <Pharmacophore-Fit Score>
34.4

> <formula>
C21H19O10-

> <Mutagenic>
none

> <Reproductive Effective>
none

> <Irritant>
none

$$$$
11beta-methoxycurvularin
XX    ILIB03122402123D

 45 46  0  0  1  0              1 V2000
   -0.2408    0.7177    0.0912 O   0  0  0  0  0
    0.1340   -0.3997   -0.2382 C   0  0  0  0  0
    1.2958   -1.0032    0.1424 O   0  0  0  0  0
    2.1869   -0.2667    1.0055 C   0  0  2  0  0
    3.6122   -0.7831    0.7725 C   0  0  0  0  0
    4.3130   -0.2154   -0.4724 C   0  0  0  0  0
    3.6772   -0.5802   -1.8155 C   0  0  0  0  0
    2.8122    0.5404   -2.4080 C   0  0  1  0  0
    3.6361    1.6716   -2.6436 O   0  0  0  0  0
    2.9975    2.9210   -2.5418 C   0  0  0  0  0
    2.2009    3.0090   -3.2858 H   0  0  0  0  0
    3.7369    3.7028   -2.7387 H   0  0  0  0  0
    2.5957    3.0775   -1.5368 H   0  0  0  0  0
    2.1602    0.1122   -3.7441 C   0  0  0  0  0
    1.0493   -0.9087   -3.5749 C   0  0  0  0  0
   -0.3504   -0.4228   -3.5214 C   0  0  0  0  0
   -1.1452   -0.6369   -2.3773 C   0  0  0  0  0
   -0.6438   -1.3283   -1.1339 C   0  0  0  0  0
   -1.4786   -1.7270   -0.5451 H   0  0  0  0  0
   -0.0415   -2.2017   -1.4013 H   0  0  0  0  0
   -2.4634   -0.1485   -2.3758 C   0  0  0  0  0
   -2.9782    0.5105   -3.4933 C   0  0  0  0  0
   -4.2583    0.9864   -3.4975 O   0  0  0  0  0
   -4.6651    0.7906   -2.6364 H   0  0  0  0  0
   -2.2030    0.6910   -4.6321 C   0  0  0  0  0
   -0.8930    0.2172   -4.6466 C   0  0  0  0  0
   -0.1432    0.3526   -5.7841 O   0  0  0  0  0
   -0.6737    0.8107   -6.4583 H   0  0  0  0  0
   -2.6215    1.1920   -5.5021 H   0  0  0  0  0
   -3.0891   -0.2826   -1.4966 H   0  0  0  0  0
    1.2676   -2.1131   -3.4873 O   0  0  0  0  0
    2.9100   -0.3057   -4.4279 H   0  0  0  0  0
    1.7727    0.9928   -4.2656 H   0  0  0  0  0
    2.0327    0.8216   -1.6959 H   0  0  0  0  0
    4.4960   -0.7763   -2.5236 H   0  0  0  0  0
    3.1259   -1.5226   -1.7337 H   0  0  0  0  0
    4.4208    0.8699   -0.3655 H   0  0  0  0  0
    5.3341   -0.6204   -0.4667 H   0  0  0  0  0
    4.2363   -0.5212    1.6360 H   0  0  0  0  0
    3.6042   -1.8782    0.7016 H   0  0  0  0  0
    1.7547   -0.5181    2.4475 C   0  0  0  0  0
    0.7271   -0.1767    2.6107 H   0  0  0  0  0
    1.7703   -1.5889    2.6796 H   0  0  0  0  0
    2.4057    0.0040    3.1552 H   0  0  0  0  0
    2.1410    0.8071    0.7881 H   0  0  0  0  0
  1  2  2  0  0  0
  2  3  1  0  0  0
  2 18  1  0  0  0
  3  4  1  0  0  0
  4  5  1  0  0  0
  4 41  1  0  0  0
  4 45  1  0  0  0
  5  6  1  0  0  0
  5 39  1  0  0  0
  5 40  1  0  0  0
  6  7  1  0  0  0
  6 37  1  0  0  0
  6 38  1  0  0  0
  7  8  1  0  0  0
  7 35  1  0  0  0
  7 36  1  0  0  0
  8  9  1  0  0  0
  8 14  1  0  0  0
  8 34  1  0  0  0
  9 10  1  0  0  0
 10 11  1  0  0  0
 10 12  1  0  0  0
 10 13  1  0  0  0
 14 15  1  0  0  0
 14 32  1  0  0  0
 14 33  1  0  0  0
 15 16  1  0  0  0
 15 31  2  0  0  0
 16 17  2  0  0  0
 16 26  1  0  0  0
 17 18  1  0  0  0
 17 21  1  0  0  0
 18 19  1  0  0  0
 18 20  1  0  0  0
 21 22  2  0  0  0
 21 30  1  0  0  0
 22 23  1  0  0  0
 22 25  1  0  0  0
 23 24  1  0  0  0
 25 26  2  0  0  0
 25 29  1  0  0  0
 26 27  1  0  0  0
 27 28  1  0  0  0
 41 42  1  0  0  0
 41 43  1  0  0  0
 41 44  1  0  0  0
M  END
> <Tumorigenic>
none

> <Score>
34.39257

> <Active/Decoy>
active

> <InChI>
InChI=1S/C17H22O6/c1-10-4-3-5-13(22-2)9-15(20)17-11(7-16(21)23-10)6-12(18)8-14(17)19/h6,8,10,13,18-19H,3-5,7,9H2,1-2H3/t10-,13+/m0/s1

> <Matching Features>
H:14924486185440016873||HBA:14924321692640012300|HBA:14924486112070016868

> <Mol. Index>
842

> <Pharmacophore Match>
Model -1

> <# Confs.>
25

> <Source Database>
Pharm-Screening-input-NANPDB_After_DataWarror.ldb

> <Pharmacophore-Fit Score>
34.39

> <formula>
C17H22O6

> <Mutagenic>
none

> <Reproductive Effective>
none

> <Irritant>
none

$$$$
argaminolic C
XX    ILIB03122402123D

 33 34  0  0  1  0              1 V2000
   -1.2514   -2.0328    1.8090 O   0  0  0  0  0
   -1.6506   -0.8791    1.7239 C   0  0  0  0  0
   -0.9111    0.2605    1.9597 O   0  0  0  0  0
    0.2533    0.1948    1.1994 C   0  0  0  0  0
    0.2531    0.6881   -0.1144 C   0  0  0  0  0
   -0.8869    1.1366   -0.7873 N   0  0  0  0  0
   -2.1270    0.3668   -0.9041 C   0  0  2  0  0
   -2.7982    0.7406   -2.2108 C   0  0  0  0  0
   -4.1014    0.0213   -2.4145 C   0  0  0  0  0
   -4.3486   -1.1096   -2.0058 O   0  0  0  0  0
   -4.9780    0.7561   -3.1371 O   0  0  0  0  0
   -5.8260    0.2837   -3.2749 H   0  0  0  0  0
   -3.0000    1.8291   -2.2105 H   0  0  0  0  0
   -2.1343    0.5293   -3.0551 H   0  0  0  0  0
   -3.0649    0.6364    0.2968 C   0  0  0  0  0
   -3.0508   -0.4854    1.3436 C   0  0  0  0  0
   -3.5952   -0.1863    2.2443 H   0  0  0  0  0
   -3.5467   -1.3705    0.9291 H   0  0  0  0  0
   -4.1040    0.7445   -0.0366 H   0  0  0  0  0
   -2.8017    1.5905    0.7717 H   0  0  0  0  0
   -1.8896   -0.7162   -0.9666 H   0  0  0  0  0
   -0.6988    1.7867   -1.5449 H   0  0  0  0  0
    1.4885    0.7006   -0.7901 C   0  0  0  0  0
    2.6676    0.2484   -0.1746 C   0  0  0  0  0
    3.9702    0.2450   -0.8707 C   0  0  0  0  0
    4.4851    1.2669   -1.3024 O   0  0  0  0  0
    4.5369   -0.9791   -0.9904 O   0  0  0  0  0
    4.0520   -1.7489   -0.6294 H   0  0  0  0  0
    2.6273   -0.2189    1.1428 C   0  0  0  0  0
    1.4212   -0.2354    1.8358 C   0  0  0  0  0
    1.3944   -0.5764    2.8665 H   0  0  0  0  0
    3.5248   -0.5647    1.6479 H   0  0  0  0  0
    1.5100    1.0625   -1.8162 H   0  0  0  0  0
  1  2  2  0  0  0
  2  3  1  0  0  0
  2 16  1  0  0  0
  3  4  1  0  0  0
  4  5  2  0  0  0
  4 30  1  0  0  0
  5  6  1  0  0  0
  5 23  1  0  0  0
  6  7  1  0  0  0
  6 22  1  0  0  0
  7  8  1  0  0  0
  7 15  1  0  0  0
  7 21  1  0  0  0
  8  9  1  0  0  0
  8 13  1  0  0  0
  8 14  1  0  0  0
  9 10  2  0  0  0
  9 11  1  0  0  0
 11 12  1  0  0  0
 15 16  1  0  0  0
 15 19  1  0  0  0
 15 20  1  0  0  0
 16 17  1  0  0  0
 16 18  1  0  0  0
 23 24  2  0  0  0
 23 33  1  0  0  0
 24 25  1  0  0  0
 24 29  1  0  0  0
 25 26  2  0  0  0
 25 27  1  0  0  0
 27 28  1  0  0  0
 29 30  2  0  0  0
 29 32  1  0  0  0
 30 31  1  0  0  0
M  END
> <Tumorigenic>
none

> <Score>
34.39209

> <Active/Decoy>
active

> <InChI>
InChI=1S/C13H13NO6/c15-11(16)6-8-2-4-12(17)20-10-3-1-7(13(18)19)5-9(10)14-8/h1,3,5,8,14H,2,4,6H2,(H,15,16)(H,18,19)/t8-/m0/s1

> <Matching Features>
H:14924486185440016873||HBA:14924321692640012300|HBA:14924486112070016868

> <Mol. Index>
749

> <Pharmacophore Match>
Model -1

> <# Confs.>
25

> <Source Database>
Pharm-Screening-input-NANPDB_After_DataWarror.ldb

> <Pharmacophore-Fit Score>
34.39

> <formula>
C13H13NO6

> <Mutagenic>
none

> <Reproductive Effective>
none

> <Irritant>
none

$$$$
(+)-1-hydroxypinoresinol-4'-O-beta-D-glucopyranoside
XX    ILIB03122402123D

 70 74  0  0  1  0              1 V2000
   -5.9310    0.8394   -3.6737 O   0  0  0  0  0
   -6.7968    0.7774   -2.5391 C   0  0  1  0  0
   -6.1957    1.4276   -1.4220 O   0  0  0  0  0
   -5.4493    0.6513   -0.5953 C   0  0  0  0  0
   -5.3966    1.0047    0.7563 C   0  0  0  0  0
   -6.0648    2.1008    1.2227 O   0  0  0  0  0
   -5.3340    3.3244    1.1986 C   0  0  0  0  0
   -4.4480    3.2675    1.8400 H   0  0  0  0  0
   -5.9849    4.1090    1.5975 H   0  0  0  0  0
   -5.0615    3.6031    0.1753 H   0  0  0  0  0
   -4.5939    0.3063    1.6633 C   0  0  0  0  0
   -3.8518   -0.8007    1.2377 C   0  0  0  0  0
   -3.0203   -1.5820    2.2135 C   0  0  1  0  0
   -2.3281   -2.6992    1.5483 O   0  0  0  0  0
   -0.8862   -2.4828    1.5974 C   0  0  0  0  0
   -0.7706   -1.0238    1.9136 C   0  0  1  0  0
   -1.8918   -0.8328    2.8967 C   0  0  2  0  0
   -1.6303   -1.4844    4.1535 O   0  0  0  0  0
   -1.6992   -2.4458    4.0354 H   0  0  0  0  0
   -1.7396    0.6409    3.1595 C   0  0  0  0  0
   -0.2858    0.8313    3.2183 O   0  0  0  0  0
    0.3729   -0.3317    2.6128 C   0  0  2  0  0
    1.4835    0.0784    1.6831 C   0  0  0  0  0
    1.7920    1.4357    1.4736 C   0  0  0  0  0
    2.8319    1.8112    0.6135 C   0  0  0  0  0
    3.2060    3.0954    0.3472 O   0  0  0  0  0
    2.4488    4.1034    1.0131 C   0  0  0  0  0
    1.3949    4.0667    0.7130 H   0  0  0  0  0
    2.8485    5.0750    0.7124 H   0  0  0  0  0
    2.5505    4.0204    2.1004 H   0  0  0  0  0
    3.5662    0.8108   -0.0315 C   0  0  0  0  0
    4.5909    1.1196   -0.8825 O   0  0  0  0  0
    4.6636    2.0890   -0.9274 H   0  0  0  0  0
    3.2753   -0.5369    0.1672 C   0  0  0  0  0
    2.2380   -0.9005    1.0233 C   0  0  0  0  0
    2.0232   -1.9559    1.1721 H   0  0  0  0  0
    3.8521   -1.3074   -0.3377 H   0  0  0  0  0
    1.2071    2.1840    2.0010 H   0  0  0  0  0
    0.7854   -0.9235    3.4373 H   0  0  0  0  0
   -2.1122    1.2770    2.3498 H   0  0  0  0  0
   -2.1607    0.9706    4.1130 H   0  0  0  0  0
   -1.0004   -0.4700    0.9882 H   0  0  0  0  0
   -0.4608   -3.1350    2.3648 H   0  0  0  0  0
   -0.4541   -2.7462    0.6286 H   0  0  0  0  0
   -3.6965   -2.0517    2.9380 H   0  0  0  0  0
   -3.9219   -1.1846   -0.1068 C   0  0  0  0  0
   -4.6967   -0.4616   -1.0206 C   0  0  0  0  0
   -4.7133   -0.8047   -2.0512 H   0  0  0  0  0
   -3.3619   -2.0472   -0.4599 H   0  0  0  0  0
   -4.5566    0.6184    2.7044 H   0  0  0  0  0
   -8.1092    1.5017   -2.8470 C   0  0  2  0  0
   -9.0145    1.3314   -1.7563 O   0  0  0  0  0
   -9.1728    0.3785   -1.6442 H   0  0  0  0  0
   -8.7597    0.9766   -4.1266 C   0  0  1  0  0
   -9.8186    1.8682   -4.4820 O   0  0  0  0  0
  -10.2843    1.4820   -5.2423 H   0  0  0  0  0
   -7.7495    0.9034   -5.2718 C   0  0  2  0  0
   -8.3236    0.1938   -6.3649 O   0  0  0  0  0
   -9.0698    0.7180   -6.7002 H   0  0  0  0  0
   -6.4755    0.1817   -4.8219 C   0  0  1  0  0
   -5.4109    0.1991   -5.9037 C   0  0  0  0  0
   -4.2516   -0.4822   -5.4517 O   0  0  0  0  0
   -3.6005   -0.4460   -6.1725 H   0  0  0  0  0
   -5.1418    1.2256   -6.1742 H   0  0  0  0  0
   -5.7809   -0.2925   -6.8097 H   0  0  0  0  0
   -6.6884   -0.8644   -4.5644 H   0  0  0  0  0
   -7.5102    1.9162   -5.6191 H   0  0  0  0  0
   -9.2221   -0.0023   -3.9506 H   0  0  0  0  0
   -7.9324    2.5813   -2.9352 H   0  0  0  0  0
   -6.9889   -0.2699   -2.2679 H   0  0  0  0  0
  1  2  1  0  0  0
  1 60  1  0  0  0
  2  3  1  0  0  0
  2 51  1  0  0  0
  2 70  1  0  0  0
  3  4  1  0  0  0
  4  5  2  0  0  0
  4 47  1  0  0  0
  5  6  1  0  0  0
  5 11  1  0  0  0
  6  7  1  0  0  0
  7  8  1  0  0  0
  7  9  1  0  0  0
  7 10  1  0  0  0
 11 12  2  0  0  0
 11 50  1  0  0  0
 12 13  1  0  0  0
 12 46  1  0  0  0
 13 14  1  0  0  0
 13 17  1  0  0  0
 13 45  1  0  0  0
 14 15  1  0  0  0
 15 16  1  0  0  0
 15 43  1  0  0  0
 15 44  1  0  0  0
 16 17  1  0  0  0
 16 22  1  0  0  0
 16 42  1  0  0  0
 17 18  1  0  0  0
 17 20  1  0  0  0
 18 19  1  0  0  0
 20 21  1  0  0  0
 20 40  1  0  0  0
 20 41  1  0  0  0
 21 22  1  0  0  0
 22 23  1  0  0  0
 22 39  1  0  0  0
 23 24  2  0  0  0
 23 35  1  0  0  0
 24 25  1  0  0  0
 24 38  1  0  0  0
 25 26  1  0  0  0
 25 31  2  0  0  0
 26 27  1  0  0  0
 27 28  1  0  0  0
 27 29  1  0  0  0
 27 30  1  0  0  0
 31 32  1  0  0  0
 31 34  1  0  0  0
 32 33  1  0  0  0
 34 35  2  0  0  0
 34 37  1  0  0  0
 35 36  1  0  0  0
 46 47  2  0  0  0
 46 49  1  0  0  0
 47 48  1  0  0  0
 51 52  1  0  0  0
 51 54  1  0  0  0
 51 69  1  0  0  0
 52 53  1  0  0  0
 54 55  1  0  0  0
 54 57  1  0  0  0
 54 68  1  0  0  0
 55 56  1  0  0  0
 57 58  1  0  0  0
 57 60  1  0  0  0
 57 67  1  0  0  0
 58 59  1  0  0  0
 60 61  1  0  0  0
 60 66  1  0  0  0
 61 62  1  0  0  0
 61 64  1  0  0  0
 61 65  1  0  0  0
 62 63  1  0  0  0
M  END
> <Tumorigenic>
none

> <Score>
34.391083

> <Active/Decoy>
active

> <InChI>
InChI=1S/C26H32O12/c1-33-17-7-12(3-5-15(17)28)23-14-10-35-24(26(14,32)11-36-23)13-4-6-16(18(8-13)34-2)37-25-22(31)21(30)20(29)19(9-27)38-25/h3-8,14,19-25,27-32H,9-11H2,1-2H3/t14-,19-,20-,21+,22-,23-,24-,25-,26+/m1/s1

> <Matching Features>
H:14924486185440016873||HBA:14924321692640012300|HBA:14924486112070016868

> <Mol. Index>
641

> <Pharmacophore Match>
Model -1

> <# Confs.>
25

> <Source Database>
Pharm-Screening-input-NANPDB_After_DataWarror.ldb

> <Pharmacophore-Fit Score>
34.39

> <formula>
C26H32O12

> <Mutagenic>
none

> <Reproductive Effective>
none

> <Irritant>
none

$$$$
11,13-dihydroridentin
XX    ILIB03122402123D

 41 42  0  0  1  0              1 V2000
   -4.2204    0.9850   -3.4810 O   0  0  0  0  0
   -3.2025    0.7740   -2.8396 C   0  0  0  0  0
   -1.9988    0.4352   -3.3949 O   0  0  0  0  0
   -0.9508    0.4323   -2.3926 C   0  0  1  0  0
   -0.2091    1.7337   -2.5499 C   0  0  0  0  0
    1.1133    1.9805   -2.6640 C   0  0  0  0  0
    2.2382    0.9557   -2.5509 C   0  0  1  0  0
    3.5189    1.5978   -2.4901 O   0  0  0  0  0
    3.7273    1.9232   -3.3823 H   0  0  0  0  0
    2.1981   -0.0035   -1.3510 C   0  0  0  0  0
    2.1964    0.6201    0.0662 C   0  0  1  0  0
    1.7989    1.9860    0.0617 O   0  0  0  0  0
    1.8549    2.3184    0.9739 H   0  0  0  0  0
    1.3396   -0.1399    1.0643 C   0  0  0  0  0
   -0.0557   -0.5930    0.6786 C   0  0  0  0  0
   -1.0402    0.5055    0.2345 C   0  0  0  0  0
   -1.7309    0.1744   -1.0960 C   0  0  1  0  0
   -3.0831    0.8517   -1.3387 C   0  0  1  0  0
   -3.2484    2.2797   -0.8438 C   0  0  0  0  0
   -4.2173    2.6832   -1.1596 H   0  0  0  0  0
   -3.2172    2.3240    0.2492 H   0  0  0  0  0
   -2.4821    2.9543   -1.2313 H   0  0  0  0  0
   -3.8725    0.2278   -0.9027 H   0  0  0  0  0
   -1.9586   -0.9037   -1.0857 H   0  0  0  0  0
   -0.5842    1.4971    0.2017 H   0  0  0  0  0
   -1.8119    0.5664    1.0133 H   0  0  0  0  0
    0.0269   -1.3786   -0.0804 H   0  0  0  0  0
   -0.5157   -1.1058    1.5353 H   0  0  0  0  0
    1.8344   -0.4438    2.2763 C   0  0  0  0  0
    1.2533   -0.9980    3.0053 H   0  0  0  0  0
    2.8345   -0.1419    2.5713 H   0  0  0  0  0
    3.2405    0.6250    0.4056 H   0  0  0  0  0
    3.0886   -0.6477   -1.4012 H   0  0  0  0  0
    1.3783   -0.7062   -1.4867 H   0  0  0  0  0
    2.2411    0.3562   -3.4691 H   0  0  0  0  0
    1.5391    3.4064   -2.9493 C   0  0  0  0  0
    2.1755    3.7875   -2.1438 H   0  0  0  0  0
    0.6896    4.0922   -3.0388 H   0  0  0  0  0
    2.0915    3.4548   -3.8928 H   0  0  0  0  0
   -0.8669    2.5950   -2.6559 H   0  0  0  0  0
   -0.3129   -0.4203   -2.6337 H   0  0  0  0  0
  1  2  2  0  0  0
  2  3  1  0  0  0
  2 18  1  0  0  0
  3  4  1  0  0  0
  4  5  1  0  0  0
  4 17  1  0  0  0
  4 41  1  0  0  0
  5  6  2  0  0  0
  5 40  1  0  0  0
  6  7  1  0  0  0
  6 36  1  0  0  0
  7  8  1  0  0  0
  7 10  1  0  0  0
  7 35  1  0  0  0
  8  9  1  0  0  0
 10 11  1  0  0  0
 10 33  1  0  0  0
 10 34  1  0  0  0
 11 12  1  0  0  0
 11 14  1  0  0  0
 11 32  1  0  0  0
 12 13  1  0  0  0
 14 15  1  0  0  0
 14 29  2  0  0  0
 15 16  1  0  0  0
 15 27  1  0  0  0
 15 28  1  0  0  0
 16 17  1  0  0  0
 16 25  1  0  0  0
 16 26  1  0  0  0
 17 18  1  0  0  0
 17 24  1  0  0  0
 18 19  1  0  0  0
 18 23  1  0  0  0
 19 20  1  0  0  0
 19 21  1  0  0  0
 19 22  1  0  0  0
 29 30  1  0  0  0
 29 31  1  0  0  0
 36 37  1  0  0  0
 36 38  1  0  0  0
 36 39  1  0  0  0
M  END
> <Tumorigenic>
none

> <Score>
34.376144

> <Active/Decoy>
active

> <InChI>
InChI=1S/C15H22O4/c1-8-4-5-11-10(3)15(18)19-14(11)6-9(2)13(17)7-12(8)16/h6,10-14,16-17H,1,4-5,7H2,2-3H3/b9-6+/t10-,11+,12-,13+,14+/m1/s1

> <Matching Features>
H:14924486185440016873||HBA:14924321692640012300|HBA:14924486112070016868

> <Mol. Index>
1272

> <Pharmacophore Match>
Model -1

> <# Confs.>
21

> <Source Database>
Pharm-Screening-input-NANPDB_After_DataWarror.ldb

> <Pharmacophore-Fit Score>
34.38

> <formula>
C15H22O4

> <Mutagenic>
none

> <Reproductive Effective>
none

> <Irritant>
none

$$$$
1beta,3beta-dihydroxy-7alpha,11alpha-germacra-4Z,10(14)-dien-12,6alpha-olide
XX    ILIB03122402123D

 41 42  0  0  1  0              1 V2000
   -4.2204    0.9850   -3.4810 O   0  0  0  0  0
   -3.2025    0.7740   -2.8396 C   0  0  0  0  0
   -1.9988    0.4352   -3.3949 O   0  0  0  0  0
   -0.9508    0.4323   -2.3926 C   0  0  1  0  0
   -0.2091    1.7337   -2.5499 C   0  0  0  0  0
    1.1133    1.9805   -2.6640 C   0  0  0  0  0
    2.2382    0.9557   -2.5509 C   0  0  1  0  0
    3.5189    1.5978   -2.4901 O   0  0  0  0  0
    3.7273    1.9232   -3.3823 H   0  0  0  0  0
    2.1981   -0.0035   -1.3510 C   0  0  0  0  0
    2.1964    0.6201    0.0662 C   0  0  1  0  0
    1.7989    1.9860    0.0617 O   0  0  0  0  0
    1.8549    2.3184    0.9739 H   0  0  0  0  0
    1.3396   -0.1399    1.0643 C   0  0  0  0  0
   -0.0557   -0.5930    0.6786 C   0  0  0  0  0
   -1.0402    0.5055    0.2345 C   0  0  0  0  0
   -1.7309    0.1744   -1.0960 C   0  0  1  0  0
   -3.0831    0.8517   -1.3387 C   0  0  1  0  0
   -3.2484    2.2797   -0.8438 C   0  0  0  0  0
   -4.2173    2.6832   -1.1596 H   0  0  0  0  0
   -3.2172    2.3240    0.2492 H   0  0  0  0  0
   -2.4821    2.9543   -1.2313 H   0  0  0  0  0
   -3.8725    0.2278   -0.9027 H   0  0  0  0  0
   -1.9586   -0.9037   -1.0857 H   0  0  0  0  0
   -0.5842    1.4971    0.2017 H   0  0  0  0  0
   -1.8119    0.5664    1.0133 H   0  0  0  0  0
    0.0269   -1.3786   -0.0804 H   0  0  0  0  0
   -0.5157   -1.1058    1.5353 H   0  0  0  0  0
    1.8344   -0.4438    2.2763 C   0  0  0  0  0
    1.2533   -0.9980    3.0053 H   0  0  0  0  0
    2.8345   -0.1419    2.5713 H   0  0  0  0  0
    3.2405    0.6250    0.4056 H   0  0  0  0  0
    3.0886   -0.6477   -1.4012 H   0  0  0  0  0
    1.3783   -0.7062   -1.4867 H   0  0  0  0  0
    2.2411    0.3562   -3.4691 H   0  0  0  0  0
    1.5391    3.4064   -2.9493 C   0  0  0  0  0
    2.1755    3.7875   -2.1438 H   0  0  0  0  0
    0.6896    4.0922   -3.0388 H   0  0  0  0  0
    2.0915    3.4548   -3.8928 H   0  0  0  0  0
   -0.8669    2.5950   -2.6559 H   0  0  0  0  0
   -0.3129   -0.4203   -2.6337 H   0  0  0  0  0
  1  2  2  0  0  0
  2  3  1  0  0  0
  2 18  1  0  0  0
  3  4  1  0  0  0
  4  5  1  0  0  0
  4 17  1  0  0  0
  4 41  1  0  0  0
  5  6  2  0  0  0
  5 40  1  0  0  0
  6  7  1  0  0  0
  6 36  1  0  0  0
  7  8  1  0  0  0
  7 10  1  0  0  0
  7 35  1  0  0  0
  8  9  1  0  0  0
 10 11  1  0  0  0
 10 33  1  0  0  0
 10 34  1  0  0  0
 11 12  1  0  0  0
 11 14  1  0  0  0
 11 32  1  0  0  0
 12 13  1  0  0  0
 14 15  1  0  0  0
 14 29  2  0  0  0
 15 16  1  0  0  0
 15 27  1  0  0  0
 15 28  1  0  0  0
 16 17  1  0  0  0
 16 25  1  0  0  0
 16 26  1  0  0  0
 17 18  1  0  0  0
 17 24  1  0  0  0
 18 19  1  0  0  0
 18 23  1  0  0  0
 19 20  1  0  0  0
 19 21  1  0  0  0
 19 22  1  0  0  0
 29 30  1  0  0  0
 29 31  1  0  0  0
 36 37  1  0  0  0
 36 38  1  0  0  0
 36 39  1  0  0  0
M  END
> <Tumorigenic>
none

> <Score>
34.376144

> <Active/Decoy>
active

> <InChI>
InChI=1S/C15H22O4/c1-8-4-5-11-10(3)15(18)19-14(11)6-9(2)13(17)7-12(8)16/h6,10-14,16-17H,1,4-5,7H2,2-3H3/b9-6+/t10-,11+,12-,13+,14+/m1/s1

> <Matching Features>
H:14924486185440016873||HBA:14924321692640012300|HBA:14924486112070016868

> <Mol. Index>
1233

> <Pharmacophore Match>
Model -1

> <# Confs.>
21

> <Source Database>
Pharm-Screening-input-NANPDB_After_DataWarror.ldb

> <Pharmacophore-Fit Score>
34.38

> <formula>
C15H22O4

> <Mutagenic>
none

> <Reproductive Effective>
none

> <Irritant>
none

$$$$
2-((2S,4aS,7R)-1,2,4a,5,6,7,8,8a-octahydro-2-hydroxy-4a-methyl-1-methylenenaphthalen-7-yl)acrylic acid
XX    ILIB03122402123D

 38 39  0  0  1  0              1 V2000
   -4.7171    0.7312   -2.9847 O   0  0  0  0  0
   -3.8166   -0.0270   -2.6159 C   0  0  0  0  0
   -3.5606   -1.2207   -3.1643 O   0  0  0  0  0
   -4.1809   -1.4366   -3.8928 H   0  0  0  0  0
   -2.8797    0.2714   -1.5293 C   0  0  0  0  0
   -3.3403    1.0469   -0.5395 C   0  0  0  0  0
   -2.7204    1.3405    0.3006 H   0  0  0  0  0
   -4.3579    1.4380   -0.5426 H   0  0  0  0  0
   -1.4650   -0.2800   -1.5921 C   0  0  1  0  0
   -0.4111    0.8444   -1.5855 C   0  0  0  0  0
    1.0163    0.2641   -1.6319 C   0  0  1  0  0
    2.1678    1.2565   -1.7595 C   0  0  0  0  0
    2.0341    2.5896   -1.6596 C   0  0  0  0  0
    2.8840    3.2553   -1.7631 H   0  0  0  0  0
    1.0771    3.0623   -1.4749 H   0  0  0  0  0
    3.5094    0.5759   -2.0069 C   0  0  1  0  0
    4.6055    1.4133   -1.6446 O   0  0  0  0  0
    4.5584    1.5745   -0.6853 H   0  0  0  0  0
    3.6553   -0.7384   -1.2838 C   0  0  0  0  0
    2.6717   -1.3166   -0.5769 C   0  0  0  0  0
    1.2840   -0.7109   -0.4402 C   0  0  2  0  0
    0.2217   -1.8343   -0.4847 C   0  0  0  0  0
   -1.2150   -1.3039   -0.4732 C   0  0  0  0  0
   -1.9037   -2.1511   -0.5877 H   0  0  0  0  0
   -1.4346   -0.8661    0.5078 H   0  0  0  0  0
    0.3530   -2.5188    0.3628 H   0  0  0  0  0
    0.3620   -2.4402   -1.3900 H   0  0  0  0  0
    1.2441   -0.0050    0.9337 C   0  0  0  0  0
    2.0271    0.7573    1.0248 H   0  0  0  0  0
    1.4029   -0.7242    1.7477 H   0  0  0  0  0
    0.2892    0.4904    1.1265 H   0  0  0  0  0
    2.8792   -2.2509   -0.0601 H   0  0  0  0  0
    4.6199   -1.2367   -1.3414 H   0  0  0  0  0
    3.5994    0.3779   -3.0814 H   0  0  0  0  0
    1.0514   -0.3271   -2.5627 H   0  0  0  0  0
   -0.5395    1.4843   -0.7048 H   0  0  0  0  0
   -0.5726    1.4863   -2.4614 H   0  0  0  0  0
   -1.3551   -0.8164   -2.5463 H   0  0  0  0  0
  1  2  2  0  0  0
  2  3  1  0  0  0
  2  5  1  0  0  0
  3  4  1  0  0  0
  5  6  2  0  0  0
  5  9  1  0  0  0
  6  7  1  0  0  0
  6  8  1  0  0  0
  9 10  1  0  0  0
  9 23  1  0  0  0
  9 38  1  0  0  0
 10 11  1  0  0  0
 10 36  1  0  0  0
 10 37  1  0  0  0
 11 12  1  0  0  0
 11 21  1  0  0  0
 11 35  1  0  0  0
 12 13  2  0  0  0
 12 16  1  0  0  0
 13 14  1  0  0  0
 13 15  1  0  0  0
 16 17  1  0  0  0
 16 19  1  0  0  0
 16 34  1  0  0  0
 17 18  1  0  0  0
 19 20  2  0  0  0
 19 33  1  0  0  0
 20 21  1  0  0  0
 20 32  1  0  0  0
 21 22  1  0  0  0
 21 28  1  0  0  0
 22 23  1  0  0  0
 22 26  1  0  0  0
 22 27  1  0  0  0
 23 24  1  0  0  0
 23 25  1  0  0  0
 28 29  1  0  0  0
 28 30  1  0  0  0
 28 31  1  0  0  0
M  END
> <Tumorigenic>
none

> <Score>
34.38142

> <Active/Decoy>
active

> <InChI>
InChI=1S/C15H20O3/c1-9(14(17)18)11-4-6-15(3)7-5-13(16)10(2)12(15)8-11/h5,7,11-13,16H,1-2,4,6,8H2,3H3,(H,17,18)/t11-,12+,13+,15+/m1/s1

> <Matching Features>
H:14924486185440016873||HBA:14924321692640012300|HBA:14924486112070016868

> <Mol. Index>
1118

> <Pharmacophore Match>
Model -1

> <# Confs.>
19

> <Source Database>
Pharm-Screening-input-NANPDB_After_DataWarror.ldb

> <Pharmacophore-Fit Score>
34.38

> <formula>
C15H20O3

> <Mutagenic>
none

> <Reproductive Effective>
none

> <Irritant>
none

$$$$
(-)-silychristin
XX    ILIB03122402123D

 57 61  0  0  1  0              1 V2000
   -4.0048   -0.6925   -4.8896 O   0  0  0  0  0
   -4.1386    0.4692   -4.5209 C   0  0  0  0  0
   -3.4543    1.5879   -5.2121 C   0  0  0  0  0
   -3.7266    2.8932   -4.7857 C   0  0  0  0  0
   -4.5547    3.2028   -3.7393 O   0  0  0  0  0
   -4.6954    2.1739   -2.7455 C   0  0  1  0  0
   -5.0587    0.8320   -3.3842 C   0  0  1  0  0
   -6.3701    0.8814   -3.9303 O   0  0  0  0  0
   -6.4293    1.6640   -4.5052 H   0  0  0  0  0
   -5.0403    0.0275   -2.6407 H   0  0  0  0  0
   -3.5139    2.1876   -1.8023 C   0  0  0  0  0
   -3.2153    3.3326   -1.0320 C   0  0  0  0  0
   -2.1143    3.3465   -0.1741 C   0  0  0  0  0
   -1.8064    4.4439    0.5708 O   0  0  0  0  0
   -2.4614    5.1381    0.3842 H   0  0  0  0  0
   -1.3312    2.2154   -0.0850 C   0  0  0  0  0
   -0.2162    2.0900    0.6975 O   0  0  0  0  0
    0.0505    0.6691    0.6938 C   0  0  2  0  0
    1.5401    0.4318    0.8076 C   0  0  0  0  0
    2.4329    0.9236   -0.1436 C   0  0  0  0  0
    3.8112    0.7066   -0.0247 C   0  0  0  0  0
    4.7551    1.1495   -0.9056 O   0  0  0  0  0
    4.2539    1.8807   -2.0214 C   0  0  0  0  0
    3.5927    1.2590   -2.6345 H   0  0  0  0  0
    5.1068    2.1716   -2.6401 H   0  0  0  0  0
    3.7460    2.7950   -1.6990 H   0  0  0  0  0
    4.2876   -0.0012    1.0762 C   0  0  0  0  0
    5.6229   -0.2530    1.2427 O   0  0  0  0  0
    6.0974    0.1413    0.4896 H   0  0  0  0  0
    3.4158   -0.5099    2.0417 C   0  0  0  0  0
    2.0454   -0.2908    1.9138 C   0  0  0  0  0
    1.3762   -0.6830    2.6753 H   0  0  0  0  0
    3.7953   -1.0668    2.8937 H   0  0  0  0  0
    2.0262    1.4861   -0.9801 H   0  0  0  0  0
   -0.5523    0.0596   -0.5895 C   0  0  1  0  0
   -1.0397   -1.3710   -0.4506 C   0  0  0  0  0
   -2.0476   -1.4445    0.5443 O   0  0  0  0  0
   -2.3287   -2.3742    0.5978 H   0  0  0  0  0
   -0.2171   -2.0417   -0.1791 H   0  0  0  0  0
   -1.4525   -1.7264   -1.4014 H   0  0  0  0  0
   -1.6089    1.0820   -0.8336 C   0  0  0  0  0
   -2.6903    1.0530   -1.6997 C   0  0  0  0  0
   -2.8906    0.1692   -2.2979 H   0  0  0  0  0
    0.1588    0.1147   -1.4243 H   0  0  0  0  0
   -0.4380    0.2669    1.6018 H   0  0  0  0  0
   -3.8461    4.2145   -1.1105 H   0  0  0  0  0
   -5.5658    2.4781   -2.1468 H   0  0  0  0  0
   -3.1674    3.9854   -5.4544 C   0  0  0  0  0
   -2.3138    3.7702   -6.5322 C   0  0  0  0  0
   -1.7448    4.8183   -7.2010 O   0  0  0  0  0
   -2.0463    5.6470   -6.7895 H   0  0  0  0  0
   -2.0157    2.4786   -6.9563 C   0  0  0  0  0
   -2.5877    1.3890   -6.2964 C   0  0  0  0  0
   -2.2488    0.1554   -6.7807 O   0  0  0  0  0
   -2.6631   -0.5300   -6.2316 H   0  0  0  0  0
   -1.3467    2.3202   -7.7974 H   0  0  0  0  0
   -3.3932    4.9977   -5.1274 H   0  0  0  0  0
  1  2  2  0  0  0
  2  3  1  0  0  0
  2  7  1  0  0  0
  3  4  2  0  0  0
  3 53  1  0  0  0
  4  5  1  0  0  0
  4 48  1  0  0  0
  5  6  1  0  0  0
  6  7  1  0  0  0
  6 11  1  0  0  0
  6 47  1  0  0  0
  7  8  1  0  0  0
  7 10  1  0  0  0
  8  9  1  0  0  0
 11 12  2  0  0  0
 11 42  1  0  0  0
 12 13  1  0  0  0
 12 46  1  0  0  0
 13 14  1  0  0  0
 13 16  2  0  0  0
 14 15  1  0  0  0
 16 17  1  0  0  0
 16 41  1  0  0  0
 17 18  1  0  0  0
 18 19  1  0  0  0
 18 35  1  0  0  0
 18 45  1  0  0  0
 19 20  2  0  0  0
 19 31  1  0  0  0
 20 21  1  0  0  0
 20 34  1  0  0  0
 21 22  1  0  0  0
 21 27  2  0  0  0
 22 23  1  0  0  0
 23 24  1  0  0  0
 23 25  1  0  0  0
 23 26  1  0  0  0
 27 28  1  0  0  0
 27 30  1  0  0  0
 28 29  1  0  0  0
 30 31  2  0  0  0
 30 33  1  0  0  0
 31 32  1  0  0  0
 35 36  1  0  0  0
 35 41  1  0  0  0
 35 44  1  0  0  0
 36 37  1  0  0  0
 36 39  1  0  0  0
 36 40  1  0  0  0
 37 38  1  0  0  0
 41 42  2  0  0  0
 42 43  1  0  0  0
 48 49  2  0  0  0
 48 57  1  0  0  0
 49 50  1  0  0  0
 49 52  1  0  0  0
 50 51  1  0  0  0
 52 53  2  0  0  0
 52 56  1  0  0  0
 53 54  1  0  0  0
 54 55  1  0  0  0
M  END
> <Tumorigenic>
none

> <Score>
34.35536

> <Active/Decoy>
active

> <InChI>
InChI=1S/C25H22O10/c1-33-18-6-10(2-3-15(18)28)23-14(9-26)13-4-11(5-17(30)25(13)35-23)24-22(32)21(31)20-16(29)7-12(27)8-19(20)34-24/h2-8,14,22-24,26-30,32H,9H2,1H3/t14-,22-,23+,24+/m0/s1

> <Matching Features>
H:14924486185440016873||HBA:14924321692640012300|HBA:14924486112070016868

> <Mol. Index>
245

> <Pharmacophore Match>
Model -1

> <# Confs.>
25

> <Source Database>
Pharm-Screening-input-NANPDB_After_DataWarror.ldb

> <Pharmacophore-Fit Score>
34.36

> <formula>
C25H22O10

> <Mutagenic>
none

> <Reproductive Effective>
none

> <Irritant>
none

$$$$
(?)-enterolactone
XX    ILIB03122402123D

 40 42  0  0  1  0              1 V2000
   -0.6672   -1.5366    3.2700 O   0  0  0  0  0
   -1.0550   -1.2638    2.1444 C   0  0  0  0  0
   -1.9366   -0.2582    1.8640 O   0  0  0  0  0
   -2.2509   -0.2710    0.4704 C   0  0  0  0  0
   -1.0763   -0.9579   -0.2061 C   0  0  1  0  0
   -0.6760   -1.9888    0.8712 C   0  0  1  0  0
    0.8087   -2.3562    0.8753 C   0  0  0  0  0
    1.7183   -1.1619    0.9585 C   0  0  0  0  0
    2.1911   -0.5459   -0.2070 C   0  0  0  0  0
    3.0459    0.5521   -0.1172 C   0  0  0  0  0
    3.4829    1.1284   -1.2765 O   0  0  0  0  0
    4.0674    1.8738   -1.0505 H   0  0  0  0  0
    3.4455    1.0473    1.1221 C   0  0  0  0  0
    2.9851    0.4334    2.2845 C   0  0  0  0  0
    2.1278   -0.6668    2.2045 C   0  0  0  0  0
    1.7817   -1.1359    3.1219 H   0  0  0  0  0
    3.2932    0.8103    3.2548 H   0  0  0  0  0
    4.1105    1.9026    1.1923 H   0  0  0  0  0
    1.8929   -0.9219   -1.1826 H   0  0  0  0  0
    1.0233   -3.0425    1.7048 H   0  0  0  0  0
    1.0466   -2.9082   -0.0430 H   0  0  0  0  0
   -1.3071   -2.8844    0.8094 H   0  0  0  0  0
   -1.4175   -1.5666   -1.5555 C   0  0  0  0  0
   -1.8977   -0.5476   -2.5533 C   0  0  0  0  0
   -3.2592   -0.2418   -2.6761 C   0  0  0  0  0
   -3.6800    0.6953   -3.6187 C   0  0  0  0  0
   -5.0166    0.9697   -3.7077 O   0  0  0  0  0
   -5.1492    1.6345   -4.4042 H   0  0  0  0  0
   -2.7638    1.3344   -4.4508 C   0  0  0  0  0
   -1.4088    1.0279   -4.3381 C   0  0  0  0  0
   -0.9779    0.0905   -3.3970 C   0  0  0  0  0
    0.0826   -0.1388   -3.3256 H   0  0  0  0  0
   -0.6869    1.5180   -4.9848 H   0  0  0  0  0
   -3.0906    2.0643   -5.1844 H   0  0  0  0  0
   -3.9891   -0.7343   -2.0384 H   0  0  0  0  0
   -0.5729   -2.1175   -1.9569 H   0  0  0  0  0
   -2.2302   -2.3093   -1.4180 H   0  0  0  0  0
   -0.2698   -0.2257   -0.3142 H   0  0  0  0  0
   -2.3688    0.7591    0.1213 H   0  0  0  0  0
   -3.1996   -0.8018    0.3358 H   0  0  0  0  0
  1  2  2  0  0  0
  2  3  1  0  0  0
  2  6  1  0  0  0
  3  4  1  0  0  0
  4  5  1  0  0  0
  4 39  1  0  0  0
  4 40  1  0  0  0
  5  6  1  0  0  0
  5 23  1  0  0  0
  5 38  1  0  0  0
  6  7  1  0  0  0
  6 22  1  0  0  0
  7  8  1  0  0  0
  7 20  1  0  0  0
  7 21  1  0  0  0
  8  9  2  0  0  0
  8 15  1  0  0  0
  9 10  1  0  0  0
  9 19  1  0  0  0
 10 11  1  0  0  0
 10 13  2  0  0  0
 11 12  1  0  0  0
 13 14  1  0  0  0
 13 18  1  0  0  0
 14 15  2  0  0  0
 14 17  1  0  0  0
 15 16  1  0  0  0
 23 24  1  0  0  0
 23 36  1  0  0  0
 23 37  1  0  0  0
 24 25  2  0  0  0
 24 31  1  0  0  0
 25 26  1  0  0  0
 25 35  1  0  0  0
 26 27  1  0  0  0
 26 29  2  0  0  0
 27 28  1  0  0  0
 29 30  1  0  0  0
 29 34  1  0  0  0
 30 31  2  0  0  0
 30 33  1  0  0  0
 31 32  1  0  0  0
M  END
> <Tumorigenic>
none

> <Score>
34.34489

> <Active/Decoy>
active

> <InChI>
InChI=1S/C18H18O4/c19-15-5-1-3-12(8-15)7-14-11-22-18(21)17(14)10-13-4-2-6-16(20)9-13/h1-6,8-9,14,17,19-20H,7,10-11H2/t14-,17+/m0/s1

> <Matching Features>
H:14924486185440016873||HBA:14924321692640012300|HBA:14924486112070016868

> <Mol. Index>
984

> <Pharmacophore Match>
Model -1

> <# Confs.>
25

> <Source Database>
Pharm-Screening-input-NANPDB_After_DataWarror.ldb

> <Pharmacophore-Fit Score>
34.34

> <formula>
C18H18O4

> <Mutagenic>
none

> <Reproductive Effective>
none

> <Irritant>
none

$$$$
(+)-neo-olivil
XX    ILIB03122402123D

 51 53  0  0  1  0              1 V2000
   -0.4067    0.3455   -0.6613 O   0  0  0  0  0
   -0.7701    0.1716   -2.0416 C   0  0  1  0  0
   -2.2021    0.5484   -2.2481 C   0  0  0  0  0
   -3.1175   -0.3927   -2.7438 C   0  0  0  0  0
   -4.4590   -0.0485   -2.9447 C   0  0  0  0  0
   -5.4266   -0.8924   -3.4097 O   0  0  0  0  0
   -4.9908   -2.2176   -3.7034 C   0  0  0  0  0
   -4.2378   -2.2180   -4.5001 H   0  0  0  0  0
   -4.6127   -2.7180   -2.8050 H   0  0  0  0  0
   -5.8566   -2.7823   -4.0608 H   0  0  0  0  0
   -4.8681    1.2647   -2.6532 C   0  0  0  0  0
   -6.1725    1.6430   -2.8164 O   0  0  0  0  0
   -6.6807    0.8706   -3.1199 H   0  0  0  0  0
   -3.9692    2.2080   -2.1810 C   0  0  0  0  0
   -2.6353    1.8577   -1.9879 C   0  0  0  0  0
   -1.9372    2.6068   -1.6225 H   0  0  0  0  0
   -4.2983    3.2200   -1.9620 H   0  0  0  0  0
   -2.7567   -1.3962   -2.9550 H   0  0  0  0  0
    0.2350    1.0219   -2.8572 C   0  0  2  0  0
    0.3978    0.5820   -4.3018 C   0  0  0  0  0
   -0.8554    0.6635   -4.9726 O   0  0  0  0  0
   -1.1667    1.5817   -4.8963 H   0  0  0  0  0
    1.1082    1.2173   -4.8417 H   0  0  0  0  0
    0.7372   -0.4562   -4.3604 H   0  0  0  0  0
    1.4943    0.8830   -1.9980 C   0  0  2  0  0
    0.8935    0.9778   -0.5887 C   0  0  2  0  0
    1.7173    0.3093    0.4760 C   0  0  0  0  0
    2.6917    1.0386    1.1800 C   0  0  0  0  0
    3.4671    0.4243    2.1699 C   0  0  0  0  0
    4.4331    1.0442    2.9091 O   0  0  0  0  0
    4.6387    2.4228    2.6127 C   0  0  0  0  0
    4.9708    2.5606    1.5792 H   0  0  0  0  0
    3.7339    3.0083    2.8152 H   0  0  0  0  0
    5.4299    2.7919    3.2726 H   0  0  0  0  0
    3.2543   -0.9299    2.4472 C   0  0  0  0  0
    3.9742   -1.5782    3.4131 O   0  0  0  0  0
    4.5737   -0.9318    3.8290 H   0  0  0  0  0
    2.3020   -1.6686    1.7493 C   0  0  0  0  0
    1.5376   -1.0499    0.7622 C   0  0  0  0  0
    0.7973   -1.6331    0.2211 H   0  0  0  0  0
    2.1483   -2.7213    1.9689 H   0  0  0  0  0
    2.8221    2.0900    0.9355 H   0  0  0  0  0
    0.7040    2.0216   -0.3076 H   0  0  0  0  0
    2.5792    1.9068   -2.2829 C   0  0  0  0  0
    3.6930    1.6762   -1.4265 O   0  0  0  0  0
    3.9932    0.7649   -1.5797 H   0  0  0  0  0
    2.9333    1.8453   -3.3170 H   0  0  0  0  0
    2.2206    2.9232   -2.0923 H   0  0  0  0  0
    1.9262   -0.1152   -2.1518 H   0  0  0  0  0
   -0.0859    2.0728   -2.8583 H   0  0  0  0  0
   -0.6272   -0.8946   -2.2549 H   0  0  0  0  0
  1  2  1  0  0  0
  1 26  1  0  0  0
  2  3  1  0  0  0
  2 19  1  0  0  0
  2 51  1  0  0  0
  3  4  2  0  0  0
  3 15  1  0  0  0
  4  5  1  0  0  0
  4 18  1  0  0  0
  5  6  1  0  0  0
  5 11  2  0  0  0
  6  7  1  0  0  0
  7  8  1  0  0  0
  7  9  1  0  0  0
  7 10  1  0  0  0
 11 12  1  0  0  0
 11 14  1  0  0  0
 12 13  1  0  0  0
 14 15  2  0  0  0
 14 17  1  0  0  0
 15 16  1  0  0  0
 19 20  1  0  0  0
 19 25  1  0  0  0
 19 50  1  0  0  0
 20 21  1  0  0  0
 20 23  1  0  0  0
 20 24  1  0  0  0
 21 22  1  0  0  0
 25 26  1  0  0  0
 25 44  1  0  0  0
 25 49  1  0  0  0
 26 27  1  0  0  0
 26 43  1  0  0  0
 27 28  2  0  0  0
 27 39  1  0  0  0
 28 29  1  0  0  0
 28 42  1  0  0  0
 29 30  1  0  0  0
 29 35  2  0  0  0
 30 31  1  0  0  0
 31 32  1  0  0  0
 31 33  1  0  0  0
 31 34  1  0  0  0
 35 36  1  0  0  0
 35 38  1  0  0  0
 36 37  1  0  0  0
 38 39  2  0  0  0
 38 41  1  0  0  0
 39 40  1  0  0  0
 44 45  1  0  0  0
 44 47  1  0  0  0
 44 48  1  0  0  0
 45 46  1  0  0  0
M  END
> <Tumorigenic>
none

> <Score>
34.32013

> <Active/Decoy>
active

> <InChI>
InChI=1S/C20H24O7/c1-25-17-7-11(3-5-15(17)23)19-13(9-21)14(10-22)20(27-19)12-4-6-16(24)18(8-12)26-2/h3-8,13-14,19-24H,9-10H2,1-2H3/t13-,14-,19+,20+/m1/s1

> <Matching Features>
H:14924486185440016873||HBA:14924321692640012300|HBA:14924486112070016868

> <Mol. Index>
979

> <Pharmacophore Match>
Model -1

> <# Confs.>
25

> <Source Database>
Pharm-Screening-input-NANPDB_After_DataWarror.ldb

> <Pharmacophore-Fit Score>
34.32

> <formula>
C20H24O7

> <Mutagenic>
none

> <Reproductive Effective>
none

> <Irritant>
none

$$$$
4beta,9alpha-dihydroxy-6alpha-(4-hydroxy-3-methoxybenzoyl)-dauc-7-ene
XX    ILIB03122402123D

 61 63  0  0  1  0              1 V2000
   -1.0995    0.6712   -3.7575 O   0  0  0  0  0
   -1.5856    0.9497   -2.6795 C   0  0  0  0  0
   -0.9732    0.9236   -1.4788 O   0  0  0  0  0
    0.4075    0.5446   -1.4637 C   0  0  2  0  0
    0.7097   -0.1532   -0.1139 C   0  0  1  0  0
   -0.1994   -1.3910    0.2049 C   0  0  2  0  0
   -0.4216   -2.1519   -0.9899 O   0  0  0  0  0
   -1.0592   -1.6684   -1.5413 H   0  0  0  0  0
   -1.5674   -1.0683    0.8346 C   0  0  0  0  0
   -2.3696   -2.3192    1.2055 C   0  0  0  0  0
   -1.8506   -2.9271    1.9528 H   0  0  0  0  0
   -3.3424   -2.0389    1.6239 H   0  0  0  0  0
   -2.5589   -2.9454    0.3282 H   0  0  0  0  0
   -1.4093   -0.1727    2.0661 C   0  0  0  0  0
   -0.8600    0.7405    1.8146 H   0  0  0  0  0
   -0.8736   -0.6828    2.8728 H   0  0  0  0  0
   -2.3897    0.1245    2.4542 H   0  0  0  0  0
   -2.1535   -0.5077    0.0950 H   0  0  0  0  0
    0.6781   -2.2512    1.1197 C   0  0  0  0  0
    2.0483   -2.1493    0.4724 C   0  0  0  0  0
    2.1913   -0.6642    0.0513 C   0  0  1  0  0
    3.0511   -0.6173   -1.2392 C   0  0  0  0  0
    3.5351    0.7539   -1.7369 C   0  0  2  0  0
    4.6410    1.1362   -0.9089 O   0  0  0  0  0
    5.1891    1.7595   -1.4139 H   0  0  0  0  0
    2.5445    1.8934   -1.8209 C   0  0  0  0  0
    1.2108    1.7896   -1.6800 C   0  0  0  0  0
    0.6262    2.7042   -1.7717 H   0  0  0  0  0
    3.1393    3.2466   -2.1348 C   0  0  0  0  0
    2.3758    4.0039   -2.3383 H   0  0  0  0  0
    3.7761    3.1825   -3.0230 H   0  0  0  0  0
    3.7428    3.6051   -1.2951 H   0  0  0  0  0
    3.9497    0.5971   -2.7412 H   0  0  0  0  0
    3.9460   -1.2322   -1.0631 H   0  0  0  0  0
    2.5124   -1.1207   -2.0521 H   0  0  0  0  0
    2.8693    0.0962    1.2122 C   0  0  0  0  0
    3.9018   -0.2415    1.3558 H   0  0  0  0  0
    2.3404   -0.0642    2.1582 H   0  0  0  0  0
    2.8830    1.1765    1.0379 H   0  0  0  0  0
    2.8401   -2.4797    1.1513 H   0  0  0  0  0
    2.0827   -2.8114   -0.4027 H   0  0  0  0  0
    0.3551   -3.2975    1.1586 H   0  0  0  0  0
    0.7151   -1.8596    2.1411 H   0  0  0  0  0
    0.5226    0.5899    0.6742 H   0  0  0  0  0
    0.5748   -0.1497   -2.3015 H   0  0  0  0  0
   -3.0059    1.3404   -2.5092 C   0  0  0  0  0
   -3.9980    0.8926   -3.3873 C   0  0  0  0  0
   -5.3288    1.2908   -3.2109 C   0  0  0  0  0
   -6.3770    0.9069   -3.9993 O   0  0  0  0  0
   -6.0422    0.0308   -5.0728 C   0  0  0  0  0
   -5.3514    0.5109   -5.7743 H   0  0  0  0  0
   -5.6327   -0.9141   -4.6991 H   0  0  0  0  0
   -6.9647   -0.1969   -5.6160 H   0  0  0  0  0
   -5.6440    2.1506   -2.1532 C   0  0  0  0  0
   -6.9297    2.5702   -1.9390 O   0  0  0  0  0
   -7.4936    2.1669   -2.6195 H   0  0  0  0  0
   -4.6617    2.6095   -1.2791 C   0  0  0  0  0
   -3.3394    2.2082   -1.4567 C   0  0  0  0  0
   -2.5866    2.5756   -0.7646 H   0  0  0  0  0
   -4.9166    3.2768   -0.4608 H   0  0  0  0  0
   -3.7309    0.2270   -4.2024 H   0  0  0  0  0
  1  2  2  0  0  0
  2  3  1  0  0  0
  2 46  1  0  0  0
  3  4  1  0  0  0
  4  5  1  0  0  0
  4 27  1  0  0  0
  4 45  1  0  0  0
  5  6  1  0  0  0
  5 21  1  0  0  0
  5 44  1  0  0  0
  6  7  1  0  0  0
  6  9  1  0  0  0
  6 19  1  0  0  0
  7  8  1  0  0  0
  9 10  1  0  0  0
  9 14  1  0  0  0
  9 18  1  0  0  0
 10 11  1  0  0  0
 10 12  1  0  0  0
 10 13  1  0  0  0
 14 15  1  0  0  0
 14 16  1  0  0  0
 14 17  1  0  0  0
 19 20  1  0  0  0
 19 42  1  0  0  0
 19 43  1  0  0  0
 20 21  1  0  0  0
 20 40  1  0  0  0
 20 41  1  0  0  0
 21 22  1  0  0  0
 21 36  1  0  0  0
 22 23  1  0  0  0
 22 34  1  0  0  0
 22 35  1  0  0  0
 23 24  1  0  0  0
 23 26  1  0  0  0
 23 33  1  0  0  0
 24 25  1  0  0  0
 26 27  2  0  0  0
 26 29  1  0  0  0
 27 28  1  0  0  0
 29 30  1  0  0  0
 29 31  1  0  0  0
 29 32  1  0  0  0
 36 37  1  0  0  0
 36 38  1  0  0  0
 36 39  1  0  0  0
 46 47  2  0  0  0
 46 58  1  0  0  0
 47 48  1  0  0  0
 47 61  1  0  0  0
 48 49  1  0  0  0
 48 54  2  0  0  0
 49 50  1  0  0  0
 50 51  1  0  0  0
 50 52  1  0  0  0
 50 53  1  0  0  0
 54 55  1  0  0  0
 54 57  1  0  0  0
 55 56  1  0  0  0
 57 58  2  0  0  0
 57 60  1  0  0  0
 58 59  1  0  0  0
M  END
> <Tumorigenic>
none

> <Score>
34.316936

> <Active/Decoy>
active

> <InChI>
InChI=1S/C23H32O6/c1-13(2)23(27)9-8-22(4)12-17(25)14(3)10-19(20(22)23)29-21(26)15-6-7-16(24)18(11-15)28-5/h6-7,10-11,13,17,19-20,24-25,27H,8-9,12H2,1-5H3/t17-,19-,20+,22-,23+/m0/s1

> <Matching Features>
H:14924486185440016873||HBA:14924321692640012300|HBA:14924486112070016868

> <Mol. Index>
940

> <Pharmacophore Match>
Model -1

> <# Confs.>
25

> <Source Database>
Pharm-Screening-input-NANPDB_After_DataWarror.ldb

> <Pharmacophore-Fit Score>
34.32

> <formula>
C23H32O6

> <Mutagenic>
none

> <Reproductive Effective>
none

> <Irritant>
none

$$$$
euphoheliosnoid D
XX    ILIB03122402123D

 73 75  0  0  1  0              1 V2000
   -0.0509    3.9972   -3.2688 O   0  0  0  0  0
   -0.5372    3.2549   -2.4075 C   0  0  0  0  0
   -1.5048    2.1830   -2.8899 C   0  0  0  0  0
   -2.2293    1.3979   -2.0702 C   0  0  0  0  0
   -3.0928    0.2310   -2.5042 C   0  0  2  0  0
   -4.3303    0.7743   -2.9677 O   0  0  0  0  0
   -4.8079    0.0671   -3.4358 H   0  0  0  0  0
   -3.3486   -0.8461   -1.4004 C   0  0  0  0  0
   -2.0547   -1.2681   -0.6604 C   0  0  0  0  0
   -2.0334   -1.3661    0.5701 O   0  0  0  0  0
   -0.8287   -1.6565   -1.4829 C   0  0  0  0  0
    0.4815   -1.5615   -0.6835 C   0  0  1  0  0
    1.5567   -1.9623   -1.5344 O   0  0  0  0  0
    2.3784   -1.9160   -1.0159 H   0  0  0  0  0
    0.7845   -0.1857   -0.0992 C   0  0  0  0  0
    0.7739    0.9198   -0.8717 C   0  0  0  0  0
    0.9577    2.3468   -0.4445 C   0  0  2  0  0
   -0.1048    3.4050   -0.9176 C   0  0  2  0  0
   -1.3195    3.4421   -0.1495 O   0  0  0  0  0
   -1.1979    3.5706    1.1999 C   0  0  0  0  0
   -0.1521    3.6589    1.8299 O   0  0  0  0  0
   -2.5588    3.6181    1.8270 C   0  0  0  0  0
   -2.4681    3.4380    2.9017 H   0  0  0  0  0
   -3.0058    4.6015    1.6627 H   0  0  0  0  0
   -3.1922    2.8332    1.4077 H   0  0  0  0  0
    0.6471    4.7620   -0.7230 C   0  0  0  0  0
    2.1400    4.4278   -0.5278 C   0  0  1  0  0
    2.2847    2.9532   -0.9252 C   0  0  2  0  0
    2.4607    2.8362   -2.3393 O   0  0  0  0  0
    3.5225    2.1086   -2.7848 C   0  0  0  0  0
    4.3721    1.5587   -2.1023 O   0  0  0  0  0
    3.5266    2.0786   -4.2594 C   0  0  0  0  0
    2.9838    3.1521   -4.9651 C   0  0  0  0  0
    3.0014    3.1249   -6.3595 C   0  0  0  0  0
    3.5610    2.0365   -7.0325 C   0  0  0  0  0
    4.1060    0.9704   -6.3124 C   0  0  0  0  0
    4.0927    0.9877   -4.9186 C   0  0  0  0  0
    4.5202    0.1575   -4.3649 H   0  0  0  0  0
    4.5414    0.1277   -6.8417 H   0  0  0  0  0
    3.5744    2.0198   -8.1186 H   0  0  0  0  0
    2.5806    3.9522   -6.9241 H   0  0  0  0  0
    2.5509    4.0024   -4.4480 H   0  0  0  0  0
    3.1423    2.4995   -0.3836 H   0  0  0  0  0
    3.0598    5.3823   -1.2757 C   0  0  0  0  0
    4.1074    5.0916   -1.1445 H   0  0  0  0  0
    2.8424    5.4008   -2.3485 H   0  0  0  0  0
    2.9427    6.4025   -0.8960 H   0  0  0  0  0
    2.3578    4.5174    0.5458 H   0  0  0  0  0
    0.4977    5.4542   -1.5586 H   0  0  0  0  0
    0.2889    5.3054    0.1595 H   0  0  0  0  0
    0.9654    2.3858    0.6488 H   0  0  0  0  0
    0.6302    0.7701   -1.9387 H   0  0  0  0  0
    1.0902   -0.1947    1.3745 C   0  0  0  0  0
    1.8301   -0.9716    1.5971 H   0  0  0  0  0
    1.5123    0.7416    1.7419 H   0  0  0  0  0
    0.1843   -0.4094    1.9492 H   0  0  0  0  0
    0.4336   -2.3003    0.1266 H   0  0  0  0  0
   -0.9705   -2.6888   -1.8259 H   0  0  0  0  0
   -0.7543   -1.0490   -2.3872 H   0  0  0  0  0
   -4.3692   -0.3287   -0.3579 C   0  0  0  0  0
   -4.5771   -1.0878    0.4061 H   0  0  0  0  0
   -5.3273   -0.0695   -0.8183 H   0  0  0  0  0
   -3.9946    0.5579    0.1646 H   0  0  0  0  0
   -3.9438   -2.1187   -2.0341 C   0  0  0  0  0
   -4.0551   -2.9148   -1.2886 H   0  0  0  0  0
   -3.2970   -2.5103   -2.8264 H   0  0  0  0  0
   -4.9302   -1.9323   -2.4709 H   0  0  0  0  0
   -2.6161   -0.2627   -3.3590 H   0  0  0  0  0
   -2.1750    1.5284   -0.9984 H   0  0  0  0  0
   -1.5606    2.0725   -4.3949 C   0  0  0  0  0
   -2.3055    1.3598   -4.7571 H   0  0  0  0  0
   -0.5875    1.7577   -4.7866 H   0  0  0  0  0
   -1.8203    3.0385   -4.8397 H   0  0  0  0  0
  1  2  2  0  0  0
  2  3  1  0  0  0
  2 18  1  0  0  0
  3  4  2  0  0  0
  3 70  1  0  0  0
  4  5  1  0  0  0
  4 69  1  0  0  0
  5  6  1  0  0  0
  5  8  1  0  0  0
  5 68  1  0  0  0
  6  7  1  0  0  0
  8  9  1  0  0  0
  8 60  1  0  0  0
  8 64  1  0  0  0
  9 10  2  0  0  0
  9 11  1  0  0  0
 11 12  1  0  0  0
 11 58  1  0  0  0
 11 59  1  0  0  0
 12 13  1  0  0  0
 12 15  1  0  0  0
 12 57  1  0  0  0
 13 14  1  0  0  0
 15 16  2  0  0  0
 15 53  1  0  0  0
 16 17  1  0  0  0
 16 52  1  0  0  0
 17 18  1  0  0  0
 17 28  1  0  0  0
 17 51  1  0  0  0
 18 19  1  0  0  0
 18 26  1  0  0  0
 19 20  1  0  0  0
 20 21  2  0  0  0
 20 22  1  0  0  0
 22 23  1  0  0  0
 22 24  1  0  0  0
 22 25  1  0  0  0
 26 27  1  0  0  0
 26 49  1  0  0  0
 26 50  1  0  0  0
 27 28  1  0  0  0
 27 44  1  0  0  0
 27 48  1  0  0  0
 28 29  1  0  0  0
 28 43  1  0  0  0
 29 30  1  0  0  0
 30 31  2  0  0  0
 30 32  1  0  0  0
 32 33  2  0  0  0
 32 37  1  0  0  0
 33 34  1  0  0  0
 33 42  1  0  0  0
 34 35  2  0  0  0
 34 41  1  0  0  0
 35 36  1  0  0  0
 35 40  1  0  0  0
 36 37  2  0  0  0
 36 39  1  0  0  0
 37 38  1  0  0  0
 44 45  1  0  0  0
 44 46  1  0  0  0
 44 47  1  0  0  0
 53 54  1  0  0  0
 53 55  1  0  0  0
 53 56  1  0  0  0
 60 61  1  0  0  0
 60 62  1  0  0  0
 60 63  1  0  0  0
 64 65  1  0  0  0
 64 66  1  0  0  0
 64 67  1  0  0  0
 70 71  1  0  0  0
 70 72  1  0  0  0
 70 73  1  0  0  0
M  END
> <Tumorigenic>
none

> <Score>
34.323383

> <Active/Decoy>
active

> <InChI>
InChI=1S/C29H36O8/c1-16-12-21-25(36-27(35)20-10-8-7-9-11-20)18(3)15-29(21,37-19(4)30)26(34)17(2)13-23(32)28(5,6)24(33)14-22(16)31/h7-13,18,21-23,25,31-32H,14-15H2,1-6H3/b16-12-,17-13-/t18-,21-,22+,23-,25-,29-/m0/s1

> <Matching Features>
H:14924486185440016873||HBA:14924321692640012300|HBA:14924486112070016868

> <Mol. Index>
505

> <Pharmacophore Match>
Model -1

> <# Confs.>
25

> <Source Database>
Pharm-Screening-input-NANPDB_After_DataWarror.ldb

> <Pharmacophore-Fit Score>
34.32

> <formula>
C29H36O8

> <Mutagenic>
none

> <Reproductive Effective>
none

> <Irritant>
none

$$$$
luteolin 7-O-alpha-L-rhamnopyranoside
XX    ILIB03122402123D

 51 54  0  0  1  0              1 V2000
   -5.6890    0.8065   -3.5066 O   0  0  0  0  0
   -4.7910    1.3353   -4.1466 C   0  0  0  0  0
   -3.3617    1.1011   -3.8587 C   0  0  0  0  0
   -2.4216    1.7581   -4.6512 C   0  0  0  0  0
   -2.7597    2.5761   -5.7001 O   0  0  0  0  0
   -4.1012    2.8083   -5.9616 C   0  0  0  0  0
   -5.1011    2.2437   -5.2683 C   0  0  0  0  0
   -6.1507    2.4071   -5.4858 H   0  0  0  0  0
   -4.3429    3.7066   -7.1068 C   0  0  0  0  0
   -5.4927    3.5818   -7.8972 C   0  0  0  0  0
   -5.7200    4.4440   -8.9719 C   0  0  0  0  0
   -6.8547    4.2664   -9.7117 O   0  0  0  0  0
   -6.8648    4.9384  -10.4164 H   0  0  0  0  0
   -4.8085    5.4494   -9.2732 C   0  0  0  0  0
   -5.0556    6.2791  -10.3292 O   0  0  0  0  0
   -4.3216    6.9140  -10.4012 H   0  0  0  0  0
   -3.6619    5.6008   -8.5023 C   0  0  0  0  0
   -3.4319    4.7395   -7.4239 C   0  0  0  0  0
   -2.5222    4.8850   -6.8458 H   0  0  0  0  0
   -2.9377    6.3794   -8.7275 H   0  0  0  0  0
   -6.2278    2.8077   -7.6889 H   0  0  0  0  0
   -1.0536    1.5635   -4.4361 C   0  0  0  0  0
   -0.6018    0.7335   -3.4114 C   0  0  0  0  0
    0.7441    0.6394   -3.2599 O   0  0  0  0  0
    1.2461   -0.5988   -2.7631 C   0  0  2  0  0
    1.3660   -0.6268   -1.3310 O   0  0  0  0  0
    2.2942    0.3259   -0.8045 C   0  0  2  0  0
    3.7050    0.0815   -1.3503 C   0  0  2  0  0
    4.5686    1.1253   -0.9047 O   0  0  0  0  0
    5.4465    0.9595   -1.2882 H   0  0  0  0  0
    3.6805    0.0647   -2.8794 C   0  0  1  0  0
    4.9599   -0.3148   -3.3843 O   0  0  0  0  0
    5.1318   -1.2271   -3.0959 H   0  0  0  0  0
    2.6071   -0.8862   -3.4089 C   0  0  1  0  0
    2.9712   -2.2391   -3.1312 O   0  0  0  0  0
    2.9034   -2.3814   -2.1729 H   0  0  0  0  0
    2.5472   -0.7921   -4.4985 H   0  0  0  0  0
    3.4940    1.0793   -3.2492 H   0  0  0  0  0
    4.1097   -0.8631   -0.9692 H   0  0  0  0  0
    2.2529    0.2079    0.7156 C   0  0  0  0  0
    1.2330    0.3711    1.0804 H   0  0  0  0  0
    2.9121    0.9374    1.1961 H   0  0  0  0  0
    2.5440   -0.7969    1.0376 H   0  0  0  0  0
    1.9584    1.3381   -1.0631 H   0  0  0  0  0
    0.5635   -1.4162   -3.0346 H   0  0  0  0  0
   -1.5494    0.0704   -2.6083 C   0  0  0  0  0
   -2.9180    0.2708   -2.8233 C   0  0  0  0  0
   -3.7613   -0.4336   -2.0081 O   0  0  0  0  0
   -4.6803   -0.2390   -2.2522 H   0  0  0  0  0
   -1.2438   -0.5834   -1.7965 H   0  0  0  0  0
   -0.3305    2.0745   -5.0680 H   0  0  0  0  0
  1  2  2  0  0  0
  2  3  1  0  0  0
  2  7  1  0  0  0
  3  4  2  0  0  0
  3 47  1  0  0  0
  4  5  1  0  0  0
  4 22  1  0  0  0
  5  6  1  0  0  0
  6  7  2  0  0  0
  6  9  1  0  0  0
  7  8  1  0  0  0
  9 10  2  0  0  0
  9 18  1  0  0  0
 10 11  1  0  0  0
 10 21  1  0  0  0
 11 12  1  0  0  0
 11 14  2  0  0  0
 12 13  1  0  0  0
 14 15  1  0  0  0
 14 17  1  0  0  0
 15 16  1  0  0  0
 17 18  2  0  0  0
 17 20  1  0  0  0
 18 19  1  0  0  0
 22 23  2  0  0  0
 22 51  1  0  0  0
 23 24  1  0  0  0
 23 46  1  0  0  0
 24 25  1  0  0  0
 25 26  1  0  0  0
 25 34  1  0  0  0
 25 45  1  0  0  0
 26 27  1  0  0  0
 27 28  1  0  0  0
 27 40  1  0  0  0
 27 44  1  0  0  0
 28 29  1  0  0  0
 28 31  1  0  0  0
 28 39  1  0  0  0
 29 30  1  0  0  0
 31 32  1  0  0  0
 31 34  1  0  0  0
 31 38  1  0  0  0
 32 33  1  0  0  0
 34 35  1  0  0  0
 34 37  1  0  0  0
 35 36  1  0  0  0
 40 41  1  0  0  0
 40 42  1  0  0  0
 40 43  1  0  0  0
 46 47  2  0  0  0
 46 50  1  0  0  0
 47 48  1  0  0  0
 48 49  1  0  0  0
M  END
> <Tumorigenic>
none

> <Score>
34.318115

> <Active/Decoy>
active

> <InChI>
InChI=1S/C21H20O10/c1-8-18(26)19(27)20(28)21(29-8)30-10-5-13(24)17-14(25)7-15(31-16(17)6-10)9-2-3-11(22)12(23)4-9/h2-8,18-24,26-28H,1H3/t8-,18-,19+,20+,21-/m0/s1

> <Matching Features>
H:14924486185440016873||HBA:14924321692640012300|HBA:14924486112070016868

> <Mol. Index>
37

> <Pharmacophore Match>
Model -1

> <# Confs.>
25

> <Source Database>
Pharm-Screening-input-NANPDB_After_DataWarror.ldb

> <Pharmacophore-Fit Score>
34.32

> <formula>
C21H20O10

> <Mutagenic>
none

> <Reproductive Effective>
none

> <Irritant>
none

$$$$
6-transcaffeoyl ajugol
XX    ILIB03122402123D

 65 68  0  0  1  0              1 V2000
    5.5793    1.7764   -2.2667 O   0  0  0  0  0
    5.8134    1.5299   -1.0913 C   0  0  0  0  0
    4.9220    1.0749   -0.1573 O   0  0  0  0  0
    3.5767    0.8884   -0.5996 C   0  0  1  0  0
    3.3947   -0.5612   -1.1213 C   0  0  1  0  0
    2.0321   -1.0183   -0.5772 C   0  0  2  0  0
    0.8901   -0.6093   -1.5336 C   0  0  2  0  0
   -0.3224   -1.1631   -1.0336 O   0  0  0  0  0
   -1.4612   -0.8497   -1.8434 C   0  0  2  0  0
   -1.6554    0.5633   -1.9240 O   0  0  0  0  0
   -2.7701    0.9228   -2.7460 C   0  0  1  0  0
   -4.0633    0.3891   -2.1228 C   0  0  1  0  0
   -5.1508    0.6793   -2.9944 O   0  0  0  0  0
   -5.9717    0.4271   -2.5380 H   0  0  0  0  0
   -3.9750   -1.1219   -1.9041 C   0  0  2  0  0
   -5.0684   -1.5498   -1.0925 O   0  0  0  0  0
   -5.8868   -1.3903   -1.5942 H   0  0  0  0  0
   -2.6792   -1.5046   -1.1900 C   0  0  1  0  0
   -2.5405   -2.9244   -1.2453 O   0  0  0  0  0
   -1.7020   -3.1522   -0.8101 H   0  0  0  0  0
   -2.7419   -1.2307   -0.1300 H   0  0  0  0  0
   -4.0600   -1.6606   -2.8545 H   0  0  0  0  0
   -4.2576    0.8889   -1.1652 H   0  0  0  0  0
   -2.7844    2.4374   -2.8577 C   0  0  0  0  0
   -1.5823    2.9122   -3.4429 O   0  0  0  0  0
   -0.8458    2.6194   -2.8775 H   0  0  0  0  0
   -2.9035    2.8990   -1.8712 H   0  0  0  0  0
   -3.6276    2.7785   -3.4685 H   0  0  0  0  0
   -2.6186    0.5054   -3.7504 H   0  0  0  0  0
   -1.2955   -1.2670   -2.8466 H   0  0  0  0  0
    1.1129   -1.0810   -2.8761 O   0  0  0  0  0
    2.3838   -0.9287   -3.3505 C   0  0  0  0  0
    3.4665   -0.6587   -2.6171 C   0  0  0  0  0
    4.4319   -0.5567   -3.1012 H   0  0  0  0  0
    2.4175   -1.0809   -4.4202 H   0  0  0  0  0
    0.7909    0.4840   -1.5677 H   0  0  0  0  0
    2.0305   -0.3709    0.8247 C   0  0  1  0  0
    2.9528   -1.0899    1.6560 O   0  0  0  0  0
    2.6097   -1.9935    1.7643 H   0  0  0  0  0
    2.6208    1.0256    0.5890 C   0  0  0  0  0
    3.1358    1.4096    1.4765 H   0  0  0  0  0
    1.8257    1.7315    0.3212 H   0  0  0  0  0
    0.7037   -0.3165    1.5664 C   0  0  0  0  0
    0.8462    0.0757    2.5805 H   0  0  0  0  0
    0.2818   -1.3209    1.6813 H   0  0  0  0  0
   -0.0303    0.3192    1.0634 H   0  0  0  0  0
    2.0350   -2.1139   -0.4869 H   0  0  0  0  0
    4.1855   -1.2027   -0.7153 H   0  0  0  0  0
    3.3126    1.6377   -1.3654 H   0  0  0  0  0
    7.1591    1.7014   -0.5109 C   0  0  0  0  0
    7.4640    1.4452    0.7704 C   0  0  0  0  0
    8.7949    1.6348    1.3587 C   0  0  0  0  0
    9.2248    0.8193    2.4227 C   0  0  0  0  0
   10.4960    0.9771    2.9866 C   0  0  0  0  0
   11.3500    1.9573    2.4887 C   0  0  0  0  0
   12.6005    2.1281    3.0152 O   0  0  0  0  0
   12.7261    1.4850    3.7331 H   0  0  0  0  0
   10.9574    2.7663    1.4347 C   0  0  0  0  0
    9.6871    2.6069    0.8750 C   0  0  0  0  0
    9.4117    3.2621    0.0518 H   0  0  0  0  0
   11.6254    3.5259    1.0409 H   0  0  0  0  0
   10.7971    0.3347    3.8080 H   0  0  0  0  0
    8.5808    0.0480    2.8373 H   0  0  0  0  0
    6.7030    1.0898    1.4593 H   0  0  0  0  0
    7.9031    2.0793   -1.2060 H   0  0  0  0  0
  1  2  2  0  0  0
  2  3  1  0  0  0
  2 50  1  0  0  0
  3  4  1  0  0  0
  4  5  1  0  0  0
  4 40  1  0  0  0
  4 49  1  0  0  0
  5  6  1  0  0  0
  5 33  1  0  0  0
  5 48  1  0  0  0
  6  7  1  0  0  0
  6 37  1  0  0  0
  6 47  1  0  0  0
  7  8  1  0  0  0
  7 31  1  0  0  0
  7 36  1  0  0  0
  8  9  1  0  0  0
  9 10  1  0  0  0
  9 18  1  0  0  0
  9 30  1  0  0  0
 10 11  1  0  0  0
 11 12  1  0  0  0
 11 24  1  0  0  0
 11 29  1  0  0  0
 12 13  1  0  0  0
 12 15  1  0  0  0
 12 23  1  0  0  0
 13 14  1  0  0  0
 15 16  1  0  0  0
 15 18  1  0  0  0
 15 22  1  0  0  0
 16 17  1  0  0  0
 18 19  1  0  0  0
 18 21  1  0  0  0
 19 20  1  0  0  0
 24 25  1  0  0  0
 24 27  1  0  0  0
 24 28  1  0  0  0
 25 26  1  0  0  0
 31 32  1  0  0  0
 32 33  2  0  0  0
 32 35  1  0  0  0
 33 34  1  0  0  0
 37 38  1  0  0  0
 37 40  1  0  0  0
 37 43  1  0  0  0
 38 39  1  0  0  0
 40 41  1  0  0  0
 40 42  1  0  0  0
 43 44  1  0  0  0
 43 45  1  0  0  0
 43 46  1  0  0  0
 50 51  2  0  0  0
 50 65  1  0  0  0
 51 52  1  0  0  0
 51 64  1  0  0  0
 52 53  2  0  0  0
 52 59  1  0  0  0
 53 54  1  0  0  0
 53 63  1  0  0  0
 54 55  2  0  0  0
 54 62  1  0  0  0
 55 56  1  0  0  0
 55 58  1  0  0  0
 56 57  1  0  0  0
 58 59  2  0  0  0
 58 61  1  0  0  0
 59 60  1  0  0  0
M  END
> <Tumorigenic>
none

> <Score>
34.30509

> <Active/Decoy>
active

> <InChI>
InChI=1S/C24H30O11/c1-24(31)10-15(33-17(27)7-4-12-2-5-13(26)6-3-12)14-8-9-32-22(18(14)24)35-23-21(30)20(29)19(28)16(11-25)34-23/h2-9,14-16,18-23,25-26,28-31H,10-11H2,1H3/b7-4+/t14-,15+,16+,18+,19+,20-,21+,22-,23-,24-/m0/s1

> <Matching Features>
H:14924486185440016873||HBA:14924321692640012300|HBA:14924486112070016868

> <Mol. Index>
122

> <Pharmacophore Match>
Model -1

> <# Confs.>
25

> <Source Database>
Pharm-Screening-input-NANPDB_After_DataWarror.ldb

> <Pharmacophore-Fit Score>
34.31

> <formula>
C24H30O11

> <Mutagenic>
none

> <Reproductive Effective>
none

> <Irritant>
none

$$$$
14-hydroxy-2-oxoguaia-1(10),3-dien-5alpha,11alphaH-12,6alpha-olide
XX    ILIB03122402123D

 37 39  0  0  1  0              1 V2000
   -3.4775    0.5140    0.2294 O   0  0  0  0  0
   -2.2772    0.4946    0.0328 C   0  0  0  0  0
   -1.5478    0.6202   -1.2711 C   0  0  0  0  0
   -2.0474    1.2271   -2.3698 C   0  0  0  0  0
   -1.2280    1.5017   -3.6449 C   0  0  0  0  0
   -0.1056    0.5360   -4.0163 C   0  0  0  0  0
    1.1092    0.5222   -3.1009 C   0  0  2  0  0
    0.9039    1.0271   -1.6832 C   0  0  2  0  0
    2.2369    0.9794   -1.1685 O   0  0  0  0  0
    3.1054    1.2865   -2.1903 C   0  0  0  0  0
    4.2938    1.5249   -2.0402 O   0  0  0  0  0
    2.3637    1.2843   -3.5121 C   0  0  2  0  0
    2.1600    2.7017   -4.0184 C   0  0  0  0  0
    3.1280    3.1754   -4.2198 H   0  0  0  0  0
    1.5855    2.7118   -4.9495 H   0  0  0  0  0
    1.6428    3.3337   -3.2894 H   0  0  0  0  0
    2.9314    0.6952   -4.2407 H   0  0  0  0  0
   -0.1278    0.1591   -0.9597 C   0  0  1  0  0
   -0.0877    0.1428    0.5483 C   0  0  0  0  0
   -1.2912    0.3047    1.1071 C   0  0  0  0  0
   -1.5393    0.2704    2.1540 H   0  0  0  0  0
    1.1492   -0.1651    1.3202 C   0  0  0  0  0
    1.6639   -1.0291    0.8902 H   0  0  0  0  0
    0.9206   -0.4059    2.3637 H   0  0  0  0  0
    1.8302    0.6901    1.3242 H   0  0  0  0  0
   -0.0227   -0.8882   -1.2770 H   0  0  0  0  0
    0.5992    2.0813   -1.6415 H   0  0  0  0  0
    1.4288   -0.5323   -3.0443 H   0  0  0  0  0
    0.2143    0.7293   -5.0471 H   0  0  0  0  0
   -0.5344   -0.4756   -4.0341 H   0  0  0  0  0
   -0.8417    2.5274   -3.6058 H   0  0  0  0  0
   -1.9255    1.4783   -4.4940 H   0  0  0  0  0
   -3.4205    1.7876   -2.4771 C   0  0  0  0  0
   -4.3107    0.7795   -2.9747 O   0  0  0  0  0
   -4.0476    0.5806   -3.8985 H   0  0  0  0  0
   -3.4479    2.6395   -3.1648 H   0  0  0  0  0
   -3.8070    2.1096   -1.5180 H   0  0  0  0  0
  1  2  2  0  0  0
  2  3  1  0  0  0
  2 20  1  0  0  0
  3  4  2  0  0  0
  3 18  1  0  0  0
  4  5  1  0  0  0
  4 33  1  0  0  0
  5  6  1  0  0  0
  5 31  1  0  0  0
  5 32  1  0  0  0
  6  7  1  0  0  0
  6 29  1  0  0  0
  6 30  1  0  0  0
  7  8  1  0  0  0
  7 12  1  0  0  0
  7 28  1  0  0  0
  8  9  1  0  0  0
  8 18  1  0  0  0
  8 27  1  0  0  0
  9 10  1  0  0  0
 10 11  2  0  0  0
 10 12  1  0  0  0
 12 13  1  0  0  0
 12 17  1  0  0  0
 13 14  1  0  0  0
 13 15  1  0  0  0
 13 16  1  0  0  0
 18 19  1  0  0  0
 18 26  1  0  0  0
 19 20  2  0  0  0
 19 22  1  0  0  0
 20 21  1  0  0  0
 22 23  1  0  0  0
 22 24  1  0  0  0
 22 25  1  0  0  0
 33 34  1  0  0  0
 33 36  1  0  0  0
 33 37  1  0  0  0
 34 35  1  0  0  0
M  END
> <Tumorigenic>
none

> <Score>
34.292297

> <Active/Decoy>
active

> <InChI>
InChI=1S/C15H18O4/c1-7-5-11(17)13-9(6-16)3-4-10-8(2)15(18)19-14(10)12(7)13/h5,8,10,12,14,16H,3-4,6H2,1-2H3/t8-,10+,12+,14+/m1/s1

> <Matching Features>
H:14924486185440016873||HBA:14924321692640012300|HBA:14924486112070016868

> <Mol. Index>
337

> <Pharmacophore Match>
Model -1

> <# Confs.>
4

> <Source Database>
Pharm-Screening-input-NANPDB_After_DataWarror.ldb

> <Pharmacophore-Fit Score>
34.29

> <formula>
C15H18O4

> <Mutagenic>
none

> <Reproductive Effective>
none

> <Irritant>
none

$$$$
(-)-4'-hydroxy-7-methoxy-8-methylflavan
XX    ILIB03122402123D

 38 40  0  0  1  0              1 V2000
   -0.1584    0.3826   -0.9848 O   0  0  0  0  0
    1.0017    0.3286   -0.2478 C   0  0  0  0  0
    1.0263   -0.1166    1.0813 C   0  0  0  0  0
    2.2466   -0.1643    1.7601 C   0  0  0  0  0
    3.4278    0.2258    1.1297 C   0  0  0  0  0
    3.4060    0.7100   -0.1949 C   0  0  0  0  0
    2.1793    0.7823   -0.8796 C   0  0  0  0  0
    2.1314    1.2566   -2.3111 C   0  0  0  0  0
    2.1875    0.4024   -2.9925 H   0  0  0  0  0
    1.2101    1.8130   -2.5098 H   0  0  0  0  0
    2.9525    1.9435   -2.5379 H   0  0  0  0  0
    4.5238    1.1021   -0.8591 O   0  0  0  0  0
    5.7446    0.9978   -0.1536 C   0  0  0  0  0
    5.7279    1.6520    0.7354 H   0  0  0  0  0
    6.5432    1.3627   -0.8071 H   0  0  0  0  0
    5.9689   -0.0289    0.1217 H   0  0  0  0  0
    4.3468    0.1751    1.7070 H   0  0  0  0  0
    2.2880   -0.5194    2.7874 H   0  0  0  0  0
   -0.2237   -0.5733    1.7788 C   0  0  0  0  0
   -1.4609   -0.1138    1.0199 C   0  0  0  0  0
   -1.2548   -0.3882   -0.4699 C   0  0  1  0  0
   -2.4692   -0.0487   -1.2900 C   0  0  0  0  0
   -3.1341   -1.0521   -2.0092 C   0  0  0  0  0
   -4.2557   -0.7489   -2.7833 C   0  0  0  0  0
   -4.7173    0.5625   -2.8433 C   0  0  0  0  0
   -5.8138    0.8309   -3.6122 O   0  0  0  0  0
   -6.0038    1.7825   -3.5552 H   0  0  0  0  0
   -4.0713    1.5747   -2.1378 C   0  0  0  0  0
   -2.9508    1.2681   -1.3638 C   0  0  0  0  0
   -2.4534    2.0667   -0.8203 H   0  0  0  0  0
   -4.4281    2.5991   -2.1814 H   0  0  0  0  0
   -4.7597   -1.5381   -3.3319 H   0  0  0  0  0
   -2.7843   -2.0806   -1.9716 H   0  0  0  0  0
   -1.0204   -1.4525   -0.6188 H   0  0  0  0  0
   -1.6006    0.9611    1.1943 H   0  0  0  0  0
   -2.3493   -0.6279    1.4056 H   0  0  0  0  0
   -0.2102   -1.6678    1.8394 H   0  0  0  0  0
   -0.2588   -0.1785    2.8006 H   0  0  0  0  0
  1  2  1  0  0  0
  1 21  1  0  0  0
  2  3  2  0  0  0
  2  7  1  0  0  0
  3  4  1  0  0  0
  3 19  1  0  0  0
  4  5  2  0  0  0
  4 18  1  0  0  0
  5  6  1  0  0  0
  5 17  1  0  0  0
  6  7  2  0  0  0
  6 12  1  0  0  0
  7  8  1  0  0  0
  8  9  1  0  0  0
  8 10  1  0  0  0
  8 11  1  0  0  0
 12 13  1  0  0  0
 13 14  1  0  0  0
 13 15  1  0  0  0
 13 16  1  0  0  0
 19 20  1  0  0  0
 19 37  1  0  0  0
 19 38  1  0  0  0
 20 21  1  0  0  0
 20 35  1  0  0  0
 20 36  1  0  0  0
 21 22  1  0  0  0
 21 34  1  0  0  0
 22 23  2  0  0  0
 22 29  1  0  0  0
 23 24  1  0  0  0
 23 33  1  0  0  0
 24 25  2  0  0  0
 24 32  1  0  0  0
 25 26  1  0  0  0
 25 28  1  0  0  0
 26 27  1  0  0  0
 28 29  2  0  0  0
 28 31  1  0  0  0
 29 30  1  0  0  0
M  END
> <Tumorigenic>
none

> <Score>
34.28535

> <Active/Decoy>
active

> <InChI>
InChI=1S/C17H18O3/c1-11-15(19-2)9-5-13-6-10-16(20-17(11)13)12-3-7-14(18)8-4-12/h3-5,7-9,16,18H,6,10H2,1-2H3/t16-/m0/s1

> <Matching Features>
H:14924486185440016873||HBA:14924321692640012300|HBA:14924486112070016868

> <Mol. Index>
59

> <Pharmacophore Match>
Model -1

> <# Confs.>
5

> <Source Database>
Pharm-Screening-input-NANPDB_After_DataWarror.ldb

> <Pharmacophore-Fit Score>
34.29

> <formula>
C17H18O3

> <Mutagenic>
none

> <Reproductive Effective>
none

> <Irritant>
none

$$$$
1beta-hydroxycostic acid
XX    ILIB03122402123D

 40 41  0  0  1  0              1 V2000
   -4.3878    0.7522   -2.9293 O   0  0  0  0  0
   -3.2683    1.1744   -2.6559 C   0  0  0  0  0
   -3.0313    2.2907   -1.9431 O   0  0  0  0  0
   -3.8597    2.7415   -1.6733 H   0  0  0  0  0
   -2.0152    0.5216   -3.0445 C   0  0  0  0  0
   -2.1273   -0.6119   -3.7488 C   0  0  0  0  0
   -1.2614   -1.1748   -4.0794 H   0  0  0  0  0
   -3.0982   -1.0107   -4.0440 H   0  0  0  0  0
   -0.6914    1.1212   -2.6002 C   0  0  1  0  0
   -0.2632    0.5420   -1.2378 C   0  0  0  0  0
    1.0617    1.1606   -0.7449 C   0  0  2  0  0
    2.2171    0.9809   -1.7798 C   0  0  2  0  0
    3.4558    1.7913   -1.2832 C   0  0  2  0  0
    4.5605    1.6061   -2.1631 O   0  0  0  0  0
    5.3002    2.1363   -1.8244 H   0  0  0  0  0
    3.8840    1.4195    0.1433 C   0  0  0  0  0
    2.7293    1.5033    1.1375 C   0  0  0  0  0
    1.5244    0.7371    0.6425 C   0  0  0  0  0
    0.9598   -0.2188    1.3968 C   0  0  0  0  0
    0.1006   -0.7884    1.0652 H   0  0  0  0  0
    1.3535   -0.4610    2.3783 H   0  0  0  0  0
    2.4438    2.5535    1.2806 H   0  0  0  0  0
    3.0678    1.1358    2.1135 H   0  0  0  0  0
    4.6917    2.0904    0.4664 H   0  0  0  0  0
    4.3273    0.4158    0.1570 H   0  0  0  0  0
    3.2115    2.8630   -1.3009 H   0  0  0  0  0
    1.7579    1.5495   -3.1484 C   0  0  0  0  0
    0.4320    0.9638   -3.6398 C   0  0  0  0  0
    0.1493    1.4739   -4.5700 H   0  0  0  0  0
    0.5732   -0.0921   -3.8996 H   0  0  0  0  0
    1.6422    2.6386   -3.0702 H   0  0  0  0  0
    2.5264    1.3770   -3.9120 H   0  0  0  0  0
    2.6034   -0.5106   -1.9675 C   0  0  0  0  0
    1.7580   -1.1231   -2.2918 H   0  0  0  0  0
    3.3857   -0.6226   -2.7268 H   0  0  0  0  0
    2.9805   -0.9601   -1.0445 H   0  0  0  0  0
    0.8601    2.2408   -0.6638 H   0  0  0  0  0
   -0.1817   -0.5502   -1.3054 H   0  0  0  0  0
   -1.0492    0.7476   -0.4987 H   0  0  0  0  0
   -0.8557    2.2006   -2.4700 H   0  0  0  0  0
  1  2  2  0  0  0
  2  3  1  0  0  0
  2  5  1  0  0  0
  3  4  1  0  0  0
  5  6  2  0  0  0
  5  9  1  0  0  0
  6  7  1  0  0  0
  6  8  1  0  0  0
  9 10  1  0  0  0
  9 28  1  0  0  0
  9 40  1  0  0  0
 10 11  1  0  0  0
 10 38  1  0  0  0
 10 39  1  0  0  0
 11 12  1  0  0  0
 11 18  1  0  0  0
 11 37  1  0  0  0
 12 13  1  0  0  0
 12 27  1  0  0  0
 12 33  1  0  0  0
 13 14  1  0  0  0
 13 16  1  0  0  0
 13 26  1  0  0  0
 14 15  1  0  0  0
 16 17  1  0  0  0
 16 24  1  0  0  0
 16 25  1  0  0  0
 17 18  1  0  0  0
 17 22  1  0  0  0
 17 23  1  0  0  0
 18 19  2  0  0  0
 19 20  1  0  0  0
 19 21  1  0  0  0
 27 28  1  0  0  0
 27 31  1  0  0  0
 27 32  1  0  0  0
 28 29  1  0  0  0
 28 30  1  0  0  0
 33 34  1  0  0  0
 33 35  1  0  0  0
 33 36  1  0  0  0
M  END
> <Tumorigenic>
none

> <Score>
34.284164

> <Active/Decoy>
active

> <InChI>
InChI=1S/C15H22O3/c1-9-4-5-13(16)15(3)7-6-11(8-12(9)15)10(2)14(17)18/h11-13,16H,1-2,4-8H2,3H3,(H,17,18)/t11-,12+,13-,15-/m1/s1

> <Matching Features>
H:14924486185440016873||HBA:14924321692640012300|HBA:14924486112070016868

> <Mol. Index>
1278

> <Pharmacophore Match>
Model -1

> <# Confs.>
14

> <Source Database>
Pharm-Screening-input-NANPDB_After_DataWarror.ldb

> <Pharmacophore-Fit Score>
34.28

> <formula>
C15H22O3

> <Mutagenic>
none

> <Reproductive Effective>
none

> <Irritant>
none

$$$$
apigenin 7-O-beta-D-galactoside
XX    ILIB03122402123D

 51 54  0  0  1  0              1 V2000
    3.7688    1.7374   -2.7709 O   0  0  0  0  0
    2.7287    1.4119   -2.2150 C   0  0  0  0  0
    1.4026    1.5541   -2.8460 C   0  0  0  0  0
    0.2818    1.1545   -2.1180 C   0  0  0  0  0
    0.3559    0.6497   -0.8440 O   0  0  0  0  0
    1.5981    0.5212   -0.2444 C   0  0  0  0  0
    2.7501    0.8640   -0.8427 C   0  0  0  0  0
    3.7232    0.7686   -0.3717 H   0  0  0  0  0
    1.5489   -0.0215    1.1276 C   0  0  0  0  0
    0.5347   -0.9169    1.5100 C   0  0  0  0  0
    0.4779   -1.4372    2.8060 C   0  0  0  0  0
    1.4435   -1.0682    3.7361 C   0  0  0  0  0
    1.4151   -1.5595    5.0110 O   0  0  0  0  0
    0.6473   -2.1502    5.0986 H   0  0  0  0  0
    2.4602   -0.1882    3.3871 C   0  0  0  0  0
    2.5122    0.3305    2.0913 C   0  0  0  0  0
    3.3245    1.0134    1.8514 H   0  0  0  0  0
    3.2165    0.0991    4.1136 H   0  0  0  0  0
   -0.3194   -2.1249    3.0709 H   0  0  0  0  0
   -0.2350   -1.2237    0.8058 H   0  0  0  0  0
   -1.0022    1.2678   -2.6639 C   0  0  0  0  0
   -1.1809    1.7568   -3.9586 C   0  0  0  0  0
   -2.3644    1.9361   -4.6003 O   0  0  0  0  0
   -3.5019    2.1761   -3.7687 C   0  0  2  0  0
   -4.1330    0.9540   -3.3708 O   0  0  0  0  0
   -5.2929    1.1551   -2.5535 C   0  0  1  0  0
   -6.3648    1.9161   -3.3473 C   0  0  2  0  0
   -6.7669    1.1153   -4.4597 O   0  0  0  0  0
   -7.5143    1.5637   -4.8876 H   0  0  0  0  0
   -5.7908    3.2433   -3.8445 C   0  0  2  0  0
   -6.7338    3.9075   -4.6795 O   0  0  0  0  0
   -6.8150    3.4002   -5.5040 H   0  0  0  0  0
   -4.4729    3.0327   -4.5926 C   0  0  1  0  0
   -3.8765    4.3013   -4.8604 O   0  0  0  0  0
   -3.6891    4.7303   -4.0076 H   0  0  0  0  0
   -4.6600    2.5671   -5.5672 H   0  0  0  0  0
   -5.6201    3.9065   -2.9870 H   0  0  0  0  0
   -7.2574    2.0947   -2.7370 H   0  0  0  0  0
   -5.7567   -0.2139   -2.0869 C   0  0  0  0  0
   -4.7452   -0.8659   -1.3351 O   0  0  0  0  0
   -3.9931   -1.0296   -1.9294 H   0  0  0  0  0
   -6.6436   -0.1152   -1.4525 H   0  0  0  0  0
   -6.0443   -0.8516   -2.9302 H   0  0  0  0  0
   -5.0109    1.7459   -1.6716 H   0  0  0  0  0
   -3.1796    2.7356   -2.8771 H   0  0  0  0  0
   -0.0474    2.1528   -4.6952 C   0  0  0  0  0
    1.2333    2.0425   -4.1450 C   0  0  0  0  0
    2.3131    2.4409   -4.8833 O   0  0  0  0  0
    2.0026    2.7664   -5.7457 H   0  0  0  0  0
   -0.1760    2.5523   -5.6988 H   0  0  0  0  0
   -1.8474    0.9256   -2.0724 H   0  0  0  0  0
  1  2  2  0  0  0
  2  3  1  0  0  0
  2  7  1  0  0  0
  3  4  2  0  0  0
  3 47  1  0  0  0
  4  5  1  0  0  0
  4 21  1  0  0  0
  5  6  1  0  0  0
  6  7  2  0  0  0
  6  9  1  0  0  0
  7  8  1  0  0  0
  9 10  2  0  0  0
  9 16  1  0  0  0
 10 11  1  0  0  0
 10 20  1  0  0  0
 11 12  2  0  0  0
 11 19  1  0  0  0
 12 13  1  0  0  0
 12 15  1  0  0  0
 13 14  1  0  0  0
 15 16  2  0  0  0
 15 18  1  0  0  0
 16 17  1  0  0  0
 21 22  2  0  0  0
 21 51  1  0  0  0
 22 23  1  0  0  0
 22 46  1  0  0  0
 23 24  1  0  0  0
 24 25  1  0  0  0
 24 33  1  0  0  0
 24 45  1  0  0  0
 25 26  1  0  0  0
 26 27  1  0  0  0
 26 39  1  0  0  0
 26 44  1  0  0  0
 27 28  1  0  0  0
 27 30  1  0  0  0
 27 38  1  0  0  0
 28 29  1  0  0  0
 30 31  1  0  0  0
 30 33  1  0  0  0
 30 37  1  0  0  0
 31 32  1  0  0  0
 33 34  1  0  0  0
 33 36  1  0  0  0
 34 35  1  0  0  0
 39 40  1  0  0  0
 39 42  1  0  0  0
 39 43  1  0  0  0
 40 41  1  0  0  0
 46 47  2  0  0  0
 46 50  1  0  0  0
 47 48  1  0  0  0
 48 49  1  0  0  0
M  END
> <Tumorigenic>
none

> <Score>
34.275787

> <Active/Decoy>
active

> <InChI>
InChI=1S/C21H20O10/c22-8-16-18(26)19(27)20(28)21(31-16)29-11-5-12(24)17-13(25)7-14(30-15(17)6-11)9-1-3-10(23)4-2-9/h1-7,16,18-24,26-28H,8H2/t16-,18+,19+,20-,21-/m1/s1

> <Matching Features>
H:14924486185440016873||HBA:14924321692640012300|HBA:14924486112070016868

> <Mol. Index>
1252

> <Pharmacophore Match>
Model -1

> <# Confs.>
25

> <Source Database>
Pharm-Screening-input-NANPDB_After_DataWarror.ldb

> <Pharmacophore-Fit Score>
34.28

> <formula>
C21H20O10

> <Mutagenic>
none

> <Reproductive Effective>
none

> <Irritant>
none

$$$$
viscic acid
XX    ILIB03122402123D

 40 41  0  0  1  0              1 V2000
   -4.3783    0.7665   -2.9634 O   0  0  0  0  0
   -3.1523    0.8494   -3.0255 C   0  0  0  0  0
   -2.4295    0.5852   -4.1248 O   0  0  0  0  0
   -2.9913    0.3212   -4.8843 H   0  0  0  0  0
   -2.2943    1.2363   -1.9021 C   0  0  0  0  0
   -2.8193    2.0912   -1.0199 C   0  0  0  0  0
   -2.2579    2.4243   -0.1530 H   0  0  0  0  0
   -3.8334    2.4617   -1.1247 H   0  0  0  0  0
   -0.8986    0.6731   -1.8092 C   0  0  1  0  0
    0.0470    1.6779   -1.1219 C   0  0  0  0  0
    1.4895    1.1375   -1.0406 C   0  0  1  0  0
    2.5387    2.0922   -0.4817 C   0  0  0  0  0
    2.2825    3.2940    0.0593 C   0  0  0  0  0
    3.0825    3.9160    0.4454 H   0  0  0  0  0
    1.2787    3.6933    0.1383 H   0  0  0  0  0
    3.9560    1.5674   -0.5539 C   0  0  2  0  0
    4.3393    1.4868   -1.9256 O   0  0  0  0  0
    5.2532    1.1535   -1.9568 H   0  0  0  0  0
    4.0701    0.1847    0.0955 C   0  0  0  0  0
    3.0012   -0.7947   -0.4069 C   0  0  0  0  0
    1.5561   -0.2344   -0.3020 C   0  0  2  0  0
    0.5904   -1.2261   -0.9964 C   0  0  0  0  0
   -0.8421   -0.6996   -1.1152 C   0  0  0  0  0
   -1.4346   -1.4264   -1.6854 H   0  0  0  0  0
   -1.2970   -0.6487   -0.1190 H   0  0  0  0  0
    0.9577   -1.4493   -2.0070 H   0  0  0  0  0
    0.5775   -2.1824   -0.4581 H   0  0  0  0  0
    1.1713   -0.1141    1.1937 C   0  0  0  0  0
    1.2496   -1.0879    1.6913 H   0  0  0  0  0
    0.1471    0.2388    1.3360 H   0  0  0  0  0
    1.8190    0.5797    1.7367 H   0  0  0  0  0
    3.2232   -1.0413   -1.4533 H   0  0  0  0  0
    3.0849   -1.7343    0.1532 H   0  0  0  0  0
    4.0002    0.2810    1.1856 H   0  0  0  0  0
    5.0582   -0.2454   -0.1178 H   0  0  0  0  0
    4.6598    2.2520   -0.0649 H   0  0  0  0  0
    1.7848    0.9602   -2.0867 H   0  0  0  0  0
    0.0496    2.6160   -1.6928 H   0  0  0  0  0
   -0.3328    1.9247   -0.1226 H   0  0  0  0  0
   -0.5393    0.5246   -2.8372 H   0  0  0  0  0
  1  2  2  0  0  0
  2  3  1  0  0  0
  2  5  1  0  0  0
  3  4  1  0  0  0
  5  6  2  0  0  0
  5  9  1  0  0  0
  6  7  1  0  0  0
  6  8  1  0  0  0
  9 10  1  0  0  0
  9 23  1  0  0  0
  9 40  1  0  0  0
 10 11  1  0  0  0
 10 38  1  0  0  0
 10 39  1  0  0  0
 11 12  1  0  0  0
 11 21  1  0  0  0
 11 37  1  0  0  0
 12 13  2  0  0  0
 12 16  1  0  0  0
 13 14  1  0  0  0
 13 15  1  0  0  0
 16 17  1  0  0  0
 16 19  1  0  0  0
 16 36  1  0  0  0
 17 18  1  0  0  0
 19 20  1  0  0  0
 19 34  1  0  0  0
 19 35  1  0  0  0
 20 21  1  0  0  0
 20 32  1  0  0  0
 20 33  1  0  0  0
 21 22  1  0  0  0
 21 28  1  0  0  0
 22 23  1  0  0  0
 22 26  1  0  0  0
 22 27  1  0  0  0
 23 24  1  0  0  0
 23 25  1  0  0  0
 28 29  1  0  0  0
 28 30  1  0  0  0
 28 31  1  0  0  0
M  END
> <Tumorigenic>
none

> <Score>
34.282547

> <Active/Decoy>
active

> <InChI>
InChI=1S/C15H22O3/c1-9(14(17)18)11-4-6-15(3)7-5-13(16)10(2)12(15)8-11/h11-13,16H,1-2,4-8H2,3H3,(H,17,18)/t11-,12+,13-,15+/m1/s1

> <Matching Features>
H:14924486185440016873||HBA:14924321692640012300|HBA:14924486112070016868

> <Mol. Index>
1137

> <Pharmacophore Match>
Model -1

> <# Confs.>
23

> <Source Database>
Pharm-Screening-input-NANPDB_After_DataWarror.ldb

> <Pharmacophore-Fit Score>
34.28

> <formula>
C15H22O3

> <Mutagenic>
none

> <Reproductive Effective>
none

> <Irritant>
none

$$$$
euphoscopin M
XX    ILIB03122402123D

 83 85  0  0  1  0              1 V2000
   -5.2710    0.5762   -1.0341 O   0  0  0  0  0
   -4.3261    0.8668   -1.7732 C   0  0  0  0  0
   -3.7438    2.3058   -1.7990 C   0  0  0  0  0
   -2.2833    2.2889   -2.2144 C   0  0  0  0  0
   -1.1988    2.5048   -1.4547 C   0  0  0  0  0
    0.2007    2.4300   -2.0065 C   0  0  2  0  0
    1.0727    1.6721   -1.0037 C   0  0  0  0  0
    1.3203    2.1658    0.0993 O   0  0  0  0  0
    1.5956    0.2660   -1.3969 C   0  0  2  0  0
    2.1774    0.2909   -2.7087 O   0  0  0  0  0
    3.2277    1.1213   -2.8872 C   0  0  0  0  0
    3.7290    1.8505   -2.0410 O   0  0  0  0  0
    3.7172    1.0147   -4.2997 C   0  0  0  0  0
    4.1145    0.0126   -4.4771 H   0  0  0  0  0
    4.5154    1.7452   -4.4641 H   0  0  0  0  0
    2.9026    1.2359   -4.9941 H   0  0  0  0  0
    0.4231   -0.7829   -1.3261 C   0  0  2  0  0
    1.0071   -1.9857   -0.5551 C   0  0  1  0  0
    1.7675   -2.8197   -1.4295 O   0  0  0  0  0
    1.8140   -4.1362   -1.1173 C   0  0  0  0  0
    1.2683   -4.6871   -0.1741 O   0  0  0  0  0
    2.6333   -4.8569   -2.1106 C   0  0  0  0  0
    2.8050   -6.2351   -1.9830 C   0  0  0  0  0
    3.5674   -6.9133   -2.9310 C   0  0  0  0  0
    4.1478   -6.2169   -3.9931 C   0  0  0  0  0
    3.9661   -4.8377   -4.1112 C   0  0  0  0  0
    3.2027   -4.1486   -3.1681 C   0  0  0  0  0
    3.0632   -3.0771   -3.2671 H   0  0  0  0  0
    4.4184   -4.3000   -4.9388 H   0  0  0  0  0
    4.7416   -6.7489   -4.7296 H   0  0  0  0  0
    3.7111   -7.9877   -2.8464 H   0  0  0  0  0
    2.3558   -6.7825   -1.1595 H   0  0  0  0  0
    1.9635   -1.3352    0.4660 C   0  0  1  0  0
    2.6505   -0.2550   -0.3766 C   0  0  0  0  0
    3.4906   -0.7184   -0.9110 H   0  0  0  0  0
    3.0865    0.5302    0.2498 H   0  0  0  0  0
    1.2447   -0.7698    1.6880 C   0  0  0  0  0
    1.9570   -0.2737    2.3548 H   0  0  0  0  0
    0.7651   -1.5769    2.2520 H   0  0  0  0  0
    0.4701   -0.0432    1.4287 H   0  0  0  0  0
    2.7191   -2.0489    0.8148 H   0  0  0  0  0
    0.2137   -2.5636   -0.0620 H   0  0  0  0  0
   -0.1857   -1.2236   -2.6347 C   0  0  0  0  0
   -1.4904   -1.3639   -2.9546 C   0  0  0  0  0
   -2.6454   -0.9977   -2.0356 C   0  0  2  0  0
   -3.1788   -2.2198   -1.5035 O   0  0  0  0  0
   -3.0706   -2.3932   -0.1678 C   0  0  0  0  0
   -2.5636   -1.6123    0.6269 O   0  0  0  0  0
   -3.6833   -3.7043    0.2184 C   0  0  0  0  0
   -4.7575   -3.6801    0.0217 H   0  0  0  0  0
   -3.5248   -3.8801    1.2861 H   0  0  0  0  0
   -3.2078   -4.5166   -0.3366 H   0  0  0  0  0
   -3.7597   -0.1818   -2.7424 C   0  0  1  0  0
   -4.8191   -1.0558   -3.1585 O   0  0  0  0  0
   -5.5022   -0.6903   -4.2637 C   0  0  0  0  0
   -5.3050    0.3090   -4.9418 O   0  0  0  0  0
   -6.5576   -1.7135   -4.5627 C   0  0  0  0  0
   -6.0841   -2.6639   -4.8214 H   0  0  0  0  0
   -7.1611   -1.3768   -5.4103 H   0  0  0  0  0
   -7.2156   -1.8307   -3.6997 H   0  0  0  0  0
   -3.3748    0.3454   -3.6225 H   0  0  0  0  0
   -2.2636   -0.3985   -1.2044 H   0  0  0  0  0
   -1.8558   -1.9762   -4.2859 C   0  0  0  0  0
   -2.5223   -2.8325   -4.1415 H   0  0  0  0  0
   -2.3554   -1.2471   -4.9303 H   0  0  0  0  0
   -0.9783   -2.3406   -4.8308 H   0  0  0  0  0
    0.5403   -1.5412   -3.3830 H   0  0  0  0  0
   -0.3424   -0.3500   -0.6794 H   0  0  0  0  0
    0.7656    3.8305   -2.2277 C   0  0  0  0  0
    0.7571    4.4254   -1.3068 H   0  0  0  0  0
    0.1829    4.3728   -2.9822 H   0  0  0  0  0
    1.8026    3.7821   -2.5753 H   0  0  0  0  0
    0.2117    1.8971   -2.9628 H   0  0  0  0  0
   -1.3104    2.7365   -0.4000 H   0  0  0  0  0
   -2.1007    2.0821   -3.2694 H   0  0  0  0  0
   -4.5413    3.1043   -2.8429 C   0  0  0  0  0
   -4.4450    2.6699   -3.8452 H   0  0  0  0  0
   -4.2012    4.1454   -2.8959 H   0  0  0  0  0
   -5.6105    3.1124   -2.6035 H   0  0  0  0  0
   -3.9671    2.9510   -0.4178 C   0  0  0  0  0
   -3.5259    2.3455    0.3839 H   0  0  0  0  0
   -5.0354    3.0487   -0.1898 H   0  0  0  0  0
   -3.5332    3.9559   -0.3676 H   0  0  0  0  0
  1  2  2  0  0  0
  2  3  1  0  0  0
  2 53  1  0  0  0
  3  4  1  0  0  0
  3 76  1  0  0  0
  3 80  1  0  0  0
  4  5  2  0  0  0
  4 75  1  0  0  0
  5  6  1  0  0  0
  5 74  1  0  0  0
  6  7  1  0  0  0
  6 69  1  0  0  0
  6 73  1  0  0  0
  7  8  2  0  0  0
  7  9  1  0  0  0
  9 10  1  0  0  0
  9 17  1  0  0  0
  9 34  1  0  0  0
 10 11  1  0  0  0
 11 12  2  0  0  0
 11 13  1  0  0  0
 13 14  1  0  0  0
 13 15  1  0  0  0
 13 16  1  0  0  0
 17 18  1  0  0  0
 17 43  1  0  0  0
 17 68  1  0  0  0
 18 19  1  0  0  0
 18 33  1  0  0  0
 18 42  1  0  0  0
 19 20  1  0  0  0
 20 21  2  0  0  0
 20 22  1  0  0  0
 22 23  2  0  0  0
 22 27  1  0  0  0
 23 24  1  0  0  0
 23 32  1  0  0  0
 24 25  2  0  0  0
 24 31  1  0  0  0
 25 26  1  0  0  0
 25 30  1  0  0  0
 26 27  2  0  0  0
 26 29  1  0  0  0
 27 28  1  0  0  0
 33 34  1  0  0  0
 33 37  1  0  0  0
 33 41  1  0  0  0
 34 35  1  0  0  0
 34 36  1  0  0  0
 37 38  1  0  0  0
 37 39  1  0  0  0
 37 40  1  0  0  0
 43 44  2  0  0  0
 43 67  1  0  0  0
 44 45  1  0  0  0
 44 63  1  0  0  0
 45 46  1  0  0  0
 45 53  1  0  0  0
 45 62  1  0  0  0
 46 47  1  0  0  0
 47 48  2  0  0  0
 47 49  1  0  0  0
 49 50  1  0  0  0
 49 51  1  0  0  0
 49 52  1  0  0  0
 53 54  1  0  0  0
 53 61  1  0  0  0
 54 55  1  0  0  0
 55 56  2  0  0  0
 55 57  1  0  0  0
 57 58  1  0  0  0
 57 59  1  0  0  0
 57 60  1  0  0  0
 63 64  1  0  0  0
 63 65  1  0  0  0
 63 66  1  0  0  0
 69 70  1  0  0  0
 69 71  1  0  0  0
 69 72  1  0  0  0
 76 77  1  0  0  0
 76 78  1  0  0  0
 76 79  1  0  0  0
 80 81  1  0  0  0
 80 82  1  0  0  0
 80 83  1  0  0  0
M  END
> <Tumorigenic>
none

> <Score>
34.277054

> <Active/Decoy>
active

> <InChI>
InChI=1S/C33H40O10/c1-18-14-15-32(7,8)30(38)28(41-22(5)35)27(40-21(4)34)19(2)16-25-26(42-31(39)24-12-10-9-11-13-24)20(3)17-33(25,29(18)37)43-23(6)36/h9-16,18,20,25-28H,17H2,1-8H3/b15-14+,19-16+/t18-,20-,25+,26+,27+,28+,33-/m1/s1

> <Matching Features>
H:14924486185440016873||HBA:14924321692640012300|HBA:14924486112070016868

> <Mol. Index>
504

> <Pharmacophore Match>
Model -1

> <# Confs.>
25

> <Source Database>
Pharm-Screening-input-NANPDB_After_DataWarror.ldb

> <Pharmacophore-Fit Score>
34.28

> <formula>
C33H40O10

> <Mutagenic>
none

> <Reproductive Effective>
none

> <Irritant>
none

$$$$
10-oxo-jaesckeanadiol-6-anisate
XX    ILIB03122402123D

 61 63  0  0  1  0              1 V2000
    0.9845    4.0241   -3.1060 O   0  0  0  0  0
    1.8809    3.4650   -2.4740 C   0  0  0  0  0
    3.0757    3.0008   -3.2124 C   0  0  0  0  0
    3.0441    1.8260   -3.8561 C   0  0  0  0  0
    1.8319    0.9343   -3.8999 C   0  0  0  0  0
    1.6671    0.0656   -2.6504 C   0  0  0  0  0
    0.9591    0.6962   -1.4430 C   0  0  2  0  0
   -0.2828    1.2755   -1.8581 O   0  0  0  0  0
   -1.3465    1.0643   -1.0571 C   0  0  0  0  0
   -1.3534    0.8947    0.1395 O   0  0  0  0  0
   -2.5855    1.0554   -1.8841 C   0  0  0  0  0
   -2.5693    1.2535   -3.2678 C   0  0  0  0  0
   -3.7649    1.2306   -3.9914 C   0  0  0  0  0
   -4.9852    1.0098   -3.3471 C   0  0  0  0  0
   -6.0814    1.0066   -4.1606 O   0  0  0  0  0
   -7.3273    0.7809   -3.5064 C   0  0  0  0  0
   -7.3528   -0.2058   -3.0334 H   0  0  0  0  0
   -7.5401    1.5720   -2.7795 H   0  0  0  0  0
   -8.1132    0.8070   -4.2679 H   0  0  0  0  0
   -5.0017    0.8109   -1.9639 C   0  0  0  0  0
   -3.8065    0.8337   -1.2375 C   0  0  0  0  0
   -3.8519    0.6769   -0.1620 H   0  0  0  0  0
   -5.9239    0.6374   -1.4199 H   0  0  0  0  0
   -3.7338    1.3860   -5.0662 H   0  0  0  0  0
   -1.6437    1.4252   -3.8102 H   0  0  0  0  0
    1.6951    1.7201   -0.5301 C   0  0  1  0  0
    3.0914    1.3318    0.0278 C   0  0  2  0  0
    4.0106    1.1053   -1.0393 O   0  0  0  0  0
    4.9082    1.0614   -0.6701 H   0  0  0  0  0
    3.0919    0.0858    0.9312 C   0  0  0  0  0
    4.4660   -0.2193    1.5349 C   0  0  0  0  0
    4.8171    0.5946    2.1764 H   0  0  0  0  0
    4.4223   -1.1274    2.1474 H   0  0  0  0  0
    5.2149   -0.3870    0.7546 H   0  0  0  0  0
    2.0542    0.2150    2.0494 C   0  0  0  0  0
    1.0597    0.4073    1.6365 H   0  0  0  0  0
    2.3017    1.0274    2.7405 H   0  0  0  0  0
    1.9990   -0.7104    2.6323 H   0  0  0  0  0
    2.8038   -0.7766    0.3158 H   0  0  0  0  0
    3.5013    2.6271    0.7404 C   0  0  0  0  0
    3.0865    3.7369   -0.2277 C   0  0  0  0  0
    1.8102    3.2278   -0.9550 C   0  0  1  0  0
    0.6016    4.0243   -0.4087 C   0  0  0  0  0
   -0.3437    3.6684   -0.8312 H   0  0  0  0  0
    0.5298    3.9476    0.6824 H   0  0  0  0  0
    0.6886    5.0888   -0.6566 H   0  0  0  0  0
    2.9186    4.6709    0.3192 H   0  0  0  0  0
    3.9112    3.9376   -0.9180 H   0  0  0  0  0
    2.9628    2.7518    1.6864 H   0  0  0  0  0
    4.5755    2.6826    0.9441 H   0  0  0  0  0
    1.0365    1.7560    0.3535 H   0  0  0  0  0
    0.7212   -0.1438   -0.7767 H   0  0  0  0  0
    2.6169   -0.3919   -2.3579 H   0  0  0  0  0
    1.0332   -0.7761   -2.9642 H   0  0  0  0  0
    1.9221    0.2741   -4.7749 H   0  0  0  0  0
    0.9237    1.5134   -4.1019 H   0  0  0  0  0
    4.2604    1.3174   -4.5760 C   0  0  0  0  0
    4.0513    1.2047   -5.6450 H   0  0  0  0  0
    4.5604    0.3441   -4.1749 H   0  0  0  0  0
    5.1157    1.9942   -4.4742 H   0  0  0  0  0
    3.9564    3.6315   -3.1924 H   0  0  0  0  0
  1  2  2  0  0  0
  2  3  1  0  0  0
  2 42  1  0  0  0
  3  4  2  0  0  0
  3 61  1  0  0  0
  4  5  1  0  0  0
  4 57  1  0  0  0
  5  6  1  0  0  0
  5 55  1  0  0  0
  5 56  1  0  0  0
  6  7  1  0  0  0
  6 53  1  0  0  0
  6 54  1  0  0  0
  7  8  1  0  0  0
  7 26  1  0  0  0
  7 52  1  0  0  0
  8  9  1  0  0  0
  9 10  2  0  0  0
  9 11  1  0  0  0
 11 12  2  0  0  0
 11 21  1  0  0  0
 12 13  1  0  0  0
 12 25  1  0  0  0
 13 14  2  0  0  0
 13 24  1  0  0  0
 14 15  1  0  0  0
 14 20  1  0  0  0
 15 16  1  0  0  0
 16 17  1  0  0  0
 16 18  1  0  0  0
 16 19  1  0  0  0
 20 21  2  0  0  0
 20 23  1  0  0  0
 21 22  1  0  0  0
 26 27  1  0  0  0
 26 42  1  0  0  0
 26 51  1  0  0  0
 27 28  1  0  0  0
 27 30  1  0  0  0
 27 40  1  0  0  0
 28 29  1  0  0  0
 30 31  1  0  0  0
 30 35  1  0  0  0
 30 39  1  0  0  0
 31 32  1  0  0  0
 31 33  1  0  0  0
 31 34  1  0  0  0
 35 36  1  0  0  0
 35 37  1  0  0  0
 35 38  1  0  0  0
 40 41  1  0  0  0
 40 49  1  0  0  0
 40 50  1  0  0  0
 41 42  1  0  0  0
 41 47  1  0  0  0
 41 48  1  0  0  0
 42 43  1  0  0  0
 43 44  1  0  0  0
 43 45  1  0  0  0
 43 46  1  0  0  0
 57 58  1  0  0  0
 57 59  1  0  0  0
 57 60  1  0  0  0
M  END
> <Tumorigenic>
none

> <Score>
34.258217

> <Active/Decoy>
active

> <InChI>
InChI=1S/C24H32O5/c1-15(2)24(27)13-12-23(4)20(25)14-16(3)6-11-19(21(23)24)29-22(26)17-7-9-18(28-5)10-8-17/h7-10,14-15,19,21,27H,6,11-13H2,1-5H3/b16-14-/t19-,21+,23-,24+/m0/s1

> <Matching Features>
H:14924486185440016873||HBA:14924321692640012300|HBA:14924486112070016868

> <Mol. Index>
968

> <Pharmacophore Match>
Model -1

> <# Confs.>
25

> <Source Database>
Pharm-Screening-input-NANPDB_After_DataWarror.ldb

> <Pharmacophore-Fit Score>
34.26

> <formula>
C24H32O5

> <Mutagenic>
none

> <Reproductive Effective>
none

> <Irritant>
none

$$$$
3'-O-methylorobol
XX    ILIB03122402123D

 34 36  0  0  1  0              1 V2000
   -0.6490    2.5128   -0.1818 O   0  0  0  0  0
   -0.9656    1.4858   -0.7675 C   0  0  0  0  0
   -2.2581    1.3490   -1.4802 C   0  0  0  0  0
   -2.5374    0.1380   -2.1222 C   0  0  0  0  0
   -1.6771   -0.9317   -2.1124 O   0  0  0  0  0
   -0.4862   -0.7881   -1.4478 C   0  0  0  0  0
   -0.0807    0.3053   -0.7836 C   0  0  0  0  0
    1.2235    0.3032   -0.0768 C   0  0  0  0  0
    2.3919    0.7216   -0.7532 C   0  0  0  0  0
    3.6372    0.7296   -0.1106 C   0  0  0  0  0
    4.7024    1.1282   -0.8675 O   0  0  0  0  0
    5.3310    0.0980   -1.6254 C   0  0  0  0  0
    5.7497   -0.6749   -0.9716 H   0  0  0  0  0
    4.6381   -0.3357   -2.3539 H   0  0  0  0  0
    6.1597    0.5505   -2.1797 H   0  0  0  0  0
    3.7365    0.2834    1.2063 C   0  0  0  0  0
    4.9563    0.2177    1.8205 O   0  0  0  0  0
    4.8359   -0.1255    2.7228 H   0  0  0  0  0
    2.5963   -0.1309    1.8902 C   0  0  0  0  0
    1.3529   -0.1187    1.2499 C   0  0  0  0  0
    0.4890   -0.4577    1.8161 H   0  0  0  0  0
    2.6595   -0.4779    2.9176 H   0  0  0  0  0
    2.3458    1.0486   -1.7909 H   0  0  0  0  0
    0.0833   -1.7057   -1.5214 H   0  0  0  0  0
   -3.7384   -0.0395   -2.8104 C   0  0  0  0  0
   -4.6636    0.9999   -2.8541 C   0  0  0  0  0
   -5.8334    0.7978   -3.5322 O   0  0  0  0  0
   -6.3713    1.6052   -3.4674 H   0  0  0  0  0
   -4.4024    2.2134   -2.2218 C   0  0  0  0  0
   -3.1982    2.3855   -1.5354 C   0  0  0  0  0
   -2.9505    3.5808   -0.9170 O   0  0  0  0  0
   -3.7090    4.1733   -1.0586 H   0  0  0  0  0
   -5.1318    3.0186   -2.2626 H   0  0  0  0  0
   -3.9523   -0.9821   -3.3079 H   0  0  0  0  0
  1  2  2  0  0  0
  2  3  1  0  0  0
  2  7  1  0  0  0
  3  4  2  0  0  0
  3 30  1  0  0  0
  4  5  1  0  0  0
  4 25  1  0  0  0
  5  6  1  0  0  0
  6  7  2  0  0  0
  6 24  1  0  0  0
  7  8  1  0  0  0
  8  9  2  0  0  0
  8 20  1  0  0  0
  9 10  1  0  0  0
  9 23  1  0  0  0
 10 11  1  0  0  0
 10 16  2  0  0  0
 11 12  1  0  0  0
 12 13  1  0  0  0
 12 14  1  0  0  0
 12 15  1  0  0  0
 16 17  1  0  0  0
 16 19  1  0  0  0
 17 18  1  0  0  0
 19 20  2  0  0  0
 19 22  1  0  0  0
 20 21  1  0  0  0
 25 26  2  0  0  0
 25 34  1  0  0  0
 26 27  1  0  0  0
 26 29  1  0  0  0
 27 28  1  0  0  0
 29 30  2  0  0  0
 29 33  1  0  0  0
 30 31  1  0  0  0
 31 32  1  0  0  0
M  END
> <Tumorigenic>
none

> <Score>
34.250496

> <Active/Decoy>
active

> <InChI>
InChI=1S/C16H12O6/c1-21-13-4-8(2-3-11(13)18)10-7-22-14-6-9(17)5-12(19)15(14)16(10)20/h2-7,17-19H,1H3

> <Matching Features>
H:14924486185440016873||HBA:14924321692640012300|HBA:14924486112070016868

> <Mol. Index>
1411

> <Pharmacophore Match>
Model -1

> <# Confs.>
7

> <Source Database>
Pharm-Screening-input-NANPDB_After_DataWarror.ldb

> <Pharmacophore-Fit Score>
34.25

> <formula>
C16H12O6

> <Mutagenic>
none

> <Reproductive Effective>
none

> <Irritant>
none

$$$$
12-epi-montanin B
XX    ILIB03122402123D

 48 51  0  0  1  0              1 V2000
    3.3143    1.6003   -2.5652 O   0  0  0  0  0
    2.5674    1.2022   -1.6828 C   0  0  0  0  0
    2.9264    0.2643   -0.7536 O   0  0  0  0  0
    1.7991   -0.1205    0.0397 C   0  0  1  0  0
    2.1479   -0.4026    1.4478 C   0  0  0  0  0
    3.3661   -0.8468    1.9366 C   0  0  0  0  0
    3.3302   -0.9708    3.2881 O   0  0  0  0  0
    2.0881   -0.5914    3.6809 C   0  0  0  0  0
    1.3297   -0.2268    2.5930 C   0  0  0  0  0
    0.3050    0.1151    2.6193 H   0  0  0  0  0
    1.8992   -0.6348    4.7435 H   0  0  0  0  0
    4.3028   -1.1154    1.4702 H   0  0  0  0  0
    0.7753    0.9879   -0.1318 C   0  0  0  0  0
    1.1342    1.6589   -1.4609 C   0  0  2  0  0
    0.2424    1.2158   -2.6761 C   0  0  2  0  0
   -1.1893    1.7553   -2.5427 C   0  0  0  0  0
   -2.2816    0.9546   -2.6169 C   0  0  0  0  0
   -2.1652   -0.5455   -2.7872 C   0  0  0  0  0
   -0.8011   -1.1130   -2.4308 C   0  0  0  0  0
    0.3055   -0.2817   -3.0505 C   0  0  0  0  0
    0.2075   -0.3602   -4.1435 H   0  0  0  0  0
    1.2792   -0.7226   -2.8206 H   0  0  0  0  0
   -0.6948   -1.1593   -1.3436 H   0  0  0  0  0
   -0.7317   -2.1465   -2.7893 H   0  0  0  0  0
   -2.4005   -0.7963   -3.8286 H   0  0  0  0  0
   -2.9135   -1.0501   -2.1626 H   0  0  0  0  0
   -3.6992    1.4207   -2.5561 C   0  0  0  0  0
   -4.3878    1.0656   -3.7475 O   0  0  0  0  0
   -3.9415    1.5097   -4.4897 H   0  0  0  0  0
   -3.7729    2.5059   -2.4276 H   0  0  0  0  0
   -4.2161    0.9515   -1.7121 H   0  0  0  0  0
   -1.2548    3.2586   -2.3439 C   0  0  2  0  0
   -0.9584    3.9194   -3.5738 O   0  0  0  0  0
   -0.0294    3.7589   -3.8050 H   0  0  0  0  0
   -0.3168    3.7495   -1.2368 C   0  0  0  0  0
    1.1203    3.2219   -1.3786 C   0  0  1  0  0
    2.0028    3.8336   -0.2796 C   0  0  0  0  0
    2.0651    4.9197   -0.4135 H   0  0  0  0  0
    1.6033    3.6605    0.7236 H   0  0  0  0  0
    3.0243    3.4450   -0.3160 H   0  0  0  0  0
    1.5296    3.6068   -2.3242 H   0  0  0  0  0
   -0.2939    4.8468   -1.2510 H   0  0  0  0  0
   -0.7229    3.4484   -0.2632 H   0  0  0  0  0
   -2.2525    3.5966   -2.0639 H   0  0  0  0  0
    0.6749    1.7161   -3.5570 H   0  0  0  0  0
    0.8515    1.6870    0.7063 H   0  0  0  0  0
   -0.2518    0.6145   -0.0849 H   0  0  0  0  0
    1.4219   -1.0606   -0.4095 H   0  0  0  0  0
  1  2  2  0  0  0
  2  3  1  0  0  0
  2 14  1  0  0  0
  3  4  1  0  0  0
  4  5  1  0  0  0
  4 13  1  0  0  0
  4 48  1  0  0  0
  5  6  2  0  0  0
  5  9  1  0  0  0
  6  7  1  0  0  0
  6 12  1  0  0  0
  7  8  1  0  0  0
  8  9  2  0  0  0
  8 11  1  0  0  0
  9 10  1  0  0  0
 13 14  1  0  0  0
 13 46  1  0  0  0
 13 47  1  0  0  0
 14 15  1  0  0  0
 14 36  1  0  0  0
 15 16  1  0  0  0
 15 20  1  0  0  0
 15 45  1  0  0  0
 16 17  2  0  0  0
 16 32  1  0  0  0
 17 18  1  0  0  0
 17 27  1  0  0  0
 18 19  1  0  0  0
 18 25  1  0  0  0
 18 26  1  0  0  0
 19 20  1  0  0  0
 19 23  1  0  0  0
 19 24  1  0  0  0
 20 21  1  0  0  0
 20 22  1  0  0  0
 27 28  1  0  0  0
 27 30  1  0  0  0
 27 31  1  0  0  0
 28 29  1  0  0  0
 32 33  1  0  0  0
 32 35  1  0  0  0
 32 44  1  0  0  0
 33 34  1  0  0  0
 35 36  1  0  0  0
 35 42  1  0  0  0
 35 43  1  0  0  0
 36 37  1  0  0  0
 36 41  1  0  0  0
 37 38  1  0  0  0
 37 39  1  0  0  0
 37 40  1  0  0  0
M  END
> <Tumorigenic>
none

> <Score>
34.21035

> <Active/Decoy>
active

> <InChI>
InChI=1S/C19H24O5/c1-11-7-15(21)17-12(9-20)3-2-4-14(17)19(11)8-16(24-18(19)22)13-5-6-23-10-13/h5-6,10-11,14-16,20-21H,2-4,7-9H2,1H3/t11-,14+,15-,16-,19+/m1/s1

> <Matching Features>
H:14924486185440016873||HBA:14924321692640012300|HBA:14924486112070016868

> <Mol. Index>
1346

> <Pharmacophore Match>
Model -1

> <# Confs.>
16

> <Source Database>
Pharm-Screening-input-NANPDB_After_DataWarror.ldb

> <Pharmacophore-Fit Score>
34.21

> <formula>
C19H24O5

> <Mutagenic>
none

> <Reproductive Effective>
none

> <Irritant>
none

$$$$
sternbergine
XX    ILIB03122402123D

 45 48  0  0  1  0              1 V2000
    4.4383    1.4579   -1.8169 O   0  0  0  0  0
    3.5067    1.3518   -2.6024 C   0  0  0  0  0
    2.2010    1.3123   -2.2853 O   0  0  0  0  0
    1.8611    1.4026   -0.9015 C   0  0  2  0  0
    1.8329   -0.0058   -0.2849 C   0  0  1  0  0
    3.1611   -0.4966   -0.1618 O   0  0  0  0  0
    3.6345    0.0748    0.4672 H   0  0  0  0  0
    1.1536   -0.0642    1.0567 C   0  0  0  0  0
    0.5250    0.9948    1.5825 C   0  0  0  0  0
   -0.3156    1.0248    2.8109 C   0  0  0  0  0
   -1.4852    1.8626    2.3081 C   0  0  0  0  0
   -0.9008    2.8752    1.4043 N   0  0  0  0  0
    0.3748    2.3236    0.8920 C   0  0  2  0  0
    0.5525    2.2067   -0.6484 C   0  0  2  0  0
   -0.7484    1.7225   -1.2799 C   0  0  0  0  0
   -1.9379    2.2915   -0.7749 C   0  0  0  0  0
   -3.1796    1.9591   -1.3247 C   0  0  0  0  0
   -3.2502    1.0448   -2.3700 C   0  0  0  0  0
   -4.4595    0.7454   -2.9353 O   0  0  0  0  0
   -5.1522    1.2507   -2.4755 H   0  0  0  0  0
   -2.0860    0.4464   -2.8608 C   0  0  0  0  0
   -0.8397    0.8101   -2.3358 C   0  0  0  0  0
    0.0462    0.3549   -2.7643 H   0  0  0  0  0
   -2.0692   -0.4366   -3.9023 O   0  0  0  0  0
   -2.2118   -1.8085   -3.5418 C   0  0  0  0  0
   -1.3829   -2.1374   -2.9065 H   0  0  0  0  0
   -3.1763   -1.9917   -3.0560 H   0  0  0  0  0
   -2.1828   -2.3995   -4.4619 H   0  0  0  0  0
   -4.0866    2.4225   -0.9427 H   0  0  0  0  0
   -1.8295    3.2934    0.3504 C   0  0  0  0  0
   -2.8129    3.5036    0.7868 H   0  0  0  0  0
   -1.4835    4.2451   -0.0740 H   0  0  0  0  0
    0.7026    3.2161   -1.0593 H   0  0  0  0  0
    1.1700    2.9789    1.2742 H   0  0  0  0  0
   -2.1946    1.2074    1.7852 H   0  0  0  0  0
   -2.0184    2.3407    3.1357 H   0  0  0  0  0
    0.2157    1.5304    3.6235 H   0  0  0  0  0
   -0.6376    0.0346    3.1445 H   0  0  0  0  0
    1.1448   -1.0153    1.5816 H   0  0  0  0  0
    1.3143   -0.6959   -0.9662 H   0  0  0  0  0
    2.6900    1.9578   -0.4064 H   0  0  0  0  0
    3.6685    1.2422   -4.0879 C   0  0  0  0  0
    3.3297    0.2567   -4.4169 H   0  0  0  0  0
    4.7242    1.3568   -4.3489 H   0  0  0  0  0
    3.1045    2.0322   -4.5895 H   0  0  0  0  0
  1  2  2  0  0  0
  2  3  1  0  0  0
  2 42  1  0  0  0
  3  4  1  0  0  0
  4  5  1  0  0  0
  4 14  1  0  0  0
  4 41  1  0  0  0
  5  6  1  0  0  0
  5  8  1  0  0  0
  5 40  1  0  0  0
  6  7  1  0  0  0
  8  9  2  0  0  0
  8 39  1  0  0  0
  9 10  1  0  0  0
  9 13  1  0  0  0
 10 11  1  0  0  0
 10 37  1  0  0  0
 10 38  1  0  0  0
 11 12  1  0  0  0
 11 35  1  0  0  0
 11 36  1  0  0  0
 12 13  1  0  0  0
 12 30  1  0  0  0
 13 14  1  0  0  0
 13 34  1  0  0  0
 14 15  1  0  0  0
 14 33  1  0  0  0
 15 16  2  0  0  0
 15 22  1  0  0  0
 16 17  1  0  0  0
 16 30  1  0  0  0
 17 18  2  0  0  0
 17 29  1  0  0  0
 18 19  1  0  0  0
 18 21  1  0  0  0
 19 20  1  0  0  0
 21 22  2  0  0  0
 21 24  1  0  0  0
 22 23  1  0  0  0
 24 25  1  0  0  0
 25 26  1  0  0  0
 25 27  1  0  0  0
 25 28  1  0  0  0
 30 31  1  0  0  0
 30 32  1  0  0  0
 42 43  1  0  0  0
 42 44  1  0  0  0
 42 45  1  0  0  0
M  END
> <Tumorigenic>
none

> <Score>
34.21279

> <Active/Decoy>
active

> <InChI>
InChI=1S/C18H21NO5/c1-9(20)24-18-14(22)5-10-3-4-19-8-11-6-13(21)15(23-2)7-12(11)16(18)17(10)19/h5-7,14,16-18,21-22H,3-4,8H2,1-2H3/t14-,16-,17-,18+/m0/s1

> <Matching Features>
H:14924486185440016873||HBA:14924321692640012300|HBA:14924486112070016868

> <Mol. Index>
994

> <Pharmacophore Match>
Model -1

> <# Confs.>
12

> <Source Database>
Pharm-Screening-input-NANPDB_After_DataWarror.ldb

> <Pharmacophore-Fit Score>
34.21

> <formula>
C18H21NO5

> <Mutagenic>
none

> <Reproductive Effective>
none

> <Irritant>
none

$$$$
5,3'-dihydroxy-4',5'-dimethoxy-6,7-methylenedioxyisoflavone
XX    ILIB03122402123D

 40 43  0  0  1  0              1 V2000
    1.4303    0.9489   -1.8497 O   0  0  0  0  0
    1.3213    0.5310   -0.7043 C   0  0  0  0  0
    2.4988    0.4394    0.1901 C   0  0  0  0  0
    3.7810    0.8542   -0.2043 C   0  0  0  0  0
    4.0761    1.3824   -1.4250 O   0  0  0  0  0
    3.2670    1.4243   -1.9606 H   0  0  0  0  0
    4.8194    0.7211    0.6989 C   0  0  0  0  0
    6.1187    1.0675    0.4877 O   0  0  0  0  0
    6.7089    0.7116    1.7515 C   0  0  0  0  0
    5.7653    0.1551    2.6870 O   0  0  0  0  0
    4.6202    0.1994    1.9549 C   0  0  0  0  0
    3.3771   -0.2180    2.3769 C   0  0  0  0  0
    2.3096   -0.0939    1.4789 C   0  0  0  0  0
    1.0895   -0.5232    1.9351 O   0  0  0  0  0
    0.0119   -0.4043    1.0958 C   0  0  0  0  0
    0.0081    0.0899   -0.1507 C   0  0  0  0  0
   -1.2317    0.1416   -0.9260 C   0  0  0  0  0
   -1.3848   -0.5172   -2.1552 C   0  0  0  0  0
   -2.5757   -0.4315   -2.8880 C   0  0  0  0  0
   -2.6336   -1.1485   -4.0494 O   0  0  0  0  0
   -2.2668   -0.4198   -5.2265 C   0  0  0  0  0
   -2.9478    0.4202   -5.4002 H   0  0  0  0  0
   -1.2270   -0.0799   -5.1747 H   0  0  0  0  0
   -2.3530   -1.1019   -6.0780 H   0  0  0  0  0
   -3.6612    0.2902   -2.3855 C   0  0  0  0  0
   -4.8185    0.3244   -3.1100 O   0  0  0  0  0
   -6.0131    0.4604   -2.3352 C   0  0  0  0  0
   -6.1484   -0.3969   -1.6665 H   0  0  0  0  0
   -6.0185    1.4014   -1.7745 H   0  0  0  0  0
   -6.8586    0.4796   -3.0300 H   0  0  0  0  0
   -3.5180    0.9777   -1.1792 C   0  0  0  0  0
   -2.3185    0.9192   -0.4613 C   0  0  0  0  0
   -2.2407    1.4703    0.4736 H   0  0  0  0  0
   -4.5467    1.7587   -0.7236 O   0  0  0  0  0
   -4.2856    2.1606    0.1220 H   0  0  0  0  0
   -0.5797   -1.1345   -2.5484 H   0  0  0  0  0
   -0.8714   -0.7574    1.6135 H   0  0  0  0  0
    3.2303   -0.6286    3.3694 H   0  0  0  0  0
    7.1565    1.6099    2.1962 H   0  0  0  0  0
    7.5038   -0.0236    1.5746 H   0  0  0  0  0
  1  2  2  0  0  0
  2  3  1  0  0  0
  2 16  1  0  0  0
  3  4  2  0  0  0
  3 13  1  0  0  0
  4  5  1  0  0  0
  4  7  1  0  0  0
  5  6  1  0  0  0
  7  8  1  0  0  0
  7 11  2  0  0  0
  8  9  1  0  0  0
  9 10  1  0  0  0
  9 39  1  0  0  0
  9 40  1  0  0  0
 10 11  1  0  0  0
 11 12  1  0  0  0
 12 13  2  0  0  0
 12 38  1  0  0  0
 13 14  1  0  0  0
 14 15  1  0  0  0
 15 16  2  0  0  0
 15 37  1  0  0  0
 16 17  1  0  0  0
 17 18  2  0  0  0
 17 32  1  0  0  0
 18 19  1  0  0  0
 18 36  1  0  0  0
 19 20  1  0  0  0
 19 25  2  0  0  0
 20 21  1  0  0  0
 21 22  1  0  0  0
 21 23  1  0  0  0
 21 24  1  0  0  0
 25 26  1  0  0  0
 25 31  1  0  0  0
 26 27  1  0  0  0
 27 28  1  0  0  0
 27 29  1  0  0  0
 27 30  1  0  0  0
 31 32  2  0  0  0
 31 34  1  0  0  0
 32 33  1  0  0  0
 34 35  1  0  0  0
M  END
> <Tumorigenic>
none

> <Score>
34.207916

> <Active/Decoy>
active

> <InChI>
InChI=1S/C18H14O8/c1-22-12-4-8(3-10(19)17(12)23-2)9-6-24-11-5-13-18(26-7-25-13)16(21)14(11)15(9)20/h3-6,19,21H,7H2,1-2H3

> <Matching Features>
H:14924486185440016873||HBA:14924321692640012300|HBA:14924486112070016868

> <Mol. Index>
576

> <Pharmacophore Match>
Model -1

> <# Confs.>
18

> <Source Database>
Pharm-Screening-input-NANPDB_After_DataWarror.ldb

> <Pharmacophore-Fit Score>
34.21

> <formula>
C18H14O8

> <Mutagenic>
none

> <Reproductive Effective>
none

> <Irritant>
none

$$$$
ottelione A
XX    ILIB03122402123D

 45 47  0  0  1  0              1 V2000
    3.2853    1.5645   -2.4812 O   0  0  0  0  0
    2.9800    1.0657   -1.4003 C   0  0  0  0  0
    3.9342    1.1919   -0.2710 C   0  0  0  0  0
    3.6274    0.7316    0.9451 C   0  0  0  0  0
    2.3505    0.1469    1.2919 C   0  0  0  0  0
    2.1668   -0.4746    2.4679 C   0  0  0  0  0
    2.9638   -0.5631    3.1980 H   0  0  0  0  0
    1.2083   -0.9118    2.7267 H   0  0  0  0  0
    1.2410    0.2700    0.2769 C   0  0  2  0  0
    1.7154    0.2301   -1.1883 C   0  0  1  0  0
    0.4512    0.7162   -1.9223 C   0  0  2  0  0
    0.5871    1.0495   -3.3962 C   0  0  0  0  0
   -0.6929    1.5134   -4.0252 C   0  0  0  0  0
   -1.9288    1.0584   -3.5522 C   0  0  0  0  0
   -3.1121    1.4969   -4.1510 C   0  0  0  0  0
   -4.3193    1.0494   -3.6823 O   0  0  0  0  0
   -4.1592    0.4359   -2.9449 H   0  0  0  0  0
   -3.0919    2.3899   -5.2270 C   0  0  0  0  0
   -4.3072    2.7565   -5.7326 O   0  0  0  0  0
   -4.2616    3.6666   -6.8277 C   0  0  0  0  0
   -3.8012    4.6157   -6.5338 H   0  0  0  0  0
   -5.2913    3.8734   -7.1314 H   0  0  0  0  0
   -3.7402    3.2284   -7.6874 H   0  0  0  0  0
   -1.8566    2.8366   -5.7058 C   0  0  0  0  0
   -0.6685    2.3992   -5.1103 C   0  0  0  0  0
    0.2799    2.7585   -5.5026 H   0  0  0  0  0
   -1.7790    3.5248   -6.5429 H   0  0  0  0  0
   -1.9652    0.3642   -2.7165 H   0  0  0  0  0
    1.3496    1.8144   -3.5366 H   0  0  0  0  0
    0.9534    0.1544   -3.9379 H   0  0  0  0  0
   -0.0106    1.9165   -1.0606 C   0  0  0  0  0
    0.4486    1.6026    0.3788 C   0  0  1  0  0
   -0.7075    1.5053    1.3301 C   0  0  0  0  0
   -0.9014    2.2377    2.4330 C   0  0  0  0  0
   -1.7804    2.0733    3.0470 H   0  0  0  0  0
   -0.2061    3.0052    2.7524 H   0  0  0  0  0
   -1.4653    0.7584    1.0964 H   0  0  0  0  0
    1.1119    2.4162    0.7040 H   0  0  0  0  0
    0.4761    2.8408   -1.3967 H   0  0  0  0  0
   -1.0918    2.0725   -1.1468 H   0  0  0  0  0
   -0.3130   -0.0616   -1.8040 H   0  0  0  0  0
    1.9579   -0.7956   -1.4919 H   0  0  0  0  0
    0.5465   -0.5737    0.4154 H   0  0  0  0  0
    4.3786    0.8014    1.7282 H   0  0  0  0  0
    4.9007    1.6408   -0.4733 H   0  0  0  0  0
  1  2  2  0  0  0
  2  3  1  0  0  0
  2 10  1  0  0  0
  3  4  2  0  0  0
  3 45  1  0  0  0
  4  5  1  0  0  0
  4 44  1  0  0  0
  5  6  2  0  0  0
  5  9  1  0  0  0
  6  7  1  0  0  0
  6  8  1  0  0  0
  9 10  1  0  0  0
  9 32  1  0  0  0
  9 43  1  0  0  0
 10 11  1  0  0  0
 10 42  1  0  0  0
 11 12  1  0  0  0
 11 31  1  0  0  0
 11 41  1  0  0  0
 12 13  1  0  0  0
 12 29  1  0  0  0
 12 30  1  0  0  0
 13 14  2  0  0  0
 13 25  1  0  0  0
 14 15  1  0  0  0
 14 28  1  0  0  0
 15 16  1  0  0  0
 15 18  2  0  0  0
 16 17  1  0  0  0
 18 19  1  0  0  0
 18 24  1  0  0  0
 19 20  1  0  0  0
 20 21  1  0  0  0
 20 22  1  0  0  0
 20 23  1  0  0  0
 24 25  2  0  0  0
 24 27  1  0  0  0
 25 26  1  0  0  0
 31 32  1  0  0  0
 31 39  1  0  0  0
 31 40  1  0  0  0
 32 33  1  0  0  0
 32 38  1  0  0  0
 33 34  2  0  0  0
 33 37  1  0  0  0
 34 35  1  0  0  0
 34 36  1  0  0  0
M  END
> <Tumorigenic>
none

> <Score>
34.211784

> <Active/Decoy>
active

> <InChI>
InChI=1S/C20H22O3/c1-4-14-11-15(20-16(21)7-5-12(2)19(14)20)9-13-6-8-18(23-3)17(22)10-13/h4-8,10,14-15,19-20,22H,1-2,9,11H2,3H3/t14-,15-,19+,20+/m1/s1

> <Matching Features>
H:14924486185440016873||HBA:14924321692640012300|HBA:14924486112070016868

> <Mol. Index>
557

> <Pharmacophore Match>
Model -1

> <# Confs.>
25

> <Source Database>
Pharm-Screening-input-NANPDB_After_DataWarror.ldb

> <Pharmacophore-Fit Score>
34.21

> <formula>
C20H22O3

> <Mutagenic>
none

> <Reproductive Effective>
none

> <Irritant>
none

$$$$
andrographolide
XX    ILIB03122402123D

 55 57  0  0  1  0              1 V2000
    3.7776    1.1993   -2.3624 O   0  0  0  0  0
    3.4266    2.3638   -2.3038 C   0  0  0  0  0
    3.9037    3.3773   -3.0831 O   0  0  0  0  0
    3.1462    4.5718   -2.8614 C   0  0  0  0  0
    2.5223    4.4320   -1.4932 C   0  0  1  0  0
    1.2630    5.0698   -1.4483 O   0  0  0  0  0
    1.4072    6.0145   -1.6224 H   0  0  0  0  0
    2.4397    2.9541   -1.3705 C   0  0  0  0  0
    1.6573    2.1701   -0.6157 C   0  0  0  0  0
    0.6383    2.6267    0.3776 C   0  0  0  0  0
   -0.5422    1.6801    0.5288 C   0  0  1  0  0
   -1.4089    1.3691   -0.7701 C   0  0  1  0  0
   -2.7377    0.6565   -0.2835 C   0  0  1  0  0
   -3.9631    0.5652   -1.2853 C   0  0  1  0  0
   -4.1328    1.9235   -2.0324 C   0  0  2  0  0
   -5.0387    1.8165   -3.1300 O   0  0  0  0  0
   -5.9176    1.6030   -2.7747 H   0  0  0  0  0
   -2.8355    2.5199   -2.5675 C   0  0  0  0  0
   -1.8007    2.6992   -1.4665 C   0  0  0  0  0
   -2.1989    3.4033   -0.7241 H   0  0  0  0  0
   -0.9170    3.1789   -1.9032 H   0  0  0  0  0
   -3.0538    3.4974   -3.0148 H   0  0  0  0  0
   -2.4340    1.9224   -3.3923 H   0  0  0  0  0
   -4.5637    2.6612   -1.3426 H   0  0  0  0  0
   -3.9555   -0.6282   -2.2242 C   0  0  0  0  0
   -5.2851   -1.0029   -2.5414 O   0  0  0  0  0
   -5.2311   -1.7660   -3.1418 H   0  0  0  0  0
   -3.4401   -1.4818   -1.7699 H   0  0  0  0  0
   -3.4251   -0.3801   -3.1493 H   0  0  0  0  0
   -5.2518    0.3640   -0.4199 C   0  0  0  0  0
   -6.1590    0.3916   -1.0325 H   0  0  0  0  0
   -5.3516    1.1487    0.3385 H   0  0  0  0  0
   -5.2519   -0.6015    0.0964 H   0  0  0  0  0
   -2.3949   -0.6671    0.4366 C   0  0  0  0  0
   -1.4925   -0.4251    1.6485 C   0  0  0  0  0
   -0.2637    0.3861    1.3082 C   0  0  0  0  0
    0.9443   -0.0473    1.7048 C   0  0  0  0  0
    1.0513   -0.9765    2.2555 H   0  0  0  0  0
    1.8588    0.4977    1.5113 H   0  0  0  0  0
   -1.2255   -1.3951    2.0860 H   0  0  0  0  0
   -2.0593    0.1152    2.4176 H   0  0  0  0  0
   -1.9083   -1.3683   -0.2501 H   0  0  0  0  0
   -3.3008   -1.1661    0.7949 H   0  0  0  0  0
   -3.1200    1.3199    0.5102 H   0  0  0  0  0
   -0.5887    0.5106   -1.7506 C   0  0  0  0  0
   -0.1153   -0.3489   -1.2678 H   0  0  0  0  0
    0.2037    1.0922   -2.2298 H   0  0  0  0  0
   -1.1858    0.1197   -2.5666 H   0  0  0  0  0
   -1.2200    2.2446    1.2102 H   0  0  0  0  0
    0.2297    3.6111    0.0523 H   0  0  0  0  0
    1.1088    2.8152    1.3409 H   0  0  0  0  0
    1.7552    1.0905   -0.7001 H   0  0  0  0  0
    3.1740    4.8383   -0.7136 H   0  0  0  0  0
    2.4095    4.6832   -3.6659 H   0  0  0  0  0
    3.8202    5.4332   -2.9030 H   0  0  0  0  0
  1  2  2  0  0  0
  2  3  1  0  0  0
  2  8  1  0  0  0
  3  4  1  0  0  0
  4  5  1  0  0  0
  4 54  1  0  0  0
  4 55  1  0  0  0
  5  6  1  0  0  0
  5  8  1  0  0  0
  5 53  1  0  0  0
  6  7  1  0  0  0
  8  9  2  0  0  0
  9 10  1  0  0  0
  9 52  1  0  0  0
 10 11  1  0  0  0
 10 50  1  0  0  0
 10 51  1  0  0  0
 11 12  1  0  0  0
 11 36  1  0  0  0
 11 49  1  0  0  0
 12 13  1  0  0  0
 12 19  1  0  0  0
 12 45  1  0  0  0
 13 14  1  0  0  0
 13 34  1  0  0  0
 13 44  1  0  0  0
 14 15  1  0  0  0
 14 25  1  0  0  0
 14 30  1  0  0  0
 15 16  1  0  0  0
 15 18  1  0  0  0
 15 24  1  0  0  0
 16 17  1  0  0  0
 18 19  1  0  0  0
 18 22  1  0  0  0
 18 23  1  0  0  0
 19 20  1  0  0  0
 19 21  1  0  0  0
 25 26  1  0  0  0
 25 28  1  0  0  0
 25 29  1  0  0  0
 26 27  1  0  0  0
 30 31  1  0  0  0
 30 32  1  0  0  0
 30 33  1  0  0  0
 34 35  1  0  0  0
 34 42  1  0  0  0
 34 43  1  0  0  0
 35 36  1  0  0  0
 35 40  1  0  0  0
 35 41  1  0  0  0
 36 37  2  0  0  0
 37 38  1  0  0  0
 37 39  1  0  0  0
 45 46  1  0  0  0
 45 47  1  0  0  0
 45 48  1  0  0  0
M  END
> <Tumorigenic>
none

> <Score>
34.20485

> <Active/Decoy>
active

> <InChI>
InChI=1S/C20H30O5/c1-12-4-7-16-19(2,9-8-17(23)20(16,3)11-21)14(12)6-5-13-15(22)10-25-18(13)24/h5,14-17,21-23H,1,4,6-11H2,2-3H3/b13-5+/t14-,15-,16+,17-,19+,20+/m1/s1

> <Matching Features>
H:14924486185440016873||HBA:14924321692640012300|HBA:14924486112070016868

> <Mol. Index>
1301

> <Pharmacophore Match>
Model -1

> <# Confs.>
25

> <Source Database>
Pharm-Screening-input-NANPDB_After_DataWarror.ldb

> <Pharmacophore-Fit Score>
34.2

> <formula>
C20H30O5

> <Mutagenic>
none

> <Reproductive Effective>
none

> <Irritant>
none

$$$$
gentesic acid 5-O-glucoside
XX    ILIB03122402123D

 38 39  0  0  1  0              1 V2000
    4.9387    1.9623    0.2357 O   0  0  0  0  0
    4.0356    1.4325   -0.3882 C   0  0  0  0  0
    3.9659    1.3665   -1.7364 O   0  0  0  0  0
    4.7360    1.7978   -2.1649 H   0  0  0  0  0
    2.8702    0.7778    0.2299 C   0  0  0  0  0
    2.9799    0.1719    1.4845 C   0  0  0  0  0
    4.1831    0.1512    2.1382 O   0  0  0  0  0
    4.0706   -0.3081    2.9878 H   0  0  0  0  0
    1.8694   -0.4316    2.0759 C   0  0  0  0  0
    0.6370   -0.4307    1.4189 C   0  0  0  0  0
    0.5195    0.1819    0.1543 C   0  0  0  0  0
    1.6299    0.7803   -0.4228 C   0  0  0  0  0
    1.5150    1.2632   -1.3909 H   0  0  0  0  0
   -0.6357    0.2531   -0.5635 O   0  0  0  0  0
   -1.5703   -0.8281   -0.3914 C   0  0  1  0  0
   -2.8497   -0.4063    0.0838 O   0  0  0  0  0
   -3.5191    0.4993   -0.8037 C   0  0  1  0  0
   -3.7688   -0.1516   -2.1620 C   0  0  1  0  0
   -4.3168    0.8103   -3.0572 O   0  0  0  0  0
   -4.4390    0.3770   -3.9194 H   0  0  0  0  0
   -2.4610   -0.7006   -2.7579 C   0  0  2  0  0
   -2.7575   -1.4816   -3.9167 O   0  0  0  0  0
   -3.3257   -2.2220   -3.6439 H   0  0  0  0  0
   -1.7404   -1.5701   -1.7292 C   0  0  1  0  0
   -0.4717   -1.9758   -2.2315 O   0  0  0  0  0
    0.0661   -1.1757   -2.3576 H   0  0  0  0  0
   -2.3253   -2.4831   -1.5641 H   0  0  0  0  0
   -1.8181    0.1174   -3.1024 H   0  0  0  0  0
   -4.4894   -0.9750   -2.0796 H   0  0  0  0  0
   -4.8018    0.9463   -0.1239 C   0  0  0  0  0
   -5.6245   -0.1854    0.1390 O   0  0  0  0  0
   -5.1076   -0.7997    0.6881 H   0  0  0  0  0
   -4.6027    1.4448    0.8308 H   0  0  0  0  0
   -5.3707    1.6261   -0.7655 H   0  0  0  0  0
   -2.8998    1.3973   -0.9276 H   0  0  0  0  0
   -1.1520   -1.5487    0.3259 H   0  0  0  0  0
   -0.2031   -0.9086    1.9135 H   0  0  0  0  0
    1.9496   -0.9083    3.0489 H   0  0  0  0  0
  1  2  2  0  0  0
  2  3  1  0  0  0
  2  5  1  0  0  0
  3  4  1  0  0  0
  5  6  2  0  0  0
  5 12  1  0  0  0
  6  7  1  0  0  0
  6  9  1  0  0  0
  7  8  1  0  0  0
  9 10  2  0  0  0
  9 38  1  0  0  0
 10 11  1  0  0  0
 10 37  1  0  0  0
 11 12  2  0  0  0
 11 14  1  0  0  0
 12 13  1  0  0  0
 14 15  1  0  0  0
 15 16  1  0  0  0
 15 24  1  0  0  0
 15 36  1  0  0  0
 16 17  1  0  0  0
 17 18  1  0  0  0
 17 30  1  0  0  0
 17 35  1  0  0  0
 18 19  1  0  0  0
 18 21  1  0  0  0
 18 29  1  0  0  0
 19 20  1  0  0  0
 21 22  1  0  0  0
 21 24  1  0  0  0
 21 28  1  0  0  0
 22 23  1  0  0  0
 24 25  1  0  0  0
 24 27  1  0  0  0
 25 26  1  0  0  0
 30 31  1  0  0  0
 30 33  1  0  0  0
 30 34  1  0  0  0
 31 32  1  0  0  0
M  END
> <Tumorigenic>
none

> <Score>
34.161198

> <Active/Decoy>
active

> <InChI>
InChI=1S/C13H16O9/c14-4-8-9(16)10(17)11(18)13(22-8)21-5-1-2-7(15)6(3-5)12(19)20/h1-3,8-11,13-18H,4H2,(H,19,20)/t8-,9-,10+,11-,13+/m1/s1

> <Matching Features>
H:14924486185440016873||HBA:14924321692640012300|HBA:14924486112070016868

> <Mol. Index>
74

> <Pharmacophore Match>
Model -1

> <# Confs.>
25

> <Source Database>
Pharm-Screening-input-NANPDB_After_DataWarror.ldb

> <Pharmacophore-Fit Score>
34.16

> <formula>
C13H16O9

> <Mutagenic>
none

> <Reproductive Effective>
none

> <Irritant>
none

$$$$
(?)catechin
XX    ILIB03122402123D

 35 37  0  0  1  0              1 V2000
   -1.1842   -0.7749   -0.4570 O   0  0  0  0  0
   -2.4131   -0.8846   -1.0578 C   0  0  0  0  0
   -2.9676    0.1004   -1.8894 C   0  0  0  0  0
   -4.2501   -0.1230   -2.4202 C   0  0  0  0  0
   -4.8919    0.7943   -3.2079 O   0  0  0  0  0
   -4.3734    1.6133   -3.2489 H   0  0  0  0  0
   -4.9406   -1.3085   -2.1657 C   0  0  0  0  0
   -4.3560   -2.2818   -1.3646 C   0  0  0  0  0
   -3.0960   -2.0799   -0.8090 C   0  0  0  0  0
   -2.6458   -2.8422   -0.1786 H   0  0  0  0  0
   -5.0504   -3.4340   -1.1327 O   0  0  0  0  0
   -4.5147   -4.0085   -0.5574 H   0  0  0  0  0
   -5.9292   -1.4687   -2.5894 H   0  0  0  0  0
   -2.2061    1.3629   -2.1741 C   0  0  0  0  0
   -0.7363    1.2462   -1.7770 C   0  0  1  0  0
   -0.1804    2.5539   -1.6945 O   0  0  0  0  0
   -0.2852    2.9717   -2.5666 H   0  0  0  0  0
   -0.6283    0.5415   -0.4063 C   0  0  2  0  0
    0.7861    0.4075    0.0642 C   0  0  0  0  0
    1.8417    0.8571   -0.7650 C   0  0  0  0  0
    3.1642    0.7268   -0.3390 C   0  0  0  0  0
    4.1532    1.1733   -1.1693 O   0  0  0  0  0
    5.0089    1.0096   -0.7362 H   0  0  0  0  0
    3.4516    0.1486    0.8969 C   0  0  0  0  0
    4.7555    0.0419    1.2891 O   0  0  0  0  0
    4.7779   -0.3702    2.1699 H   0  0  0  0  0
    2.4210   -0.2894    1.7179 C   0  0  0  0  0
    1.0960   -0.1615    1.2955 C   0  0  0  0  0
    0.3011   -0.5175    1.9458 H   0  0  0  0  0
    2.6316   -0.7375    2.6848 H   0  0  0  0  0
    1.6313    1.3046   -1.7328 H   0  0  0  0  0
   -1.1873    1.1239    0.3397 H   0  0  0  0  0
   -0.1940    0.6801   -2.5447 H   0  0  0  0  0
   -2.6770    2.1924   -1.6316 H   0  0  0  0  0
   -2.2521    1.6119   -3.2411 H   0  0  0  0  0
  1  2  1  0  0  0
  1 18  1  0  0  0
  2  3  2  0  0  0
  2  9  1  0  0  0
  3  4  1  0  0  0
  3 14  1  0  0  0
  4  5  1  0  0  0
  4  7  2  0  0  0
  5  6  1  0  0  0
  7  8  1  0  0  0
  7 13  1  0  0  0
  8  9  2  0  0  0
  8 11  1  0  0  0
  9 10  1  0  0  0
 11 12  1  0  0  0
 14 15  1  0  0  0
 14 34  1  0  0  0
 14 35  1  0  0  0
 15 16  1  0  0  0
 15 18  1  0  0  0
 15 33  1  0  0  0
 16 17  1  0  0  0
 18 19  1  0  0  0
 18 32  1  0  0  0
 19 20  2  0  0  0
 19 28  1  0  0  0
 20 21  1  0  0  0
 20 31  1  0  0  0
 21 22  1  0  0  0
 21 24  2  0  0  0
 22 23  1  0  0  0
 24 25  1  0  0  0
 24 27  1  0  0  0
 25 26  1  0  0  0
 27 28  2  0  0  0
 27 30  1  0  0  0
 28 29  1  0  0  0
M  END
> <Tumorigenic>
none

> <Score>
34.121094

> <Active/Decoy>
active

> <InChI>
InChI=1S/C15H14O6/c16-8-4-11(18)9-6-13(20)15(21-14(9)5-8)7-1-2-10(17)12(19)3-7/h1-5,13,15-20H,6H2/t13-,15+/m1/s1

> <Matching Features>
H:14924486185440016873||HBA:14924321692640012300|HBA:14924486112070016868

> <Mol. Index>
168

> <Pharmacophore Match>
Model -1

> <# Confs.>
12

> <Source Database>
Pharm-Screening-input-NANPDB_After_DataWarror.ldb

> <Pharmacophore-Fit Score>
34.12

> <formula>
C15H14O6

> <Mutagenic>
none

> <Reproductive Effective>
none

> <Irritant>
none

$$$$
decarboxy dehydrodigallic acid
XX    ILIB03122402123D

 31 32  0  0  1  0              1 V2000
   -4.4954    0.8082   -3.1115 O   0  0  0  0  0
   -3.3734    0.6526   -2.6506 C   0  0  0  0  0
   -2.3686    0.0518   -3.3314 O   0  0  0  0  0
   -1.4938   -0.0196   -2.8976 H   0  0  0  0  0
   -3.0038    1.1128   -1.2967 C   0  0  0  0  0
   -1.7024    1.5112   -0.9729 C   0  0  0  0  0
   -1.4090    1.9347    0.3398 C   0  0  0  0  0
   -0.1342    2.3524    0.6119 O   0  0  0  0  0
    0.8819    1.4291    0.5114 C   0  0  0  0  0
    1.8983    1.7426   -0.3997 C   0  0  0  0  0
    1.8477    2.9011   -1.1302 O   0  0  0  0  0
    1.0359    3.3778   -0.8857 H   0  0  0  0  0
    2.9884    0.8893   -0.5812 C   0  0  0  0  0
    3.9554    1.2633   -1.4705 O   0  0  0  0  0
    4.7465    0.7164   -1.3431 H   0  0  0  0  0
    3.0603   -0.2961    0.1462 C   0  0  0  0  0
    4.0753   -1.1984   -0.0003 O   0  0  0  0  0
    4.5839   -0.9913   -0.8004 H   0  0  0  0  0
    2.0637   -0.6117    1.0700 C   0  0  0  0  0
    0.9783    0.2482    1.2561 C   0  0  0  0  0
    0.2285   -0.0271    1.9918 H   0  0  0  0  0
    2.1216   -1.5307    1.6483 H   0  0  0  0  0
   -2.4086    1.9697    1.3121 C   0  0  0  0  0
   -2.0636    2.4047    2.5594 O   0  0  0  0  0
   -2.7743    2.1997    3.1857 H   0  0  0  0  0
   -3.7083    1.5943    0.9775 C   0  0  0  0  0
   -4.0042    1.1521   -0.3158 C   0  0  0  0  0
   -5.0232    0.8539   -0.5515 H   0  0  0  0  0
   -4.7470    1.6372    1.8638 O   0  0  0  0  0
   -4.4843    2.1335    2.6546 H   0  0  0  0  0
   -0.9055    1.5043   -1.7109 H   0  0  0  0  0
  1  2  2  0  0  0
  2  3  1  0  0  0
  2  5  1  0  0  0
  3  4  1  0  0  0
  5  6  2  0  0  0
  5 27  1  0  0  0
  6  7  1  0  0  0
  6 31  1  0  0  0
  7  8  1  0  0  0
  7 23  2  0  0  0
  8  9  1  0  0  0
  9 10  2  0  0  0
  9 20  1  0  0  0
 10 11  1  0  0  0
 10 13  1  0  0  0
 11 12  1  0  0  0
 13 14  1  0  0  0
 13 16  2  0  0  0
 14 15  1  0  0  0
 16 17  1  0  0  0
 16 19  1  0  0  0
 17 18  1  0  0  0
 19 20  2  0  0  0
 19 22  1  0  0  0
 20 21  1  0  0  0
 23 24  1  0  0  0
 23 26  1  0  0  0
 24 25  1  0  0  0
 26 27  2  0  0  0
 26 29  1  0  0  0
 27 28  1  0  0  0
 29 30  1  0  0  0
M  END
> <Tumorigenic>
none

> <Score>
34.0951

> <Active/Decoy>
active

> <InChI>
InChI=1S/C13H10O8/c14-6-1-2-8(12(18)11(6)17)21-9-4-5(13(19)20)3-7(15)10(9)16/h1-4,14-18H,(H,19,20)

> <Matching Features>
H:14924486185440016873||HBA:14924321692640012300|HBA:14924486112070016868

> <Mol. Index>
809

> <Pharmacophore Match>
Model -1

> <# Confs.>
25

> <Source Database>
Pharm-Screening-input-NANPDB_After_DataWarror.ldb

> <Pharmacophore-Fit Score>
34.1

> <formula>
C13H10O8

> <Mutagenic>
none

> <Reproductive Effective>
none

> <Irritant>
none

$$$$
5,4'-dimethoxy-6,7-methylenedioxyisoflavone
XX    ILIB03122402123D

 38 41  0  0  1  0              1 V2000
    1.4071    0.9423   -1.8424 O   0  0  0  0  0
    1.3169    0.5095   -0.7010 C   0  0  0  0  0
    2.4925    0.4703    0.2071 C   0  0  0  0  0
    3.7459    0.9938   -0.1680 C   0  0  0  0  0
    3.8920    1.5397   -1.4122 O   0  0  0  0  0
    5.1921    2.0449   -1.7076 C   0  0  0  0  0
    5.4621    2.8625   -1.0308 H   0  0  0  0  0
    5.9407    1.2470   -1.6802 H   0  0  0  0  0
    5.1686    2.4464   -2.7246 H   0  0  0  0  0
    4.7905    0.8638    0.7371 C   0  0  0  0  0
    6.0893    1.2395    0.5479 O   0  0  0  0  0
    6.6890    0.8502    1.7978 C   0  0  0  0  0
    5.7553    0.2403    2.7065 O   0  0  0  0  0
    4.6119    0.2798    1.9715 C   0  0  0  0  0
    3.3906   -0.2142    2.3733 C   0  0  0  0  0
    2.3244   -0.1172    1.4748 C   0  0  0  0  0
    1.1278   -0.6303    1.9060 O   0  0  0  0  0
    0.0445   -0.5185    1.0757 C   0  0  0  0  0
    0.0194   -0.0010   -0.1729 C   0  0  0  0  0
   -1.2371    0.0797   -0.9277 C   0  0  0  0  0
   -1.7787    1.2862   -1.3578 C   0  0  0  0  0
   -2.9722    1.3310   -2.0853 C   0  0  0  0  0
   -3.6567    0.1575   -2.4034 C   0  0  0  0  0
   -4.8105    0.3274   -3.1147 O   0  0  0  0  0
   -5.5094   -0.8721   -3.4396 C   0  0  0  0  0
   -4.9026   -1.5224   -4.0786 H   0  0  0  0  0
   -5.8323   -1.3984   -2.5348 H   0  0  0  0  0
   -6.4055   -0.5936   -4.0014 H   0  0  0  0  0
   -3.1316   -1.0652   -1.9870 C   0  0  0  0  0
   -1.9368   -1.1084   -1.2577 C   0  0  0  0  0
   -1.5677   -2.0850   -0.9514 H   0  0  0  0  0
   -3.6220   -2.0077   -2.2106 H   0  0  0  0  0
   -3.3624    2.2963   -2.4022 H   0  0  0  0  0
   -1.2835    2.2297   -1.1392 H   0  0  0  0  0
   -0.8236   -0.9194    1.5841 H   0  0  0  0  0
    3.2644   -0.6725    3.3477 H   0  0  0  0  0
    7.4976    0.1393    1.5929 H   0  0  0  0  0
    7.1158    1.7398    2.2737 H   0  0  0  0  0
  1  2  2  0  0  0
  2  3  1  0  0  0
  2 19  1  0  0  0
  3  4  2  0  0  0
  3 16  1  0  0  0
  4  5  1  0  0  0
  4 10  1  0  0  0
  5  6  1  0  0  0
  6  7  1  0  0  0
  6  8  1  0  0  0
  6  9  1  0  0  0
 10 11  1  0  0  0
 10 14  2  0  0  0
 11 12  1  0  0  0
 12 13  1  0  0  0
 12 37  1  0  0  0
 12 38  1  0  0  0
 13 14  1  0  0  0
 14 15  1  0  0  0
 15 16  2  0  0  0
 15 36  1  0  0  0
 16 17  1  0  0  0
 17 18  1  0  0  0
 18 19  2  0  0  0
 18 35  1  0  0  0
 19 20  1  0  0  0
 20 21  2  0  0  0
 20 30  1  0  0  0
 21 22  1  0  0  0
 21 34  1  0  0  0
 22 23  2  0  0  0
 22 33  1  0  0  0
 23 24  1  0  0  0
 23 29  1  0  0  0
 24 25  1  0  0  0
 25 26  1  0  0  0
 25 27  1  0  0  0
 25 28  1  0  0  0
 29 30  2  0  0  0
 29 32  1  0  0  0
 30 31  1  0  0  0
M  END
> <Tumorigenic>
none

> <Score>
34.088196

> <Active/Decoy>
active

> <InChI>
InChI=1S/C18H14O6/c1-20-11-5-3-10(4-6-11)12-8-22-13-7-14-17(24-9-23-14)18(21-2)15(13)16(12)19/h3-8H,9H2,1-2H3

> <Matching Features>
H:14924486185440016873||HBA:14924321692640012300|HBA:14924486112070016868

> <Mol. Index>
578

> <Pharmacophore Match>
Model -1

> <# Confs.>
4

> <Source Database>
Pharm-Screening-input-NANPDB_After_DataWarror.ldb

> <Pharmacophore-Fit Score>
34.09

> <formula>
C18H14O6

> <Mutagenic>
none

> <Reproductive Effective>
none

> <Irritant>
none

$$$$
1alpha-acetoxy-3beta-hydroxyeudesm-3-en-6beta,11betaH-12,6-olide
XX    ILIB03122402123D

 46 48  0  0  1  0              1 V2000
   -4.4965    0.7128   -2.8626 O   0  0  0  0  0
   -3.3603    0.4659   -2.4889 C   0  0  0  0  0
   -2.7475    1.0703   -1.4132 O   0  0  0  0  0
   -1.5080    0.4092   -1.1807 C   0  0  2  0  0
   -0.3431    1.1989   -0.6285 C   0  0  0  0  0
   -0.2796    2.5417   -0.4688 C   0  0  0  0  0
    1.0201    3.2569   -0.1516 C   0  0  1  0  0
    0.8665    3.9950    1.0597 O   0  0  0  0  0
    1.6857    4.4992    1.2018 H   0  0  0  0  0
    2.2728    2.3859   -0.0380 C   0  0  0  0  0
    2.1657    1.0694   -0.8098 C   0  0  1  0  0
    3.3279    0.2848   -0.5411 O   0  0  0  0  0
    4.3947    0.4877   -1.3611 C   0  0  0  0  0
    4.6899    1.5319   -1.9260 O   0  0  0  0  0
    5.1911   -0.7779   -1.4649 C   0  0  0  0  0
    5.6191   -1.0239   -0.4904 H   0  0  0  0  0
    6.0045   -0.6381   -2.1825 H   0  0  0  0  0
    4.5541   -1.5901   -1.8237 H   0  0  0  0  0
    0.8876    0.2971   -0.3990 C   0  0  2  0  0
    0.7865   -1.0509   -1.2124 C   0  0  0  0  0
    0.1148   -0.9495   -2.5878 C   0  0  0  0  0
   -1.0928   -0.0191   -2.5769 C   0  0  1  0  0
   -2.4135   -0.5428   -3.1108 C   0  0  2  0  0
   -2.4824   -0.5563   -4.6263 C   0  0  0  0  0
   -2.3382    0.4476   -5.0427 H   0  0  0  0  0
   -1.7199   -1.2167   -5.0476 H   0  0  0  0  0
   -3.4624   -0.9093   -4.9625 H   0  0  0  0  0
   -2.6481   -1.5321   -2.7016 H   0  0  0  0  0
   -0.8265    0.8762   -3.1637 H   0  0  0  0  0
    0.8461   -0.5738   -3.3149 H   0  0  0  0  0
   -0.1635   -1.9527   -2.9306 H   0  0  0  0  0
    1.7720   -1.5179   -1.3253 H   0  0  0  0  0
    0.2028   -1.7784   -0.6299 H   0  0  0  0  0
    0.9386   -0.1056    1.0938 C   0  0  0  0  0
    0.9633    0.7679    1.7555 H   0  0  0  0  0
    0.0439   -0.6759    1.3779 H   0  0  0  0  0
    1.8079   -0.7235    1.3135 H   0  0  0  0  0
    2.1154    1.2991   -1.8974 H   0  0  0  0  0
    3.1396    2.9579   -0.3967 H   0  0  0  0  0
    2.5195    2.1857    1.0126 H   0  0  0  0  0
    1.1918    3.9859   -0.9547 H   0  0  0  0  0
   -1.4510    3.4625   -0.6994 C   0  0  0  0  0
   -2.3059    3.1722   -0.0810 H   0  0  0  0  0
   -1.2113    4.4964   -0.4293 H   0  0  0  0  0
   -1.7373    3.4692   -1.7557 H   0  0  0  0  0
   -1.7274   -0.4330   -0.5115 H   0  0  0  0  0
  1  2  2  0  0  0
  2  3  1  0  0  0
  2 23  1  0  0  0
  3  4  1  0  0  0
  4  5  1  0  0  0
  4 22  1  0  0  0
  4 46  1  0  0  0
  5  6  2  0  0  0
  5 19  1  0  0  0
  6  7  1  0  0  0
  6 42  1  0  0  0
  7  8  1  0  0  0
  7 10  1  0  0  0
  7 41  1  0  0  0
  8  9  1  0  0  0
 10 11  1  0  0  0
 10 39  1  0  0  0
 10 40  1  0  0  0
 11 12  1  0  0  0
 11 19  1  0  0  0
 11 38  1  0  0  0
 12 13  1  0  0  0
 13 14  2  0  0  0
 13 15  1  0  0  0
 15 16  1  0  0  0
 15 17  1  0  0  0
 15 18  1  0  0  0
 19 20  1  0  0  0
 19 34  1  0  0  0
 20 21  1  0  0  0
 20 32  1  0  0  0
 20 33  1  0  0  0
 21 22  1  0  0  0
 21 30  1  0  0  0
 21 31  1  0  0  0
 22 23  1  0  0  0
 22 29  1  0  0  0
 23 24  1  0  0  0
 23 28  1  0  0  0
 24 25  1  0  0  0
 24 26  1  0  0  0
 24 27  1  0  0  0
 34 35  1  0  0  0
 34 36  1  0  0  0
 34 37  1  0  0  0
 42 43  1  0  0  0
 42 44  1  0  0  0
 42 45  1  0  0  0
M  END
> <Tumorigenic>
none

> <Score>
34.092415

> <Active/Decoy>
active

> <InChI>
InChI=1S/C17H24O5/c1-8-11-5-6-17(4)13(21-10(3)18)7-12(19)9(2)14(17)15(11)22-16(8)20/h8,11-13,15,19H,5-7H2,1-4H3/t8-,11-,12-,13+,15-,17-/m0/s1

> <Matching Features>
H:14924486185440016873||HBA:14924321692640012300|HBA:14924486112070016868

> <Mol. Index>
364

> <Pharmacophore Match>
Model -1

> <# Confs.>
5

> <Source Database>
Pharm-Screening-input-NANPDB_After_DataWarror.ldb

> <Pharmacophore-Fit Score>
34.09

> <formula>
C17H24O5

> <Mutagenic>
none

> <Reproductive Effective>
none

> <Irritant>
none

$$$$
5,4'-dimethoxy-3'-hydroxy-6,7-methylenedioxyisoflavone
XX    ILIB03122402123D

 39 42  0  0  1  0              1 V2000
    1.4014    0.9390   -1.8358 O   0  0  0  0  0
    1.3118    0.5111   -0.6929 C   0  0  0  0  0
    2.5144    0.3497    0.1652 C   0  0  0  0  0
    3.8152    0.6167   -0.3101 C   0  0  0  0  0
    3.9818    0.9706   -1.6197 O   0  0  0  0  0
    5.3273    1.2221   -2.0151 C   0  0  0  0  0
    5.7514    2.0657   -1.4605 H   0  0  0  0  0
    5.9463    0.3256   -1.9033 H   0  0  0  0  0
    5.3170    1.4907   -3.0766 H   0  0  0  0  0
    4.8709    0.4322    0.5729 C   0  0  0  0  0
    6.2001    0.5720    0.3017 O   0  0  0  0  0
    6.7920    0.2590    1.5758 C   0  0  0  0  0
    5.8216   -0.0936    2.5780 O   0  0  0  0  0
    4.6625    0.0358    1.8749 C   0  0  0  0  0
    3.4005   -0.2113    2.3696 C   0  0  0  0  0
    2.3212   -0.0568    1.4981 C   0  0  0  0  0
    1.0835   -0.3276    2.0217 O   0  0  0  0  0
    0.0009   -0.2479    1.1865 C   0  0  0  0  0
   -0.0105    0.1366   -0.1101 C   0  0  0  0  0
   -1.2716    0.1509   -0.8614 C   0  0  0  0  0
   -1.7277    1.3374   -1.4541 C   0  0  0  0  0
   -2.9170    1.3551   -2.1932 C   0  0  0  0  0
   -3.3528    2.5290   -2.7504 O   0  0  0  0  0
   -2.7136    3.2310   -2.5383 H   0  0  0  0  0
   -3.6751    0.2094   -2.3750 C   0  0  0  0  0
   -4.8147    0.3278   -3.1178 O   0  0  0  0  0
   -5.5687   -0.8692   -3.2926 C   0  0  0  0  0
   -4.9906   -1.6247   -3.8360 H   0  0  0  0  0
   -5.9208   -1.2587   -2.3312 H   0  0  0  0  0
   -6.4485   -0.6236   -3.8950 H   0  0  0  0  0
   -3.2182   -0.9923   -1.8083 C   0  0  0  0  0
   -2.0282   -1.0147   -1.0666 C   0  0  0  0  0
   -1.7140   -1.9685   -0.6488 H   0  0  0  0  0
   -3.7599   -1.9271   -1.9186 H   0  0  0  0  0
   -1.1725    2.2649   -1.3342 H   0  0  0  0  0
   -0.8807   -0.5503    1.7386 H   0  0  0  0  0
    3.2544   -0.5269    3.3970 H   0  0  0  0  0
    7.3564    1.1306    1.9236 H   0  0  0  0  0
    7.4841   -0.5806    1.4453 H   0  0  0  0  0
  1  2  2  0  0  0
  2  3  1  0  0  0
  2 19  1  0  0  0
  3  4  2  0  0  0
  3 16  1  0  0  0
  4  5  1  0  0  0
  4 10  1  0  0  0
  5  6  1  0  0  0
  6  7  1  0  0  0
  6  8  1  0  0  0
  6  9  1  0  0  0
 10 11  1  0  0  0
 10 14  2  0  0  0
 11 12  1  0  0  0
 12 13  1  0  0  0
 12 38  1  0  0  0
 12 39  1  0  0  0
 13 14  1  0  0  0
 14 15  1  0  0  0
 15 16  2  0  0  0
 15 37  1  0  0  0
 16 17  1  0  0  0
 17 18  1  0  0  0
 18 19  2  0  0  0
 18 36  1  0  0  0
 19 20  1  0  0  0
 20 21  2  0  0  0
 20 32  1  0  0  0
 21 22  1  0  0  0
 21 35  1  0  0  0
 22 23  1  0  0  0
 22 25  2  0  0  0
 23 24  1  0  0  0
 25 26  1  0  0  0
 25 31  1  0  0  0
 26 27  1  0  0  0
 27 28  1  0  0  0
 27 29  1  0  0  0
 27 30  1  0  0  0
 31 32  2  0  0  0
 31 34  1  0  0  0
 32 33  1  0  0  0
M  END
> <Tumorigenic>
none

> <Score>
34.077087

> <Active/Decoy>
active

> <InChI>
InChI=1S/C18H14O7/c1-21-12-4-3-9(5-11(12)19)10-7-23-13-6-14-17(25-8-24-14)18(22-2)15(13)16(10)20/h3-7,19H,8H2,1-2H3

> <Matching Features>
H:14924486185440016873||HBA:14924321692640012300|HBA:14924486112070016868

> <Mol. Index>
561

> <Pharmacophore Match>
Model -1

> <# Confs.>
8

> <Source Database>
Pharm-Screening-input-NANPDB_After_DataWarror.ldb

> <Pharmacophore-Fit Score>
34.08

> <formula>
C18H14O7

> <Mutagenic>
none

> <Reproductive Effective>
none

> <Irritant>
none

$$$$
3beta-hydroxymansumbin-13(17)-en-16-one
XX    ILIB03122402123D

 58 61  0  0  1  0              1 V2000
   -6.2198    0.8237   -3.7294 O   0  0  0  0  0
   -5.1203    1.2939   -3.4746 C   0  0  0  0  0
   -4.3723    2.1305   -4.4178 C   0  0  0  0  0
   -3.2239    2.4289   -3.8059 C   0  0  0  0  0
   -2.0924    3.1999   -4.4033 C   0  0  0  0  0
   -0.7809    2.4092   -4.3318 C   0  0  0  0  0
   -0.5058    1.8189   -2.9203 C   0  0  1  0  0
   -1.7321    0.9409   -2.4155 C   0  0  2  0  0
   -3.0479    1.8562   -2.4103 C   0  0  2  0  0
   -4.3828    1.1004   -2.1800 C   0  0  0  0  0
   -4.9847    1.5442   -1.3790 H   0  0  0  0  0
   -4.2689    0.0374   -1.9653 H   0  0  0  0  0
   -3.0136    3.0260   -1.3944 C   0  0  0  0  0
   -3.0815    2.6638   -0.3634 H   0  0  0  0  0
   -3.8667    3.7005   -1.5440 H   0  0  0  0  0
   -2.1168    3.6450   -1.4719 H   0  0  0  0  0
   -1.4351    0.4113   -0.9903 C   0  0  0  0  0
   -0.0551   -0.2322   -0.8267 C   0  0  0  0  0
    1.0672    0.7502   -1.2189 C   0  0  1  0  0
    2.5056    0.3417   -0.7303 C   0  0  0  0  0
    3.4923    1.4901   -1.0911 C   0  0  1  0  0
    4.8351    1.1130   -0.7833 O   0  0  0  0  0
    5.4074    1.8719   -0.9850 H   0  0  0  0  0
    3.4283    1.9177   -2.5534 C   0  0  0  0  0
    2.0129    2.2910   -2.9908 C   0  0  0  0  0
    0.9442    1.1850   -2.7290 C   0  0  2  0  0
    1.2113    0.0362   -3.7295 C   0  0  0  0  0
    0.9405   -0.9443   -3.3359 H   0  0  0  0  0
    0.6789    0.1729   -4.6731 H   0  0  0  0  0
    2.2636   -0.0377   -4.0150 H   0  0  0  0  0
    2.0481    2.5443   -4.0569 H   0  0  0  0  0
    1.7278    3.2095   -2.4634 H   0  0  0  0  0
    3.8533    1.1402   -3.1960 H   0  0  0  0  0
    4.0849    2.7841   -2.7019 H   0  0  0  0  0
    3.2601    2.3638   -0.4699 H   0  0  0  0  0
    2.9927   -1.0143   -1.2821 C   0  0  0  0  0
    2.2444   -1.8000   -1.1371 H   0  0  0  0  0
    3.9023   -1.3461   -0.7676 H   0  0  0  0  0
    3.2422   -0.9765   -2.3437 H   0  0  0  0  0
    2.5178    0.2020    0.8169 C   0  0  0  0  0
    2.0882    1.0874    1.2967 H   0  0  0  0  0
    1.9543   -0.6740    1.1537 H   0  0  0  0  0
    3.5374    0.0835    1.2024 H   0  0  0  0  0
    0.8487    1.6655   -0.6430 H   0  0  0  0  0
    0.0045   -1.1649   -1.3939 H   0  0  0  0  0
    0.0342   -0.5183    0.2254 H   0  0  0  0  0
   -2.2024   -0.3098   -0.6856 H   0  0  0  0  0
   -1.4854    1.2293   -0.2647 H   0  0  0  0  0
   -1.9578   -0.2936   -3.3411 C   0  0  0  0  0
   -2.7928   -0.9135   -3.0046 H   0  0  0  0  0
   -2.1649   -0.0141   -4.3772 H   0  0  0  0  0
   -1.1085   -0.9724   -3.3575 H   0  0  0  0  0
   -0.4793    2.6940   -2.2575 H   0  0  0  0  0
   -0.8090    1.6175   -5.0873 H   0  0  0  0  0
    0.0256    3.0869   -4.6300 H   0  0  0  0  0
   -2.3006    3.4584   -5.4485 H   0  0  0  0  0
   -1.9775    4.1477   -3.8655 H   0  0  0  0  0
   -4.6960    2.4008   -5.4073 H   0  0  0  0  0
  1  2  2  0  0  0
  2  3  1  0  0  0
  2 10  1  0  0  0
  3  4  2  0  0  0
  3 58  1  0  0  0
  4  5  1  0  0  0
  4  9  1  0  0  0
  5  6  1  0  0  0
  5 56  1  0  0  0
  5 57  1  0  0  0
  6  7  1  0  0  0
  6 54  1  0  0  0
  6 55  1  0  0  0
  7  8  1  0  0  0
  7 26  1  0  0  0
  7 53  1  0  0  0
  8  9  1  0  0  0
  8 17  1  0  0  0
  8 49  1  0  0  0
  9 10  1  0  0  0
  9 13  1  0  0  0
 10 11  1  0  0  0
 10 12  1  0  0  0
 13 14  1  0  0  0
 13 15  1  0  0  0
 13 16  1  0  0  0
 17 18  1  0  0  0
 17 47  1  0  0  0
 17 48  1  0  0  0
 18 19  1  0  0  0
 18 45  1  0  0  0
 18 46  1  0  0  0
 19 20  1  0  0  0
 19 26  1  0  0  0
 19 44  1  0  0  0
 20 21  1  0  0  0
 20 36  1  0  0  0
 20 40  1  0  0  0
 21 22  1  0  0  0
 21 24  1  0  0  0
 21 35  1  0  0  0
 22 23  1  0  0  0
 24 25  1  0  0  0
 24 33  1  0  0  0
 24 34  1  0  0  0
 25 26  1  0  0  0
 25 31  1  0  0  0
 25 32  1  0  0  0
 26 27  1  0  0  0
 27 28  1  0  0  0
 27 29  1  0  0  0
 27 30  1  0  0  0
 36 37  1  0  0  0
 36 38  1  0  0  0
 36 39  1  0  0  0
 40 41  1  0  0  0
 40 42  1  0  0  0
 40 43  1  0  0  0
 49 50  1  0  0  0
 49 51  1  0  0  0
 49 52  1  0  0  0
M  END
> <Tumorigenic>
none

> <Score>
34.081375

> <Active/Decoy>
active

> <InChI>
InChI=1S/C22H34O2/c1-19(2)16-8-11-21(4)17(20(16,3)10-9-18(19)24)7-6-14-12-15(23)13-22(14,21)5/h12,16-18,24H,6-11,13H2,1-5H3/t16-,17+,18-,20-,21+,22+/m0/s1

> <Matching Features>
H:14924486185440016873||HBA:14924321692640012300|HBA:14924486112070016868

> <Mol. Index>
142

> <Pharmacophore Match>
Model -1

> <Source Database>
Pharm-Screening-input-NANPDB_After_DataWarror.ldb

> <Pharmacophore-Fit Score>
34.08

> <formula>
C22H34O2

> <Mutagenic>
none

> <Reproductive Effective>
none

> <Irritant>
none

$$$$
(+)-catechin
XX    ILIB03122402123D

 35 37  0  0  1  0              1 V2000
   -1.4285    0.9194    0.2308 O   0  0  0  0  0
   -2.6972    1.1272   -0.2396 C   0  0  0  0  0
   -3.0963    0.8383   -1.5519 C   0  0  0  0  0
   -4.4248    1.0976   -1.9211 C   0  0  0  0  0
   -4.8314    0.7966   -3.1938 O   0  0  0  0  0
   -5.7683    1.0388   -3.2873 H   0  0  0  0  0
   -5.3301    1.6571   -1.0193 C   0  0  0  0  0
   -4.9049    1.9582    0.2703 C   0  0  0  0  0
   -3.5946    1.7000    0.6672 C   0  0  0  0  0
   -3.2705    1.9351    1.6771 H   0  0  0  0  0
   -5.8044    2.5107    1.1369 O   0  0  0  0  0
   -5.3592    2.6692    1.9876 H   0  0  0  0  0
   -6.3546    1.8596   -1.3169 H   0  0  0  0  0
   -2.1272    0.2356   -2.5270 C   0  0  0  0  0
   -0.6862    0.3984   -2.0504 C   0  0  2  0  0
    0.1502   -0.4597   -2.8195 O   0  0  0  0  0
   -0.1113   -1.3779   -2.6359 H   0  0  0  0  0
   -0.5912    0.0512   -0.5656 C   0  0  1  0  0
    0.7904    0.1658   -0.0013 C   0  0  0  0  0
    1.8320    0.6239   -0.8435 C   0  0  0  0  0
    3.1317    0.7305   -0.3465 C   0  0  0  0  0
    4.1078    1.1763   -1.1922 O   0  0  0  0  0
    4.9488    1.1909   -0.7033 H   0  0  0  0  0
    3.4110    0.3889    0.9723 C   0  0  0  0  0
    4.6915    0.5034    1.4332 O   0  0  0  0  0
    4.7100    0.2304    2.3664 H   0  0  0  0  0
    2.3932   -0.0636    1.8077 C   0  0  0  0  0
    1.0913   -0.1727    1.3141 C   0  0  0  0  0
    0.3075   -0.5310    1.9767 H   0  0  0  0  0
    2.5973   -0.3350    2.8392 H   0  0  0  0  0
    1.6284    0.8948   -1.8762 H   0  0  0  0  0
   -0.9412   -0.9848   -0.4015 H   0  0  0  0  0
   -0.3678    1.4336   -2.2247 H   0  0  0  0  0
   -2.3690   -0.8273   -2.6548 H   0  0  0  0  0
   -2.2245    0.7025   -3.5145 H   0  0  0  0  0
  1  2  1  0  0  0
  1 18  1  0  0  0
  2  3  2  0  0  0
  2  9  1  0  0  0
  3  4  1  0  0  0
  3 14  1  0  0  0
  4  5  1  0  0  0
  4  7  2  0  0  0
  5  6  1  0  0  0
  7  8  1  0  0  0
  7 13  1  0  0  0
  8  9  2  0  0  0
  8 11  1  0  0  0
  9 10  1  0  0  0
 11 12  1  0  0  0
 14 15  1  0  0  0
 14 34  1  0  0  0
 14 35  1  0  0  0
 15 16  1  0  0  0
 15 18  1  0  0  0
 15 33  1  0  0  0
 16 17  1  0  0  0
 18 19  1  0  0  0
 18 32  1  0  0  0
 19 20  2  0  0  0
 19 28  1  0  0  0
 20 21  1  0  0  0
 20 31  1  0  0  0
 21 22  1  0  0  0
 21 24  2  0  0  0
 22 23  1  0  0  0
 24 25  1  0  0  0
 24 27  1  0  0  0
 25 26  1  0  0  0
 27 28  2  0  0  0
 27 30  1  0  0  0
 28 29  1  0  0  0
M  END
> <Tumorigenic>
none

> <Score>
34.084286

> <Active/Decoy>
active

> <InChI>
InChI=1S/C15H14O6/c16-8-4-11(18)9-6-13(20)15(21-14(9)5-8)7-1-2-10(17)12(19)3-7/h1-5,13,15-20H,6H2/t13-,15+/m0/s1

> <Matching Features>
H:14924486185440016873||HBA:14924321692640012300|HBA:14924486112070016868

> <Mol. Index>
72

> <Pharmacophore Match>
Model -1

> <# Confs.>
11

> <Source Database>
Pharm-Screening-input-NANPDB_After_DataWarror.ldb

> <Pharmacophore-Fit Score>
34.08

> <formula>
C15H14O6

> <Mutagenic>
none

> <Reproductive Effective>
none

> <Irritant>
none

$$$$
12beta-acetoxycleocarpanol
XX    ILIB03122402123D

 90 95  0  0  1  0              1 V2000
    0.0432   -3.2546   -3.1741 O   0  0  0  0  0
   -0.7067   -2.8790   -2.2827 C   0  0  0  0  0
   -0.7466   -1.6337   -1.7324 O   0  0  0  0  0
    0.2024   -0.6831   -2.2225 C   0  0  2  0  0
    0.5234    0.2859   -1.0613 C   0  0  1  0  0
    1.9085    0.9887   -1.0614 C   0  0  2  0  0
    2.4505    1.1599   -2.3895 O   0  0  0  0  0
    3.8590    0.8645   -2.2396 C   0  0  1  0  0
    4.1716    1.0499   -0.8408 O   0  0  0  0  0
    3.0743    0.2376   -0.3583 C   0  0  2  0  0
    3.4286   -1.1034   -1.0240 C   0  0  0  0  0
    3.9819   -0.6551   -2.3784 C   0  0  0  0  0
    5.0220   -0.9851   -2.4759 H   0  0  0  0  0
    3.3998   -1.0570   -3.2124 H   0  0  0  0  0
    4.2269   -1.6164   -0.4749 H   0  0  0  0  0
    2.5886   -1.7967   -1.0943 H   0  0  0  0  0
    3.0486    0.1413    1.1563 C   0  0  0  0  0
    3.9716   -0.3195    1.5260 H   0  0  0  0  0
    2.2044   -0.4602    1.5051 H   0  0  0  0  0
    3.0021    1.1218    1.6360 H   0  0  0  0  0
    4.7256    1.7226   -3.1854 C   0  0  0  0  0
    6.1058    1.3908   -2.9959 O   0  0  0  0  0
    6.2439    0.4761   -3.2967 H   0  0  0  0  0
    4.3832    1.4933   -4.6636 C   0  0  0  0  0
    5.0516    2.0730   -5.3096 H   0  0  0  0  0
    3.3508    1.7784   -4.8921 H   0  0  0  0  0
    4.5237    0.4439   -4.9453 H   0  0  0  0  0
    4.5897    3.2174   -2.8686 C   0  0  0  0  0
    3.5582    3.5653   -2.9848 H   0  0  0  0  0
    5.2304    3.8138   -3.5286 H   0  0  0  0  0
    4.9194    3.4383   -1.8476 H   0  0  0  0  0
    1.6613    2.3958   -0.4739 C   0  0  0  0  0
    0.2326    2.3946    0.0584 C   0  0  0  0  0
   -0.5608    1.3856   -0.8010 C   0  0  1  0  0
   -1.2165    2.0385   -2.1355 C   0  0  1  0  0
   -1.6321    0.8822   -3.1116 C   0  0  1  0  0
   -2.5156    1.2822   -4.3941 C   0  0  2  0  0
   -3.4328    2.5400   -4.0941 C   0  0  1  0  0
   -4.7269    2.7114   -5.0052 C   0  0  0  0  0
   -5.4642    1.3699   -5.2247 C   0  0  2  0  0
   -6.0869    0.9482   -4.0099 O   0  0  0  0  0
   -6.5693    0.1251   -4.1963 H   0  0  0  0  0
   -4.5303    0.2623   -5.7026 C   0  0  0  0  0
   -3.3935    0.0280   -4.7171 C   0  0  0  0  0
   -3.8372   -0.3643   -3.7927 H   0  0  0  0  0
   -2.7646   -0.7821   -5.1077 H   0  0  0  0  0
   -5.0968   -0.6731   -5.7921 H   0  0  0  0  0
   -4.1371    0.4769   -6.7012 H   0  0  0  0  0
   -6.2665    1.5033   -5.9584 H   0  0  0  0  0
   -4.3517    3.3174   -6.3848 C   0  0  0  0  0
   -3.8382    2.6227   -7.0457 H   0  0  0  0  0
   -5.2491    3.6281   -6.9339 H   0  0  0  0  0
   -3.7220    4.2070   -6.2696 H   0  0  0  0  0
   -5.7249    3.7389   -4.4014 C   0  0  0  0  0
   -6.5518    3.9390   -5.0934 H   0  0  0  0  0
   -5.2291    4.6951   -4.1992 H   0  0  0  0  0
   -6.1896    3.3900   -3.4748 H   0  0  0  0  0
   -3.7292    2.5836   -2.5795 C   0  0  0  0  0
   -2.4679    2.9040   -1.7752 C   0  0  0  0  0
   -2.7300    2.8587   -0.7182 H   0  0  0  0  0
   -2.2436    3.9698   -1.9273 H   0  0  0  0  0
   -4.1704    1.6405   -2.2385 H   0  0  0  0  0
   -4.4438    3.3691   -2.3232 H   0  0  0  0  0
   -2.8327    3.4391   -4.2919 H   0  0  0  0  0
   -1.6127    1.5483   -5.6260 C   0  0  0  0  0
   -0.9827    2.4289   -5.4993 H   0  0  0  0  0
   -0.9544    0.7016   -5.8449 H   0  0  0  0  0
   -2.1795    1.6928   -6.5424 H   0  0  0  0  0
   -0.4163   -0.0086   -3.4494 C   0  0  0  0  0
   -0.7334   -0.8054   -4.1315 H   0  0  0  0  0
    0.3540    0.5621   -3.9755 H   0  0  0  0  0
   -2.2967    0.2438   -2.5177 H   0  0  0  0  0
   -0.2512    3.0181   -2.8546 C   0  0  0  0  0
    0.0304    3.8539   -2.2076 H   0  0  0  0  0
   -0.7207    3.4939   -3.7176 H   0  0  0  0  0
    0.6578    2.5440   -3.2171 H   0  0  0  0  0
   -1.6526    0.7542    0.1192 C   0  0  0  0  0
   -1.2053    0.1362    0.9075 H   0  0  0  0  0
   -2.3472    0.1136   -0.4273 H   0  0  0  0  0
   -2.2344    1.5104    0.6526 H   0  0  0  0  0
   -0.2074    3.3967    0.0607 H   0  0  0  0  0
    0.2613    2.0658    1.1058 H   0  0  0  0  0
    1.8061    3.1705   -1.2308 H   0  0  0  0  0
    2.3513    2.6652    0.3311 H   0  0  0  0  0
    0.5498   -0.3476   -0.1576 H   0  0  0  0  0
    1.1023   -1.2006   -2.5403 H   0  0  0  0  0
   -1.7269   -3.7557   -1.6226 C   0  0  0  0  0
   -1.9011   -4.6399   -2.2431 H   0  0  0  0  0
   -1.3633   -4.0697   -0.6419 H   0  0  0  0  0
   -2.6760   -3.2210   -1.5277 H   0  0  0  0  0
  1  2  2  0  0  0
  2  3  1  0  0  0
  2 87  1  0  0  0
  3  4  1  0  0  0
  4  5  1  0  0  0
  4 69  1  0  0  0
  4 86  1  0  0  0
  5  6  1  0  0  0
  5 34  1  0  0  0
  5 85  1  0  0  0
  6  7  1  0  0  0
  6 10  1  0  0  0
  6 32  1  0  0  0
  7  8  1  0  0  0
  8  9  1  0  0  0
  8 12  1  0  0  0
  8 21  1  0  0  0
  9 10  1  0  0  0
 10 11  1  0  0  0
 10 17  1  0  0  0
 11 12  1  0  0  0
 11 15  1  0  0  0
 11 16  1  0  0  0
 12 13  1  0  0  0
 12 14  1  0  0  0
 17 18  1  0  0  0
 17 19  1  0  0  0
 17 20  1  0  0  0
 21 22  1  0  0  0
 21 24  1  0  0  0
 21 28  1  0  0  0
 22 23  1  0  0  0
 24 25  1  0  0  0
 24 26  1  0  0  0
 24 27  1  0  0  0
 28 29  1  0  0  0
 28 30  1  0  0  0
 28 31  1  0  0  0
 32 33  1  0  0  0
 32 83  1  0  0  0
 32 84  1  0  0  0
 33 34  1  0  0  0
 33 81  1  0  0  0
 33 82  1  0  0  0
 34 35  1  0  0  0
 34 77  1  0  0  0
 35 36  1  0  0  0
 35 59  1  0  0  0
 35 73  1  0  0  0
 36 37  1  0  0  0
 36 69  1  0  0  0
 36 72  1  0  0  0
 37 38  1  0  0  0
 37 44  1  0  0  0
 37 65  1  0  0  0
 38 39  1  0  0  0
 38 58  1  0  0  0
 38 64  1  0  0  0
 39 40  1  0  0  0
 39 50  1  0  0  0
 39 54  1  0  0  0
 40 41  1  0  0  0
 40 43  1  0  0  0
 40 49  1  0  0  0
 41 42  1  0  0  0
 43 44  1  0  0  0
 43 47  1  0  0  0
 43 48  1  0  0  0
 44 45  1  0  0  0
 44 46  1  0  0  0
 50 51  1  0  0  0
 50 52  1  0  0  0
 50 53  1  0  0  0
 54 55  1  0  0  0
 54 56  1  0  0  0
 54 57  1  0  0  0
 58 59  1  0  0  0
 58 62  1  0  0  0
 58 63  1  0  0  0
 59 60  1  0  0  0
 59 61  1  0  0  0
 65 66  1  0  0  0
 65 67  1  0  0  0
 65 68  1  0  0  0
 69 70  1  0  0  0
 69 71  1  0  0  0
 73 74  1  0  0  0
 73 75  1  0  0  0
 73 76  1  0  0  0
 77 78  1  0  0  0
 77 79  1  0  0  0
 77 80  1  0  0  0
 87 88  1  0  0  0
 87 89  1  0  0  0
 87 90  1  0  0  0
M  END
> <Tumorigenic>
none

> <Score>
34.0569

> <Active/Decoy>
active

> <InChI>
InChI=1S/C32H52O6/c1-19(33)36-20-18-22-27(6)12-11-23(34)25(2,3)21(27)10-13-28(22,7)29(8)14-16-31(24(20)29)30(9)15-17-32(37-30,38-31)26(4,5)35/h20-24,34-35H,10-18H2,1-9H3/t20-,21+,22+,23+,24+,27+,28+,29+,30?,31-,32+/m0/s1

> <Matching Features>
H:14924486185440016873||HBA:14924321692640012300|HBA:14924486112070016868

> <Mol. Index>
182

> <Pharmacophore Match>
Model -1

> <# Confs.>
25

> <Source Database>
Pharm-Screening-input-NANPDB_After_DataWarror.ldb

> <Pharmacophore-Fit Score>
34.06

> <formula>
C32H52O6

> <Mutagenic>
none

> <Reproductive Effective>
none

> <Irritant>
none

$$$$
15,16-dihydroxy-7,11-dioxopimar-8(9)-ene
XX    ILIB03122402123D

 54 56  0  0  1  0              1 V2000
   -0.2884   -1.7357    0.8894 O   0  0  0  0  0
   -0.0130   -0.8197    0.1164 C   0  0  0  0  0
    1.4119   -0.3722   -0.1067 C   0  0  0  0  0
    1.6220    0.3752   -1.2072 C   0  0  0  0  0
    3.0231    0.7278   -1.5700 C   0  0  0  0  0
    3.2612    1.5506   -2.4530 O   0  0  0  0  0
    4.1375   -0.0093   -0.8811 C   0  0  0  0  0
    3.8799   -0.0808    0.6303 C   0  0  1  0  0
    2.5074   -0.8212    0.8916 C   0  0  2  0  0
    2.6697   -2.3635    0.7706 C   0  0  0  0  0
    4.0817   -2.9062    0.9786 C   0  0  0  0  0
    4.8789   -2.0814    1.9698 C   0  0  0  0  0
    5.1154   -0.6382    1.4616 C   0  0  0  0  0
    6.4411   -0.6334    0.6583 C   0  0  0  0  0
    6.3927   -1.2849   -0.2195 H   0  0  0  0  0
    7.2766   -0.9927    1.2729 H   0  0  0  0  0
    6.7090    0.3769    0.3312 H   0  0  0  0  0
    5.3804    0.2752    2.6840 C   0  0  0  0  0
    4.5170    0.3476    3.3489 H   0  0  0  0  0
    5.6305    1.2933    2.3636 H   0  0  0  0  0
    6.2179   -0.1001    3.2822 H   0  0  0  0  0
    4.3612   -2.0846    2.9352 H   0  0  0  0  0
    5.8358   -2.5799    2.1611 H   0  0  0  0  0
    4.6084   -2.9425    0.0182 H   0  0  0  0  0
    4.0186   -3.9440    1.3259 H   0  0  0  0  0
    2.0099   -2.8564    1.4965 H   0  0  0  0  0
    2.3315   -2.7156   -0.2135 H   0  0  0  0  0
    2.0292   -0.4348    2.3202 C   0  0  0  0  0
    2.7145   -0.7685    3.0991 H   0  0  0  0  0
    1.9194    0.6512    2.4156 H   0  0  0  0  0
    1.0673   -0.8784    2.5885 H   0  0  0  0  0
    3.7371    0.9670    0.9406 H   0  0  0  0  0
    5.0475    0.5626   -1.0915 H   0  0  0  0  0
    4.2393   -0.9975   -1.3413 H   0  0  0  0  0
    0.5684    0.8682   -2.1695 C   0  0  0  0  0
   -0.7843    0.1043   -2.1010 C   0  0  2  0  0
   -1.8696    0.8919   -2.8187 C   0  0  2  0  0
   -2.0004    2.1702   -2.1899 O   0  0  0  0  0
   -2.2362    2.0199   -1.2594 H   0  0  0  0  0
   -3.2255    0.2060   -2.8736 C   0  0  0  0  0
   -4.1584    1.0239   -3.5619 O   0  0  0  0  0
   -5.0051    0.5462   -3.5695 H   0  0  0  0  0
   -3.6014    0.0039   -1.8647 H   0  0  0  0  0
   -3.1457   -0.7551   -3.3928 H   0  0  0  0  0
   -1.5381    1.0970   -3.8515 H   0  0  0  0  0
   -1.1288   -0.1146   -0.6261 C   0  0  0  0  0
   -1.3067    0.8396   -0.1039 H   0  0  0  0  0
   -2.0367   -0.7109   -0.5324 H   0  0  0  0  0
   -0.6277   -1.2678   -2.8056 C   0  0  0  0  0
   -0.4256   -1.1381   -3.8750 H   0  0  0  0  0
    0.1914   -1.8654   -2.3936 H   0  0  0  0  0
   -1.5426   -1.8625   -2.7106 H   0  0  0  0  0
    0.4170    1.9328   -1.9513 H   0  0  0  0  0
    0.9452    0.8147   -3.1992 H   0  0  0  0  0
  1  2  2  0  0  0
  2  3  1  0  0  0
  2 46  1  0  0  0
  3  4  2  0  0  0
  3  9  1  0  0  0
  4  5  1  0  0  0
  4 35  1  0  0  0
  5  6  2  0  0  0
  5  7  1  0  0  0
  7  8  1  0  0  0
  7 33  1  0  0  0
  7 34  1  0  0  0
  8  9  1  0  0  0
  8 13  1  0  0  0
  8 32  1  0  0  0
  9 10  1  0  0  0
  9 28  1  0  0  0
 10 11  1  0  0  0
 10 26  1  0  0  0
 10 27  1  0  0  0
 11 12  1  0  0  0
 11 24  1  0  0  0
 11 25  1  0  0  0
 12 13  1  0  0  0
 12 22  1  0  0  0
 12 23  1  0  0  0
 13 14  1  0  0  0
 13 18  1  0  0  0
 14 15  1  0  0  0
 14 16  1  0  0  0
 14 17  1  0  0  0
 18 19  1  0  0  0
 18 20  1  0  0  0
 18 21  1  0  0  0
 28 29  1  0  0  0
 28 30  1  0  0  0
 28 31  1  0  0  0
 35 36  1  0  0  0
 35 53  1  0  0  0
 35 54  1  0  0  0
 36 37  1  0  0  0
 36 46  1  0  0  0
 36 49  1  0  0  0
 37 38  1  0  0  0
 37 40  1  0  0  0
 37 45  1  0  0  0
 38 39  1  0  0  0
 40 41  1  0  0  0
 40 43  1  0  0  0
 40 44  1  0  0  0
 41 42  1  0  0  0
 46 47  1  0  0  0
 46 48  1  0  0  0
 49 50  1  0  0  0
 49 51  1  0  0  0
 49 52  1  0  0  0
M  END
> <Tumorigenic>
none

> <Score>
34.04976

> <Active/Decoy>
active

> <InChI>
InChI=1S/C20H30O4/c1-18(2)6-5-7-20(4)15(18)8-13(22)12-9-19(3,16(24)11-21)10-14(23)17(12)20/h15-16,21,24H,5-11H2,1-4H3/t15-,16-,19+,20+/m1/s1

> <Matching Features>
H:14924486185440016873||HBA:14924321692640012300|HBA:14924486112070016868

> <Mol. Index>
582

> <Pharmacophore Match>
Model -1

> <# Confs.>
25

> <Source Database>
Pharm-Screening-input-NANPDB_After_DataWarror.ldb

> <Pharmacophore-Fit Score>
34.05

> <formula>
C20H30O4

> <Mutagenic>
none

> <Reproductive Effective>
none

> <Irritant>
none

$$$$
N-propionylaplysinopsin
XX    ILIB03122402133D

 41 43  0  0  1  0              1 V2000
   -4.3462    0.7683   -2.9573 O   0  0  0  0  0
   -3.8431   -0.2973   -2.6428 C   0  0  0  0  0
   -4.4290   -1.5511   -2.5885 N   0  0  0  0  0
   -3.5095   -2.5000   -2.2021 C   0  0  0  0  0
   -3.7931   -3.7540   -2.0711 N   0  0  0  0  0
   -4.7769   -3.9246   -2.2910 H   0  0  0  0  0
   -2.2876   -1.8694   -1.9990 N   0  0  0  0  0
   -2.4093   -0.5088   -2.2182 C   0  0  0  0  0
   -1.6105    0.5626   -2.1513 C   0  0  0  0  0
   -0.2502    0.6472   -1.7294 C   0  0  0  0  0
    0.3505    0.3262   -0.4786 C   0  0  0  0  0
    1.7215    0.6115   -0.5929 C   0  0  0  0  0
    2.5999    0.3950    0.4878 C   0  0  0  0  0
    2.0918   -0.1196    1.6827 C   0  0  0  0  0
    0.7404   -0.3948    1.8186 C   0  0  0  0  0
   -0.1346   -0.1819    0.7504 C   0  0  0  0  0
   -1.1864   -0.4138    0.8833 H   0  0  0  0  0
    0.3585   -0.7857    2.7574 H   0  0  0  0  0
    2.7600   -0.2684    2.5265 H   0  0  0  0  0
    3.6621    0.6008    0.4144 H   0  0  0  0  0
    1.9662    1.0905   -1.8814 N   0  0  0  0  0
    0.7499    1.1009   -2.5584 C   0  0  0  0  0
    0.6902    1.4360   -3.5858 H   0  0  0  0  0
    3.1874    1.4607   -2.4205 C   0  0  0  0  0
    4.1850    1.3917   -1.7290 O   0  0  0  0  0
    3.1476    1.9593   -3.8452 C   0  0  0  0  0
    4.5375    2.3483   -4.3114 C   0  0  0  0  0
    4.9701    3.1168   -3.6622 H   0  0  0  0  0
    4.5012    2.7412   -5.3317 H   0  0  0  0  0
    5.2131    1.4862   -4.3000 H   0  0  0  0  0
    2.7200    1.1977   -4.5057 H   0  0  0  0  0
    2.4802    2.8266   -3.8846 H   0  0  0  0  0
   -2.0377    1.5246   -2.4558 H   0  0  0  0  0
   -1.0873   -2.5922   -1.6347 C   0  0  0  0  0
   -0.8781   -2.4732   -0.5678 H   0  0  0  0  0
   -0.2269   -2.2510   -2.2192 H   0  0  0  0  0
   -1.1875   -3.6656   -1.8313 H   0  0  0  0  0
   -5.8259   -1.7936   -2.9113 C   0  0  0  0  0
   -6.3140   -2.2422   -2.0437 H   0  0  0  0  0
   -5.8768   -2.5004   -3.7442 H   0  0  0  0  0
   -6.3311   -0.8636   -3.1813 H   0  0  0  0  0
  1  2  2  0  0  0
  2  3  1  0  0  0
  2  8  1  0  0  0
  3  4  1  0  0  0
  3 38  1  0  0  0
  4  5  2  0  0  0
  4  7  1  0  0  0
  5  6  1  0  0  0
  7  8  1  0  0  0
  7 34  1  0  0  0
  8  9  2  0  0  0
  9 10  1  0  0  0
  9 33  1  0  0  0
 10 11  1  0  0  0
 10 22  2  0  0  0
 11 12  2  0  0  0
 11 16  1  0  0  0
 12 13  1  0  0  0
 12 21  1  0  0  0
 13 14  2  0  0  0
 13 20  1  0  0  0
 14 15  1  0  0  0
 14 19  1  0  0  0
 15 16  2  0  0  0
 15 18  1  0  0  0
 16 17  1  0  0  0
 21 22  1  0  0  0
 21 24  1  0  0  0
 22 23  1  0  0  0
 24 25  2  0  0  0
 24 26  1  0  0  0
 26 27  1  0  0  0
 26 31  1  0  0  0
 26 32  1  0  0  0
 27 28  1  0  0  0
 27 29  1  0  0  0
 27 30  1  0  0  0
 34 35  1  0  0  0
 34 36  1  0  0  0
 34 37  1  0  0  0
 38 39  1  0  0  0
 38 40  1  0  0  0
 38 41  1  0  0  0
M  END
> <Tumorigenic>
none

> <Score>
34.03813

> <Active/Decoy>
active

> <InChI>
InChI=1S/C17H18N4O2/c1-4-15(22)21-10-11(12-7-5-6-8-13(12)21)9-14-16(23)20(3)17(18)19(14)2/h5-10,18H,4H2,1-3H3/b14-9+,18-17+

> <Matching Features>
H:14924486185440016873||HBA:14924321692640012300|HBA:14924486112070016868

> <Mol. Index>
444

> <Pharmacophore Match>
Model -1

> <# Confs.>
25

> <Source Database>
Pharm-Screening-input-NANPDB_After_DataWarror.ldb

> <Pharmacophore-Fit Score>
34.04

> <formula>
C17H18N4O2

> <Mutagenic>
none

> <Reproductive Effective>
none

> <Irritant>
none

$$$$
l-cyclocapillarol
XX    ILIB03122402133D

 37 38  0  0  1  0              1 V2000
   -6.2999    0.9289   -4.0310 O   0  0  0  0  0
   -5.1794    1.0134   -4.5145 C   0  0  0  0  0
   -4.8736    1.1226   -5.8306 O   0  0  0  0  0
   -5.9963    1.1378   -6.7186 C   0  0  0  0  0
   -6.5426    0.1928   -6.6513 H   0  0  0  0  0
   -5.6208    1.2549   -7.7381 H   0  0  0  0  0
   -6.6511    1.9819   -6.4860 H   0  0  0  0  0
   -3.9655    1.0074   -3.6754 C   0  0  0  0  0
   -3.9980    0.9040   -2.3240 C   0  0  0  0  0
   -2.7806    0.9067   -1.4915 C   0  0  0  0  0
   -1.5134    0.5931   -1.9834 C   0  0  0  0  0
   -0.4369    0.6110   -1.1125 C   0  0  0  0  0
   -0.6081    0.9103    0.2276 C   0  0  0  0  0
    0.5543    0.8587    0.9532 O   0  0  0  0  0
    1.5996    0.7865   -0.0567 C   0  0  1  0  0
    2.7548   -0.0904    0.4696 C   0  0  1  0  0
    3.8904   -0.2160   -0.5297 C   0  0  0  0  0
    4.4199    1.0735   -0.8193 O   0  0  0  0  0
    4.7069    1.4655    0.0219 H   0  0  0  0  0
    4.7070   -0.8332   -0.1413 H   0  0  0  0  0
    3.5388   -0.6481   -1.4728 H   0  0  0  0  0
    3.2702    0.3645    1.8398 C   0  0  0  0  0
    3.6888    1.3749    1.8078 H   0  0  0  0  0
    2.4679    0.3568    2.5844 H   0  0  0  0  0
    4.0552   -0.3106    2.1979 H   0  0  0  0  0
    2.3534   -1.1046    0.6019 H   0  0  0  0  0
    0.9774    0.2496   -1.3585 C   0  0  0  0  0
    1.0804   -0.8368   -1.4527 H   0  0  0  0  0
    1.3969    0.7421   -2.2402 H   0  0  0  0  0
    1.9550    1.8152   -0.2152 H   0  0  0  0  0
   -1.8461    1.2131    0.7525 C   0  0  0  0  0
   -2.9413    1.2117   -0.1172 C   0  0  0  0  0
   -3.9221    1.4539    0.2881 H   0  0  0  0  0
   -1.9740    1.4481    1.8033 H   0  0  0  0  0
   -1.3525    0.3233   -3.0227 H   0  0  0  0  0
   -4.9327    0.8283   -1.8060 H   0  0  0  0  0
   -3.0324    1.0867   -4.2256 H   0  0  0  0  0
  1  2  2  0  0  0
  2  3  1  0  0  0
  2  8  1  0  0  0
  3  4  1  0  0  0
  4  5  1  0  0  0
  4  6  1  0  0  0
  4  7  1  0  0  0
  8  9  2  0  0  0
  8 37  1  0  0  0
  9 10  1  0  0  0
  9 36  1  0  0  0
 10 11  2  0  0  0
 10 32  1  0  0  0
 11 12  1  0  0  0
 11 35  1  0  0  0
 12 13  2  0  0  0
 12 27  1  0  0  0
 13 14  1  0  0  0
 13 31  1  0  0  0
 14 15  1  0  0  0
 15 16  1  0  0  0
 15 27  1  0  0  0
 15 30  1  0  0  0
 16 17  1  0  0  0
 16 22  1  0  0  0
 16 26  1  0  0  0
 17 18  1  0  0  0
 17 20  1  0  0  0
 17 21  1  0  0  0
 18 19  1  0  0  0
 22 23  1  0  0  0
 22 24  1  0  0  0
 22 25  1  0  0  0
 27 28  1  0  0  0
 27 29  1  0  0  0
 31 32  2  0  0  0
 31 34  1  0  0  0
 32 33  1  0  0  0
M  END
> <Tumorigenic>
none

> <Score>
34.044117

> <Active/Decoy>
active

> <InChI>
InChI=1S/C15H18O4/c1-10(9-16)14-8-12-7-11(3-5-13(12)19-14)4-6-15(17)18-2/h3-7,10,14,16H,8-9H2,1-2H3/b6-4+/t10-,14-/m1/s1

> <Matching Features>
H:14924486185440016873||HBA:14924321692640012300|HBA:14924486112070016868

> <Mol. Index>
427

> <Pharmacophore Match>
Model -1

> <# Confs.>
25

> <Source Database>
Pharm-Screening-input-NANPDB_After_DataWarror.ldb

> <Pharmacophore-Fit Score>
34.04

> <formula>
C15H18O4

> <Mutagenic>
none

> <Reproductive Effective>
none

> <Irritant>
none

$$$$
hierochin A
XX    ILIB03122402133D

 48 50  0  0  1  0              1 V2000
   -2.0368   -1.9048   -2.1480 O   0  0  0  0  0
   -1.0986   -1.4656   -1.2514 C   0  0  0  0  0
   -0.8650   -2.0265   -0.0144 C   0  0  0  0  0
   -1.5760   -3.1219    0.3747 O   0  0  0  0  0
   -1.2696   -3.3918    1.2581 H   0  0  0  0  0
    0.1371   -1.4823    0.7909 C   0  0  0  0  0
    0.8486   -0.3470    0.3774 C   0  0  0  0  0
    1.8889    0.1776    1.2744 C   0  0  0  0  0
    3.1966    0.3258    1.0230 C   0  0  0  0  0
    3.9602   -0.0883   -0.1922 C   0  0  0  0  0
    4.5649    1.0688   -0.7584 O   0  0  0  0  0
    5.3203    0.7805   -1.9283 C   0  0  0  0  0
    4.6789    0.3851   -2.7215 H   0  0  0  0  0
    6.1201    0.0715   -1.7010 H   0  0  0  0  0
    5.7710    1.7122   -2.2822 H   0  0  0  0  0
    4.7391   -0.8039    0.0964 H   0  0  0  0  0
    3.3050   -0.5604   -0.9343 H   0  0  0  0  0
    3.8024    0.7576    1.8189 H   0  0  0  0  0
    1.5197    0.5123    2.2459 H   0  0  0  0  0
    0.5706    0.2333   -0.8765 C   0  0  0  0  0
   -0.3994   -0.3482   -1.6801 C   0  0  0  0  0
   -0.9353    0.0894   -3.0016 C   0  0  2  0  0
   -1.7118   -1.1971   -3.3744 C   0  0  2  0  0
   -2.9660   -0.9188   -4.1568 C   0  0  0  0  0
   -3.9897   -0.1353   -3.5965 C   0  0  0  0  0
   -5.1623    0.1260   -4.3152 C   0  0  0  0  0
   -6.2110    0.8758   -3.8624 O   0  0  0  0  0
   -6.0564    1.4102   -2.5495 C   0  0  0  0  0
   -5.9657    0.6106   -1.8060 H   0  0  0  0  0
   -5.2036    2.0940   -2.4992 H   0  0  0  0  0
   -6.9590    1.9835   -2.3167 H   0  0  0  0  0
   -5.2969   -0.4062   -5.6012 C   0  0  0  0  0
   -6.4145   -0.1701   -6.3516 O   0  0  0  0  0
   -7.0047    0.4122   -5.8431 H   0  0  0  0  0
   -4.2964   -1.1950   -6.1636 C   0  0  0  0  0
   -3.1331   -1.4528   -5.4396 C   0  0  0  0  0
   -2.3584   -2.0714   -5.8851 H   0  0  0  0  0
   -4.4120   -1.6075   -7.1608 H   0  0  0  0  0
   -3.8425    0.2630   -2.5951 H   0  0  0  0  0
   -1.0868   -1.8972   -3.9473 H   0  0  0  0  0
    0.1063    0.5151   -4.0220 C   0  0  0  0  0
   -0.5383    0.9034   -5.2314 O   0  0  0  0  0
   -1.1587    1.6190   -5.0125 H   0  0  0  0  0
    0.6965    1.3667   -3.6694 H   0  0  0  0  0
    0.7841   -0.3110   -4.2591 H   0  0  0  0  0
   -1.6219    0.9271   -2.8220 H   0  0  0  0  0
    1.0980    1.1140   -1.2294 H   0  0  0  0  0
    0.3302   -1.9215    1.7686 H   0  0  0  0  0
  1  2  1  0  0  0
  1 23  1  0  0  0
  2  3  2  0  0  0
  2 21  1  0  0  0
  3  4  1  0  0  0
  3  6  1  0  0  0
  4  5  1  0  0  0
  6  7  2  0  0  0
  6 48  1  0  0  0
  7  8  1  0  0  0
  7 20  1  0  0  0
  8  9  2  0  0  0
  8 19  1  0  0  0
  9 10  1  0  0  0
  9 18  1  0  0  0
 10 11  1  0  0  0
 10 16  1  0  0  0
 10 17  1  0  0  0
 11 12  1  0  0  0
 12 13  1  0  0  0
 12 14  1  0  0  0
 12 15  1  0  0  0
 20 21  2  0  0  0
 20 47  1  0  0  0
 21 22  1  0  0  0
 22 23  1  0  0  0
 22 41  1  0  0  0
 22 46  1  0  0  0
 23 24  1  0  0  0
 23 40  1  0  0  0
 24 25  2  0  0  0
 24 36  1  0  0  0
 25 26  1  0  0  0
 25 39  1  0  0  0
 26 27  1  0  0  0
 26 32  2  0  0  0
 27 28  1  0  0  0
 28 29  1  0  0  0
 28 30  1  0  0  0
 28 31  1  0  0  0
 32 33  1  0  0  0
 32 35  1  0  0  0
 33 34  1  0  0  0
 35 36  2  0  0  0
 35 38  1  0  0  0
 36 37  1  0  0  0
 41 42  1  0  0  0
 41 44  1  0  0  0
 41 45  1  0  0  0
 42 43  1  0  0  0
M  END
> <Tumorigenic>
none

> <Score>
34.023552

> <Active/Decoy>
active

> <InChI>
InChI=1S/C20H22O6/c1-24-7-3-4-12-8-14-15(11-21)19(26-20(14)17(23)9-12)13-5-6-16(22)18(10-13)25-2/h3-6,8-10,15,19,21-23H,7,11H2,1-2H3/b4-3+/t15-,19+/m1/s1

> <Matching Features>
H:14924486185440016873||HBA:14924321692640012300|HBA:14924486112070016868

> <Mol. Index>
255

> <Pharmacophore Match>
Model -1

> <# Confs.>
25

> <Source Database>
Pharm-Screening-input-NANPDB_After_DataWarror.ldb

> <Pharmacophore-Fit Score>
34.02

> <formula>
C20H22O6

> <Mutagenic>
none

> <Reproductive Effective>
none

> <Irritant>
none

$$$$
15S,16-dihydroxy-7-oxopimar-8(9)-ene
XX    ILIB03122402133D

 55 57  0  0  1  0              1 V2000
    3.2733    1.5665   -2.4907 O   0  0  0  0  0
    3.0347    0.8057   -1.5533 C   0  0  0  0  0
    1.6365    0.4879   -1.1678 C   0  0  0  0  0
    1.3998   -0.2655   -0.0759 C   0  0  0  0  0
    2.5042   -0.7528    0.9121 C   0  0  2  0  0
    3.8898   -0.0238    0.6757 C   0  0  1  0  0
    5.1462   -0.6740    1.4035 C   0  0  0  0  0
    5.1631   -2.2043    1.1948 C   0  0  0  0  0
    3.8364   -2.8814    1.5142 C   0  0  0  0  0
    2.6790   -2.2817    0.7232 C   0  0  0  0  0
    2.8325   -2.5085   -0.3400 H   0  0  0  0  0
    1.7672   -2.8155    1.0149 H   0  0  0  0  0
    3.9170   -3.9477    1.2724 H   0  0  0  0  0
    3.6285   -2.8346    2.5892 H   0  0  0  0  0
    5.4194   -2.4334    0.1521 H   0  0  0  0  0
    5.9529   -2.6595    1.8068 H   0  0  0  0  0
    5.1824   -0.3466    2.9168 C   0  0  0  0  0
    4.5643   -1.0125    3.5190 H   0  0  0  0  0
    6.1937   -0.4645    3.3267 H   0  0  0  0  0
    4.8791    0.6878    3.1081 H   0  0  0  0  0
    6.4858   -0.1157    0.8523 C   0  0  0  0  0
    7.3419   -0.4886    1.4275 H   0  0  0  0  0
    6.6680   -0.4225   -0.1846 H   0  0  0  0  0
    6.5058    0.9786    0.8999 H   0  0  0  0  0
    4.1508    0.1041   -0.8365 C   0  0  0  0  0
    4.3094   -0.8676   -1.3150 H   0  0  0  0  0
    5.0357    0.7215   -1.0174 H   0  0  0  0  0
    3.7881    1.0050    1.0531 H   0  0  0  0  0
    1.9910   -0.4487    2.3426 C   0  0  0  0  0
    1.0525   -0.9696    2.5624 H   0  0  0  0  0
    2.6651   -0.7750    3.1275 H   0  0  0  0  0
    1.8175    0.6250    2.4789 H   0  0  0  0  0
   -0.0359   -0.6773    0.2343 C   0  0  0  0  0
   -1.0401   -0.4597   -0.9005 C   0  0  0  0  0
   -0.8813    0.9231   -1.5890 C   0  0  2  0  0
   -1.8587    1.0340   -2.7525 C   0  0  1  0  0
   -1.5446   -0.0670   -3.6419 O   0  0  0  0  0
   -2.1518   -0.0060   -4.3993 H   0  0  0  0  0
   -3.3253    0.9088   -2.3793 C   0  0  0  0  0
   -4.1318    1.0218   -3.5475 O   0  0  0  0  0
   -3.8527    0.3223   -4.1624 H   0  0  0  0  0
   -3.5509   -0.0540   -1.9082 H   0  0  0  0  0
   -3.6180    1.7125   -1.6968 H   0  0  0  0  0
   -1.6602    1.9399   -3.3276 H   0  0  0  0  0
    0.5726    1.0098   -2.1029 C   0  0  0  0  0
    0.6633    0.4557   -3.0417 H   0  0  0  0  0
    0.7864    2.0664   -2.3445 H   0  0  0  0  0
   -1.1473    2.0569   -0.5699 C   0  0  0  0  0
   -2.1304    1.9518   -0.0993 H   0  0  0  0  0
   -0.4039    2.0843    0.2329 H   0  0  0  0  0
   -1.1161    3.0365   -1.0605 H   0  0  0  0  0
   -2.0535   -0.5866   -0.5010 H   0  0  0  0  0
   -0.9018   -1.2531   -1.6475 H   0  0  0  0  0
   -0.3856   -0.1180    1.1100 H   0  0  0  0  0
   -0.0759   -1.7389    0.5002 H   0  0  0  0  0
  1  2  2  0  0  0
  2  3  1  0  0  0
  2 25  1  0  0  0
  3  4  2  0  0  0
  3 45  1  0  0  0
  4  5  1  0  0  0
  4 33  1  0  0  0
  5  6  1  0  0  0
  5 10  1  0  0  0
  5 29  1  0  0  0
  6  7  1  0  0  0
  6 25  1  0  0  0
  6 28  1  0  0  0
  7  8  1  0  0  0
  7 17  1  0  0  0
  7 21  1  0  0  0
  8  9  1  0  0  0
  8 15  1  0  0  0
  8 16  1  0  0  0
  9 10  1  0  0  0
  9 13  1  0  0  0
  9 14  1  0  0  0
 10 11  1  0  0  0
 10 12  1  0  0  0
 17 18  1  0  0  0
 17 19  1  0  0  0
 17 20  1  0  0  0
 21 22  1  0  0  0
 21 23  1  0  0  0
 21 24  1  0  0  0
 25 26  1  0  0  0
 25 27  1  0  0  0
 29 30  1  0  0  0
 29 31  1  0  0  0
 29 32  1  0  0  0
 33 34  1  0  0  0
 33 54  1  0  0  0
 33 55  1  0  0  0
 34 35  1  0  0  0
 34 52  1  0  0  0
 34 53  1  0  0  0
 35 36  1  0  0  0
 35 45  1  0  0  0
 35 48  1  0  0  0
 36 37  1  0  0  0
 36 39  1  0  0  0
 36 44  1  0  0  0
 37 38  1  0  0  0
 39 40  1  0  0  0
 39 42  1  0  0  0
 39 43  1  0  0  0
 40 41  1  0  0  0
 45 46  1  0  0  0
 45 47  1  0  0  0
 48 49  1  0  0  0
 48 50  1  0  0  0
 48 51  1  0  0  0
M  END
> <Tumorigenic>
none

> <Score>
34.00932

> <Active/Decoy>
active

> <InChI>
InChI=1S/C20H32O3/c1-18(2)7-5-8-20(4)14-6-9-19(3,17(23)12-21)11-13(14)15(22)10-16(18)20/h16-17,21,23H,5-12H2,1-4H3/t16-,17+,19+,20-/m1/s1

> <Matching Features>
H:14924486185440016873||HBA:14924321692640012300|HBA:14924486112070016868

> <Mol. Index>
1340

> <Pharmacophore Match>
Model -1

> <# Confs.>
17

> <Source Database>
Pharm-Screening-input-NANPDB_After_DataWarror.ldb

> <Pharmacophore-Fit Score>
34.01

> <formula>
C20H32O3

> <Mutagenic>
none

> <Reproductive Effective>
none

> <Irritant>
none

$$$$
apigenin 7-(6"-methylglucuronide)
XX    ILIB03122402133D

 53 56  0  0  1  0              1 V2000
    3.8213    2.0481   -2.3416 O   0  0  0  0  0
    2.9560    1.3691   -1.8054 C   0  0  0  0  0
    1.6743    1.0457   -2.4626 C   0  0  0  0  0
    0.7579    0.2661   -1.7574 C   0  0  0  0  0
    0.9930   -0.2144   -0.4930 O   0  0  0  0  0
    2.1970    0.0875    0.1249 C   0  0  0  0  0
    3.1583    0.8292   -0.4458 C   0  0  0  0  0
    4.1011    1.0654    0.0353 H   0  0  0  0  0
    2.3384   -0.4839    1.4787 C   0  0  0  0  0
    1.2090   -0.6934    2.2910 C   0  0  0  0  0
    1.3318   -1.2308    3.5750 C   0  0  0  0  0
    2.5893   -1.5654    4.0640 C   0  0  0  0  0
    2.7426   -2.0911    5.3134 O   0  0  0  0  0
    1.8677   -2.1572    5.7339 H   0  0  0  0  0
    3.7232   -1.3674    3.2831 C   0  0  0  0  0
    3.5975   -0.8295    2.0016 C   0  0  0  0  0
    4.5069   -0.6852    1.4220 H   0  0  0  0  0
    4.7073   -1.6292    3.6637 H   0  0  0  0  0
    0.4411   -1.3834    4.1792 H   0  0  0  0  0
    0.2105   -0.4455    1.9377 H   0  0  0  0  0
   -0.4737   -0.0680   -2.3260 C   0  0  0  0  0
   -0.8077    0.3770   -3.6045 C   0  0  0  0  0
   -2.0345   -0.0018   -4.0589 O   0  0  0  0  0
   -2.6657    0.8780   -4.9882 C   0  0  2  0  0
   -2.9173    2.1794   -4.4340 O   0  0  0  0  0
   -3.7469    2.2324   -3.2722 C   0  0  2  0  0
   -2.8508    2.3670   -2.0726 C   0  0  0  0  0
   -2.8993    1.6217   -1.1023 O   0  0  0  0  0
   -2.0225    3.4374   -2.2218 O   0  0  0  0  0
   -1.1400    3.6832   -1.1217 C   0  0  0  0  0
   -0.4894    2.8194   -0.9561 H   0  0  0  0  0
   -0.5196    4.5476   -1.3695 H   0  0  0  0  0
   -1.7167    3.9103   -0.2201 H   0  0  0  0  0
   -4.7290    1.0605   -3.1516 C   0  0  1  0  0
   -5.8654    1.4963   -2.4024 O   0  0  0  0  0
   -6.4937    0.7546   -2.3703 H   0  0  0  0  0
   -5.1892    0.6001   -4.5274 C   0  0  2  0  0
   -6.0232   -0.5488   -4.3702 O   0  0  0  0  0
   -6.3161   -0.8207   -5.2571 H   0  0  0  0  0
   -4.0054    0.2384   -5.4274 C   0  0  1  0  0
   -4.3130    0.6893   -6.7501 O   0  0  0  0  0
   -4.3492    1.6613   -6.7305 H   0  0  0  0  0
   -3.8879   -0.8493   -5.4979 H   0  0  0  0  0
   -5.8212    1.3740   -4.9821 H   0  0  0  0  0
   -4.2892    0.2250   -2.5934 H   0  0  0  0  0
   -4.2939    3.1819   -3.3373 H   0  0  0  0  0
   -2.0568    1.0186   -5.8709 H   0  0  0  0  0
    0.1117    1.1530   -4.3216 C   0  0  0  0  0
    1.3449    1.4864   -3.7491 C   0  0  0  0  0
    2.1760    2.2514   -4.5207 O   0  0  0  0  0
    3.0002    2.4195   -4.0351 H   0  0  0  0  0
   -0.1092    1.5138   -5.3224 H   0  0  0  0  0
   -1.1794   -0.6768   -1.7645 H   0  0  0  0  0
  1  2  2  0  0  0
  2  3  1  0  0  0
  2  7  1  0  0  0
  3  4  2  0  0  0
  3 49  1  0  0  0
  4  5  1  0  0  0
  4 21  1  0  0  0
  5  6  1  0  0  0
  6  7  2  0  0  0
  6  9  1  0  0  0
  7  8  1  0  0  0
  9 10  2  0  0  0
  9 16  1  0  0  0
 10 11  1  0  0  0
 10 20  1  0  0  0
 11 12  2  0  0  0
 11 19  1  0  0  0
 12 13  1  0  0  0
 12 15  1  0  0  0
 13 14  1  0  0  0
 15 16  2  0  0  0
 15 18  1  0  0  0
 16 17  1  0  0  0
 21 22  2  0  0  0
 21 53  1  0  0  0
 22 23  1  0  0  0
 22 48  1  0  0  0
 23 24  1  0  0  0
 24 25  1  0  0  0
 24 40  1  0  0  0
 24 47  1  0  0  0
 25 26  1  0  0  0
 26 27  1  0  0  0
 26 34  1  0  0  0
 26 46  1  0  0  0
 27 28  2  0  0  0
 27 29  1  0  0  0
 29 30  1  0  0  0
 30 31  1  0  0  0
 30 32  1  0  0  0
 30 33  1  0  0  0
 34 35  1  0  0  0
 34 37  1  0  0  0
 34 45  1  0  0  0
 35 36  1  0  0  0
 37 38  1  0  0  0
 37 40  1  0  0  0
 37 44  1  0  0  0
 38 39  1  0  0  0
 40 41  1  0  0  0
 40 43  1  0  0  0
 41 42  1  0  0  0
 48 49  2  0  0  0
 48 52  1  0  0  0
 49 50  1  0  0  0
 50 51  1  0  0  0
M  END
> <Tumorigenic>
none

> <Score>
34.01333

> <Active/Decoy>
active

> <InChI>
InChI=1S/C22H20O11/c1-30-21(29)20-18(27)17(26)19(28)22(33-20)31-11-6-12(24)16-13(25)8-14(32-15(16)7-11)9-2-4-10(23)5-3-9/h2-8,17-20,22-24,26-28H,1H3/t17-,18-,19+,20-,22+/m0/s1

> <Matching Features>
H:14924486185440016873||HBA:14924321692640012300|HBA:14924486112070016868

> <Mol. Index>
1059

> <Pharmacophore Match>
Model -1

> <# Confs.>
25

> <Source Database>
Pharm-Screening-input-NANPDB_After_DataWarror.ldb

> <Pharmacophore-Fit Score>
34.01

> <formula>
C22H20O11

> <Mutagenic>
none

> <Reproductive Effective>
none

> <Irritant>
none

$$$$
4beta,9alpha-dihydroxy-6alpha-p-hydroxybenzoyldauc-7-ene
XX    ILIB03122402133D

 57 59  0  0  1  0              1 V2000
   -0.2280   -0.7892   -2.1706 O   0  0  0  0  0
   -0.6739    0.2956   -2.4868 C   0  0  0  0  0
   -0.0200    1.4745   -2.4938 O   0  0  0  0  0
    1.3522    1.4567   -2.0850 C   0  0  2  0  0
    1.4855    1.6788   -0.5522 C   0  0  1  0  0
    2.9290    1.5109    0.0398 C   0  0  2  0  0
    3.8738    1.0414   -0.9183 O   0  0  0  0  0
    3.6280    0.1371   -1.1672 H   0  0  0  0  0
    2.9434    0.5610    1.2522 C   0  0  0  0  0
    2.5768   -0.8816    0.8916 C   0  0  0  0  0
    3.2893   -1.3159    0.1835 H   0  0  0  0  0
    2.5755   -1.5113    1.7875 H   0  0  0  0  0
    1.5773   -0.9393    0.4496 H   0  0  0  0  0
    4.3032    0.5873    1.9562 C   0  0  0  0  0
    4.5711    1.6091    2.2456 H   0  0  0  0  0
    5.0983    0.1927    1.3163 H   0  0  0  0  0
    4.2756   -0.0202    2.8664 H   0  0  0  0  0
    2.1950    0.9226    1.9703 H   0  0  0  0  0
    3.3314    2.9349    0.4332 C   0  0  0  0  0
    2.0501    3.5616    0.9498 C   0  0  0  0  0
    0.9307    3.0263    0.0278 C   0  0  1  0  0
    0.5100    4.0883   -1.0137 C   0  0  0  0  0
    1.5835    4.6499   -1.9512 C   0  0  2  0  0
    0.9448    5.6752   -2.7276 O   0  0  0  0  0
    0.6613    6.3744   -2.1143 H   0  0  0  0  0
    2.2631    3.7122   -2.9194 C   0  0  0  0  0
    2.1224    2.3771   -2.9764 C   0  0  0  0  0
    2.6649    1.8493   -3.7606 H   0  0  0  0  0
    3.2024    4.3847   -3.8937 C   0  0  0  0  0
    3.7655    3.6667   -4.4988 H   0  0  0  0  0
    3.9335    4.9942   -3.3514 H   0  0  0  0  0
    2.6503    5.0331   -4.5819 H   0  0  0  0  0
    2.3574    5.1521   -1.3615 H   0  0  0  0  0
   -0.3403    3.7312   -1.6089 H   0  0  0  0  0
    0.0868    4.9450   -0.4673 H   0  0  0  0  0
   -0.3196    2.7370    0.8918 C   0  0  0  0  0
   -1.1328    2.3274    0.2824 H   0  0  0  0  0
   -0.6869    3.6491    1.3762 H   0  0  0  0  0
   -0.1012    2.0119    1.6831 H   0  0  0  0  0
    1.8905    3.2510    1.9903 H   0  0  0  0  0
    2.1130    4.6547    0.9601 H   0  0  0  0  0
    3.7201    3.4837   -0.4309 H   0  0  0  0  0
    4.1258    2.9689    1.1865 H   0  0  0  0  0
    0.8670    0.8817   -0.1162 H   0  0  0  0  0
    1.7300    0.4469   -2.2871 H   0  0  0  0  0
   -2.0788    0.4995   -2.9153 C   0  0  0  0  0
   -2.9351   -0.6078   -2.9803 C   0  0  0  0  0
   -4.2567   -0.4490   -3.3990 C   0  0  0  0  0
   -4.7214    0.8186   -3.7429 C   0  0  0  0  0
   -6.0142    1.0085   -4.1431 O   0  0  0  0  0
   -6.4721    0.1526   -4.1209 H   0  0  0  0  0
   -3.8778    1.9245   -3.6868 C   0  0  0  0  0
   -2.5534    1.7663   -3.2743 C   0  0  0  0  0
   -1.9192    2.6467   -3.2334 H   0  0  0  0  0
   -4.2434    2.9113   -3.9573 H   0  0  0  0  0
   -4.9124   -1.3139   -3.4446 H   0  0  0  0  0
   -2.5851   -1.6068   -2.7334 H   0  0  0  0  0
  1  2  2  0  0  0
  2  3  1  0  0  0
  2 46  1  0  0  0
  3  4  1  0  0  0
  4  5  1  0  0  0
  4 27  1  0  0  0
  4 45  1  0  0  0
  5  6  1  0  0  0
  5 21  1  0  0  0
  5 44  1  0  0  0
  6  7  1  0  0  0
  6  9  1  0  0  0
  6 19  1  0  0  0
  7  8  1  0  0  0
  9 10  1  0  0  0
  9 14  1  0  0  0
  9 18  1  0  0  0
 10 11  1  0  0  0
 10 12  1  0  0  0
 10 13  1  0  0  0
 14 15  1  0  0  0
 14 16  1  0  0  0
 14 17  1  0  0  0
 19 20  1  0  0  0
 19 42  1  0  0  0
 19 43  1  0  0  0
 20 21  1  0  0  0
 20 40  1  0  0  0
 20 41  1  0  0  0
 21 22  1  0  0  0
 21 36  1  0  0  0
 22 23  1  0  0  0
 22 34  1  0  0  0
 22 35  1  0  0  0
 23 24  1  0  0  0
 23 26  1  0  0  0
 23 33  1  0  0  0
 24 25  1  0  0  0
 26 27  2  0  0  0
 26 29  1  0  0  0
 27 28  1  0  0  0
 29 30  1  0  0  0
 29 31  1  0  0  0
 29 32  1  0  0  0
 36 37  1  0  0  0
 36 38  1  0  0  0
 36 39  1  0  0  0
 46 47  2  0  0  0
 46 53  1  0  0  0
 47 48  1  0  0  0
 47 57  1  0  0  0
 48 49  2  0  0  0
 48 56  1  0  0  0
 49 50  1  0  0  0
 49 52  1  0  0  0
 50 51  1  0  0  0
 52 53  2  0  0  0
 52 55  1  0  0  0
 53 54  1  0  0  0
M  END
> <Tumorigenic>
none

> <Score>
33.90789

> <Active/Decoy>
active

> <InChI>
InChI=1S/C22H30O5/c1-13(2)22(26)10-9-21(4)12-17(24)14(3)11-18(19(21)22)27-20(25)15-5-7-16(23)8-6-15/h5-8,11,13,17-19,23-24,26H,9-10,12H2,1-4H3/t17-,18-,19+,21-,22+/m0/s1

> <Matching Features>
H:14924486185440016873||HBA:14924321692640012300|HBA:14924486112070016868

> <Mol. Index>
924

> <Pharmacophore Match>
Model -1

> <# Confs.>
25

> <Source Database>
Pharm-Screening-input-NANPDB_After_DataWarror.ldb

> <Pharmacophore-Fit Score>
33.91

> <formula>
C22H30O5

> <Mutagenic>
none

> <Reproductive Effective>
none

> <Irritant>
none

$$$$
kaempferol 3-O-alpha-arabinoside
XX    ILIB03122402133D

 48 51  0  0  1  0              1 V2000
   -1.7517    1.3170   -2.5741 O   0  0  0  0  0
   -1.9213    0.6818   -1.5424 C   0  0  0  0  0
   -0.8384    0.5653   -0.5312 C   0  0  0  0  0
    0.3470    1.2061   -0.7420 O   0  0  0  0  0
    1.0381    0.8483   -1.9344 C   0  0  2  0  0
    1.3749   -0.5443   -1.9219 O   0  0  0  0  0
    2.0809   -0.9605   -3.0926 C   0  0  0  0  0
    3.4163   -0.2328   -3.1947 C   0  0  2  0  0
    4.2445   -0.6430   -2.1058 O   0  0  0  0  0
    3.7536   -0.4996   -1.2798 H   0  0  0  0  0
    3.2042    1.2797   -3.1586 C   0  0  2  0  0
    4.4611    1.9463   -3.0848 O   0  0  0  0  0
    4.9103    1.6384   -2.2792 H   0  0  0  0  0
    2.3150    1.6990   -1.9871 C   0  0  1  0  0
    1.9654    3.0760   -2.1320 O   0  0  0  0  0
    1.4515    3.1704   -2.9521 H   0  0  0  0  0
    2.8663    1.6210   -1.0429 H   0  0  0  0  0
    2.7379    1.6009   -4.0976 H   0  0  0  0  0
    3.9427   -0.5187   -4.1102 H   0  0  0  0  0
    2.2445   -2.0388   -2.9984 H   0  0  0  0  0
    1.4573   -0.7836   -3.9761 H   0  0  0  0  0
    0.4064    1.0711   -2.8072 H   0  0  0  0  0
   -1.0484   -0.2347    0.5461 C   0  0  0  0  0
   -2.2364   -0.9026    0.7977 O   0  0  0  0  0
   -3.2831   -0.7526   -0.0740 C   0  0  0  0  0
   -3.2047    0.0173   -1.2344 C   0  0  0  0  0
   -4.3254    0.1177   -2.0683 C   0  0  0  0  0
   -4.2784    0.8733   -3.2088 O   0  0  0  0  0
   -5.1434    0.8292   -3.6516 H   0  0  0  0  0
   -5.5104   -0.5492   -1.7452 C   0  0  0  0  0
   -5.5679   -1.3162   -0.5863 C   0  0  0  0  0
   -4.4627   -1.4236    0.2538 C   0  0  0  0  0
   -4.5138   -2.0245    1.1575 H   0  0  0  0  0
   -6.7379   -1.9604   -0.2958 O   0  0  0  0  0
   -6.6234   -2.4523    0.5350 H   0  0  0  0  0
   -6.3804   -0.4725   -2.3910 H   0  0  0  0  0
   -0.0301   -0.4659    1.5882 C   0  0  0  0  0
    0.4780    0.6043    2.3465 C   0  0  0  0  0
    1.4421    0.3969    3.3361 C   0  0  0  0  0
    1.9090   -0.8896    3.5833 C   0  0  0  0  0
    2.8510   -1.1246    4.5438 O   0  0  0  0  0
    3.0906   -0.2767    4.9556 H   0  0  0  0  0
    1.4233   -1.9672    2.8523 C   0  0  0  0  0
    0.4599   -1.7558    1.8628 C   0  0  0  0  0
    0.0992   -2.6227    1.3140 H   0  0  0  0  0
    1.7788   -2.9773    3.0463 H   0  0  0  0  0
    1.8167    1.2440    3.9039 H   0  0  0  0  0
    0.1357    1.6230    2.1776 H   0  0  0  0  0
  1  2  2  0  0  0
  2  3  1  0  0  0
  2 26  1  0  0  0
  3  4  1  0  0  0
  3 23  2  0  0  0
  4  5  1  0  0  0
  5  6  1  0  0  0
  5 14  1  0  0  0
  5 22  1  0  0  0
  6  7  1  0  0  0
  7  8  1  0  0  0
  7 20  1  0  0  0
  7 21  1  0  0  0
  8  9  1  0  0  0
  8 11  1  0  0  0
  8 19  1  0  0  0
  9 10  1  0  0  0
 11 12  1  0  0  0
 11 14  1  0  0  0
 11 18  1  0  0  0
 12 13  1  0  0  0
 14 15  1  0  0  0
 14 17  1  0  0  0
 15 16  1  0  0  0
 23 24  1  0  0  0
 23 37  1  0  0  0
 24 25  1  0  0  0
 25 26  2  0  0  0
 25 32  1  0  0  0
 26 27  1  0  0  0
 27 28  1  0  0  0
 27 30  2  0  0  0
 28 29  1  0  0  0
 30 31  1  0  0  0
 30 36  1  0  0  0
 31 32  2  0  0  0
 31 34  1  0  0  0
 32 33  1  0  0  0
 34 35  1  0  0  0
 37 38  2  0  0  0
 37 44  1  0  0  0
 38 39  1  0  0  0
 38 48  1  0  0  0
 39 40  2  0  0  0
 39 47  1  0  0  0
 40 41  1  0  0  0
 40 43  1  0  0  0
 41 42  1  0  0  0
 43 44  2  0  0  0
 43 46  1  0  0  0
 44 45  1  0  0  0
M  END
> <Tumorigenic>
none

> <Score>
33.832607

> <Active/Decoy>
active

> <InChI>
InChI=1S/C20H18O10/c21-9-3-1-8(2-4-9)18-19(30-20-17(27)15(25)12(24)7-28-20)16(26)14-11(23)5-10(22)6-13(14)29-18/h1-6,12,15,17,20-25,27H,7H2/t12-,15-,17+,20-/m0/s1

> <Matching Features>
H:14924486185440016873||HBA:14924321692640012300|HBA:14924486112070016868

> <Mol. Index>
149

> <Pharmacophore Match>
Model -1

> <# Confs.>
25

> <Source Database>
Pharm-Screening-input-NANPDB_After_DataWarror.ldb

> <Pharmacophore-Fit Score>
33.83

> <formula>
C20H18O10

> <Mutagenic>
none

> <Reproductive Effective>
none

> <Irritant>
none

$$$$
1-O-acetyl prinsepiol
XX    ILIB03122402133D

 55 58  0  0  1  0              1 V2000
    3.4964    0.7907   -1.6711 O   0  0  0  0  0
    3.0638    1.8475   -1.2295 C   0  0  0  0  0
    1.7768    2.1083   -0.8952 O   0  0  0  0  0
    0.8084    1.0771   -1.1030 C   0  0  1  0  0
   -0.6266    1.3928   -0.7434 C   0  0  1  0  0
   -0.6974    2.2554    0.3822 O   0  0  0  0  0
   -1.6351    2.3928    0.5974 H   0  0  0  0  0
   -1.1956    2.0291   -2.0057 C   0  0  1  0  0
   -0.4244    1.4852   -3.1003 O   0  0  0  0  0
    0.6738    0.7093   -2.5835 C   0  0  0  0  0
    1.5701    0.9413   -3.1668 H   0  0  0  0  0
    0.4213   -0.3437   -2.7469 H   0  0  0  0  0
   -2.6723    1.8459   -2.2320 C   0  0  0  0  0
   -3.1637    0.7530   -2.9704 C   0  0  0  0  0
   -4.5392    0.5838   -3.1727 C   0  0  0  0  0
   -5.1106   -0.4388   -3.8722 O   0  0  0  0  0
   -4.1980   -1.3827   -4.4281 C   0  0  0  0  0
   -3.5318   -0.9047   -5.1560 H   0  0  0  0  0
   -4.7827   -2.1397   -4.9572 H   0  0  0  0  0
   -3.6253   -1.8888   -3.6446 H   0  0  0  0  0
   -5.4203    1.5182   -2.6203 C   0  0  0  0  0
   -6.7731    1.4012   -2.7853 O   0  0  0  0  0
   -6.9442    0.6107   -3.3267 H   0  0  0  0  0
   -4.9515    2.6019   -1.8827 C   0  0  0  0  0
   -3.5811    2.7634   -1.6890 C   0  0  0  0  0
   -3.2277    3.6132   -1.1094 H   0  0  0  0  0
   -5.6445    3.3218   -1.4567 H   0  0  0  0  0
   -2.4479    0.0431   -3.3759 H   0  0  0  0  0
   -1.0108    3.1106   -2.0087 H   0  0  0  0  0
   -1.1840    0.0135   -0.3733 C   0  0  0  0  0
   -0.0938   -0.7671    0.1417 O   0  0  0  0  0
    1.1575   -0.1523   -0.2257 C   0  0  2  0  0
    1.9436    0.1323    1.0259 C   0  0  0  0  0
    1.4333    0.9798    2.0264 C   0  0  0  0  0
    2.1659    1.2361    3.1916 C   0  0  0  0  0
    1.7574    2.0403    4.2180 O   0  0  0  0  0
    0.4819    2.6522    4.0411 C   0  0  0  0  0
    0.4798    3.3138    3.1685 H   0  0  0  0  0
    0.2803    3.2639    4.9246 H   0  0  0  0  0
   -0.3103    1.8999    3.9669 H   0  0  0  0  0
    3.4151    0.6279    3.3492 C   0  0  0  0  0
    4.1733    0.8422    4.4680 O   0  0  0  0  0
    3.6896    1.4568    5.0473 H   0  0  0  0  0
    3.9332   -0.2168    2.3713 C   0  0  0  0  0
    3.1979   -0.4639    1.2130 C   0  0  0  0  0
    3.6119   -1.1265    0.4572 H   0  0  0  0  0
    4.9046   -0.6846    2.5025 H   0  0  0  0  0
    0.4542    1.4259    1.8733 H   0  0  0  0  0
    1.7098   -0.8994   -0.8097 H   0  0  0  0  0
   -1.5739   -0.5352   -1.2278 H   0  0  0  0  0
   -1.9633    0.0584    0.3942 H   0  0  0  0  0
    3.9106    3.0569   -0.9747 C   0  0  0  0  0
    4.9652    2.7666   -0.9575 H   0  0  0  0  0
    3.7504    3.7847   -1.7727 H   0  0  0  0  0
    3.6676    3.4933   -0.0019 H   0  0  0  0  0
  1  2  2  0  0  0
  2  3  1  0  0  0
  2 52  1  0  0  0
  3  4  1  0  0  0
  4  5  1  0  0  0
  4 10  1  0  0  0
  4 32  1  0  0  0
  5  6  1  0  0  0
  5  8  1  0  0  0
  5 30  1  0  0  0
  6  7  1  0  0  0
  8  9  1  0  0  0
  8 13  1  0  0  0
  8 29  1  0  0  0
  9 10  1  0  0  0
 10 11  1  0  0  0
 10 12  1  0  0  0
 13 14  2  0  0  0
 13 25  1  0  0  0
 14 15  1  0  0  0
 14 28  1  0  0  0
 15 16  1  0  0  0
 15 21  2  0  0  0
 16 17  1  0  0  0
 17 18  1  0  0  0
 17 19  1  0  0  0
 17 20  1  0  0  0
 21 22  1  0  0  0
 21 24  1  0  0  0
 22 23  1  0  0  0
 24 25  2  0  0  0
 24 27  1  0  0  0
 25 26  1  0  0  0
 30 31  1  0  0  0
 30 50  1  0  0  0
 30 51  1  0  0  0
 31 32  1  0  0  0
 32 33  1  0  0  0
 32 49  1  0  0  0
 33 34  2  0  0  0
 33 45  1  0  0  0
 34 35  1  0  0  0
 34 48  1  0  0  0
 35 36  1  0  0  0
 35 41  2  0  0  0
 36 37  1  0  0  0
 37 38  1  0  0  0
 37 39  1  0  0  0
 37 40  1  0  0  0
 41 42  1  0  0  0
 41 44  1  0  0  0
 42 43  1  0  0  0
 44 45  2  0  0  0
 44 47  1  0  0  0
 45 46  1  0  0  0
 52 53  1  0  0  0
 52 54  1  0  0  0
 52 55  1  0  0  0
M  END
> <Tumorigenic>
none

> <Score>
33.76877

> <Active/Decoy>
active

> <InChI>
InChI=1S/C22H24O9/c1-12(23)31-22-11-30-19(13-4-6-15(24)17(8-13)27-2)21(22,26)10-29-20(22)14-5-7-16(25)18(9-14)28-3/h4-9,19-20,24-26H,10-11H2,1-3H3/t19-,20+,21-,22-/m0/s1

> <Matching Features>
H:14924486185440016873||HBA:14924321692640012300|HBA:14924486112070016868

> <Mol. Index>
221

> <Pharmacophore Match>
Model -1

> <# Confs.>
25

> <Source Database>
Pharm-Screening-input-NANPDB_After_DataWarror.ldb

> <Pharmacophore-Fit Score>
33.77

> <formula>
C22H24O9

> <Mutagenic>
none

> <Reproductive Effective>
none

> <Irritant>
none

$$$$
(?)-enterodiol
XX    ILIB03122402133D

 44 45  0  0  1  0              1 V2000
    4.9698    1.0966   -0.6955 O   0  0  0  0  0
    3.8392    0.6941   -0.0413 C   0  0  0  0  0
    2.6348    0.6946   -0.7441 C   0  0  0  0  0
    1.4530    0.2933   -0.1087 C   0  0  0  0  0
    1.5073   -0.1183    1.2312 C   0  0  0  0  0
    2.7174   -0.1154    1.9259 C   0  0  0  0  0
    3.8895    0.2930    1.2913 C   0  0  0  0  0
    4.8256    0.2931    1.8389 H   0  0  0  0  0
    2.7484   -0.4339    2.9645 H   0  0  0  0  0
    0.6034   -0.4442    1.7405 H   0  0  0  0  0
    0.1512    0.2747   -0.8593 C   0  0  0  0  0
   -0.1181   -1.0705   -1.5858 C   0  0  1  0  0
   -0.0813   -2.3123   -0.6792 C   0  0  0  0  0
   -0.3487   -3.4730   -1.4425 O   0  0  0  0  0
    0.3202   -3.5121   -2.1473 H   0  0  0  0  0
    0.8892   -2.4333   -0.1918 H   0  0  0  0  0
   -0.8560   -2.2448    0.1059 H   0  0  0  0  0
   -1.3685   -1.0009   -2.4721 C   0  0  2  0  0
   -1.4171    0.2469   -3.3753 C   0  0  0  0  0
   -0.2799    0.2359   -4.2427 O   0  0  0  0  0
   -0.3035   -0.5947   -4.7477 H   0  0  0  0  0
   -2.3105    0.2634   -4.0082 H   0  0  0  0  0
   -1.3741    1.1636   -2.7910 H   0  0  0  0  0
   -2.6745   -1.2444   -1.6632 C   0  0  0  0  0
   -3.9032   -1.3411   -2.5231 C   0  0  0  0  0
   -4.6618   -0.1987   -2.8099 C   0  0  0  0  0
   -5.8088   -0.3029   -3.5978 C   0  0  0  0  0
   -6.5205    0.8345   -3.8582 O   0  0  0  0  0
   -7.2835    0.5994   -4.4123 H   0  0  0  0  0
   -6.2182   -1.5339   -4.1036 C   0  0  0  0  0
   -5.4719   -2.6748   -3.8144 C   0  0  0  0  0
   -4.3224   -2.5804   -3.0273 C   0  0  0  0  0
   -3.7549   -3.4818   -2.8083 H   0  0  0  0  0
   -5.7854   -3.6396   -4.2017 H   0  0  0  0  0
   -7.1094   -1.6160   -4.7169 H   0  0  0  0  0
   -4.3598    0.7699   -2.4197 H   0  0  0  0  0
   -2.5758   -2.1548   -1.0571 H   0  0  0  0  0
   -2.8151   -0.4215   -0.9510 H   0  0  0  0  0
   -1.2956   -1.8675   -3.1437 H   0  0  0  0  0
    0.7180   -1.1821   -2.2868 H   0  0  0  0  0
    0.1283    1.1040   -1.5789 H   0  0  0  0  0
   -0.6611    0.4703   -0.1478 H   0  0  0  0  0
    2.6151    1.0075   -1.7856 H   0  0  0  0  0
    5.7204    1.0397   -0.0778 H   0  0  0  0  0
  1  2  1  0  0  0
  1 44  1  0  0  0
  2  3  2  0  0  0
  2  7  1  0  0  0
  3  4  1  0  0  0
  3 43  1  0  0  0
  4  5  2  0  0  0
  4 11  1  0  0  0
  5  6  1  0  0  0
  5 10  1  0  0  0
  6  7  2  0  0  0
  6  9  1  0  0  0
  7  8  1  0  0  0
 11 12  1  0  0  0
 11 41  1  0  0  0
 11 42  1  0  0  0
 12 13  1  0  0  0
 12 18  1  0  0  0
 12 40  1  0  0  0
 13 14  1  0  0  0
 13 16  1  0  0  0
 13 17  1  0  0  0
 14 15  1  0  0  0
 18 19  1  0  0  0
 18 24  1  0  0  0
 18 39  1  0  0  0
 19 20  1  0  0  0
 19 22  1  0  0  0
 19 23  1  0  0  0
 20 21  1  0  0  0
 24 25  1  0  0  0
 24 37  1  0  0  0
 24 38  1  0  0  0
 25 26  2  0  0  0
 25 32  1  0  0  0
 26 27  1  0  0  0
 26 36  1  0  0  0
 27 28  1  0  0  0
 27 30  2  0  0  0
 28 29  1  0  0  0
 30 31  1  0  0  0
 30 35  1  0  0  0
 31 32  2  0  0  0
 31 34  1  0  0  0
 32 33  1  0  0  0
M  END
> <Tumorigenic>
none

> <Score>
33.733555

> <Active/Decoy>
active

> <InChI>
InChI=1S/C18H22O4/c19-11-15(7-13-3-1-5-17(21)9-13)16(12-20)8-14-4-2-6-18(22)10-14/h1-6,9-10,15-16,19-22H,7-8,11-12H2/t15-,16-/m0/s1

> <Matching Features>
H:14924486185440016873||HBA:14924321692640012300|HBA:14924486112070016868

> <Mol. Index>
983

> <Pharmacophore Match>
Model -1

> <# Confs.>
25

> <Source Database>
Pharm-Screening-input-NANPDB_After_DataWarror.ldb

> <Pharmacophore-Fit Score>
33.73

> <formula>
C18H22O4

> <Mutagenic>
none

> <Reproductive Effective>
none

> <Irritant>
none

$$$$
alangilignoside D
XX    ILIB03122402133D

 72 75  0  0  1  0              1 V2000
   -1.5546   -3.1992   -0.2200 O   0  0  0  0  0
   -2.6694   -2.5636    0.4125 C   0  0  1  0  0
   -2.5807   -1.1405    0.3036 O   0  0  0  0  0
   -1.4210   -0.5901    0.8951 C   0  0  0  0  0
   -1.4403    0.9293    0.7141 C   0  0  2  0  0
   -1.4649    1.3863   -0.7446 C   0  0  2  0  0
   -0.8579    2.6998   -0.7679 O   0  0  0  0  0
   -0.3674    3.0127    0.5443 C   0  0  0  0  0
   -0.2444    1.6951    1.3058 C   0  0  2  0  0
    1.1064    1.0378    1.1483 C   0  0  0  0  0
    1.8492    1.2206   -0.0307 C   0  0  0  0  0
    3.0993    0.6121   -0.1880 C   0  0  0  0  0
    3.8986    0.7288   -1.2897 O   0  0  0  0  0
    3.3762    1.5406   -2.3385 C   0  0  0  0  0
    2.4450    1.1229   -2.7345 H   0  0  0  0  0
    3.2341    2.5739   -2.0047 H   0  0  0  0  0
    4.1100    1.5497   -3.1505 H   0  0  0  0  0
    3.5980   -0.1811    0.8506 C   0  0  0  0  0
    4.8206   -0.7891    0.7559 O   0  0  0  0  0
    5.2191   -0.5352   -0.0950 H   0  0  0  0  0
    2.8669   -0.3822    2.0190 C   0  0  0  0  0
    1.6216    0.2241    2.1655 C   0  0  0  0  0
    1.0559    0.0614    3.0789 H   0  0  0  0  0
    3.2611   -1.0050    2.8176 H   0  0  0  0  0
    1.4280    1.8483   -0.8114 H   0  0  0  0  0
   -0.3971    1.8889    2.3755 H   0  0  0  0  0
    0.5653    3.5795    0.4636 H   0  0  0  0  0
   -1.1157    3.6605    1.0167 H   0  0  0  0  0
   -2.8239    1.4607   -1.3684 C   0  0  0  0  0
   -3.3503    0.3463   -2.0341 C   0  0  0  0  0
   -4.6130    0.4066   -2.6269 C   0  0  0  0  0
   -5.0641   -0.7315   -3.2326 O   0  0  0  0  0
   -4.7966   -0.8265   -4.6288 C   0  0  0  0  0
   -5.2941   -0.0218   -5.1814 H   0  0  0  0  0
   -3.7198   -0.8320   -4.8273 H   0  0  0  0  0
   -5.2065   -1.7777   -4.9829 H   0  0  0  0  0
   -5.3767    1.5716   -2.5172 C   0  0  0  0  0
   -6.6464    1.5872   -3.0347 O   0  0  0  0  0
   -7.0367    2.4595   -2.8540 H   0  0  0  0  0
   -4.8692    2.6996   -1.8617 C   0  0  0  0  0
   -3.5897    2.6383   -1.2946 C   0  0  0  0  0
   -3.1664    3.4954   -0.7780 H   0  0  0  0  0
   -5.6906    3.7906   -1.8212 O   0  0  0  0  0
   -5.1586    4.9306   -1.1507 C   0  0  0  0  0
   -4.9621    4.7116   -0.0955 H   0  0  0  0  0
   -4.2559    5.2975   -1.6513 H   0  0  0  0  0
   -5.9113    5.7224   -1.1938 H   0  0  0  0  0
   -2.7719   -0.5727   -2.0983 H   0  0  0  0  0
   -0.8092    0.7473   -1.3594 H   0  0  0  0  0
   -2.3375    1.3007    1.2207 H   0  0  0  0  0
   -1.3706   -0.8394    1.9722 H   0  0  0  0  0
   -0.5101   -0.9990    0.4287 H   0  0  0  0  0
   -3.9691   -2.9826   -0.2833 C   0  0  2  0  0
   -5.0840   -2.4683    0.4456 O   0  0  0  0  0
   -4.9589   -1.5070    0.5270 H   0  0  0  0  0
   -4.1025   -4.5012   -0.3520 C   0  0  1  0  0
   -5.1917   -4.8453   -1.2093 O   0  0  0  0  0
   -4.9929   -4.5041   -2.0981 H   0  0  0  0  0
   -2.8229   -5.1535   -0.8779 C   0  0  2  0  0
   -2.9129   -6.5645   -0.7086 O   0  0  0  0  0
   -3.7086   -6.8630   -1.1813 H   0  0  0  0  0
   -1.6005   -4.6269   -0.1215 C   0  0  1  0  0
   -0.3060   -5.1658   -0.7044 C   0  0  0  0  0
   -0.1901   -4.7659   -2.0664 O   0  0  0  0  0
   -0.2315   -3.7954   -2.0892 H   0  0  0  0  0
    0.5702   -4.7859   -0.1685 H   0  0  0  0  0
   -0.2881   -6.2601   -0.6784 H   0  0  0  0  0
   -1.6439   -4.9064    0.9394 H   0  0  0  0  0
   -2.7196   -4.9515   -1.9516 H   0  0  0  0  0
   -4.3589   -4.9084    0.6338 H   0  0  0  0  0
   -4.0229   -2.5535   -1.2913 H   0  0  0  0  0
   -2.7119   -2.8417    1.4763 H   0  0  0  0  0
  1  2  1  0  0  0
  1 62  1  0  0  0
  2  3  1  0  0  0
  2 53  1  0  0  0
  2 72  1  0  0  0
  3  4  1  0  0  0
  4  5  1  0  0  0
  4 51  1  0  0  0
  4 52  1  0  0  0
  5  6  1  0  0  0
  5  9  1  0  0  0
  5 50  1  0  0  0
  6  7  1  0  0  0
  6 29  1  0  0  0
  6 49  1  0  0  0
  7  8  1  0  0  0
  8  9  1  0  0  0
  8 27  1  0  0  0
  8 28  1  0  0  0
  9 10  1  0  0  0
  9 26  1  0  0  0
 10 11  2  0  0  0
 10 22  1  0  0  0
 11 12  1  0  0  0
 11 25  1  0  0  0
 12 13  1  0  0  0
 12 18  2  0  0  0
 13 14  1  0  0  0
 14 15  1  0  0  0
 14 16  1  0  0  0
 14 17  1  0  0  0
 18 19  1  0  0  0
 18 21  1  0  0  0
 19 20  1  0  0  0
 21 22  2  0  0  0
 21 24  1  0  0  0
 22 23  1  0  0  0
 29 30  2  0  0  0
 29 41  1  0  0  0
 30 31  1  0  0  0
 30 48  1  0  0  0
 31 32  1  0  0  0
 31 37  2  0  0  0
 32 33  1  0  0  0
 33 34  1  0  0  0
 33 35  1  0  0  0
 33 36  1  0  0  0
 37 38  1  0  0  0
 37 40  1  0  0  0
 38 39  1  0  0  0
 40 41  2  0  0  0
 40 43  1  0  0  0
 41 42  1  0  0  0
 43 44  1  0  0  0
 44 45  1  0  0  0
 44 46  1  0  0  0
 44 47  1  0  0  0
 53 54  1  0  0  0
 53 56  1  0  0  0
 53 71  1  0  0  0
 54 55  1  0  0  0
 56 57  1  0  0  0
 56 59  1  0  0  0
 56 70  1  0  0  0
 57 58  1  0  0  0
 59 60  1  0  0  0
 59 62  1  0  0  0
 59 69  1  0  0  0
 60 61  1  0  0  0
 62 63  1  0  0  0
 62 68  1  0  0  0
 63 64  1  0  0  0
 63 66  1  0  0  0
 63 67  1  0  0  0
 64 65  1  0  0  0
M  END
> <Tumorigenic>
none

> <Score>
33.71524

> <Active/Decoy>
active

> <InChI>
InChI=1S/C26H34O12/c1-33-17-6-12(4-5-16(17)28)14-10-36-25(13-7-18(34-2)21(29)19(8-13)35-3)15(14)11-37-26-24(32)23(31)22(30)20(9-27)38-26/h4-8,14-15,20,22-32H,9-11H2,1-3H3/t14-,15+,20-,22-,23+,24-,25-,26-/m1/s1

> <Matching Features>
H:14924486185440016873||HBA:14924321692640012300|HBA:14924486112070016868

> <Mol. Index>
183

> <Pharmacophore Match>
Model -1

> <# Confs.>
25

> <Source Database>
Pharm-Screening-input-NANPDB_After_DataWarror.ldb

> <Pharmacophore-Fit Score>
33.72

> <formula>
C26H34O12

> <Mutagenic>
none

> <Reproductive Effective>
none

> <Irritant>
none

$$$$
13,14 dihydroxy-15,16 dimethoxy-(-)-6alpha-hydroxy-5alpha,8alpha,9alpha,10alpha-cleroda-3-en-18-oic acid
XX    ILIB03122402133D

 66 68  0  0  1  0              1 V2000
    3.4929    3.9280   -0.9813 O   0  0  0  0  0
    3.2350    3.3411    0.0595 C   0  0  0  0  0
    4.0942    3.2427    1.1030 O   0  0  0  0  0
    3.7777    2.7456    1.8866 H   0  0  0  0  0
    1.9679    2.6510    0.3486 C   0  0  0  0  0
    1.0362    3.4275    0.9289 C   0  0  0  0  0
   -0.3194    2.9421    1.3352 C   0  0  0  0  0
   -0.5265    1.4358    1.1661 C   0  0  0  0  0
    0.2136    0.9034   -0.0821 C   0  0  1  0  0
    1.7749    1.1529    0.0511 C   0  0  1  0  0
    2.4295    0.7308   -1.2985 C   0  0  1  0  0
    3.8570    0.7281   -1.2256 O   0  0  0  0  0
    4.1674    1.6193   -1.4518 H   0  0  0  0  0
    2.0444   -0.6835   -1.7351 C   0  0  0  0  0
    0.5319   -0.8840   -1.8772 C   0  0  2  0  0
   -0.2516   -0.5267   -0.5554 C   0  0  2  0  0
   -1.7465   -0.5177   -0.8566 C   0  0  0  0  0
   -2.1814    0.4576   -1.9399 C   0  0  0  0  0
   -3.6762    0.4614   -2.2360 C   0  0  2  0  0
   -4.3824    0.8099   -1.0512 O   0  0  0  0  0
   -4.1949    0.1297   -0.3823 H   0  0  0  0  0
   -4.1937   -0.8870   -2.7718 C   0  0  2  0  0
   -5.4203   -0.5963   -3.4773 O   0  0  0  0  0
   -5.5082    0.8253   -3.7031 C   0  0  1  0  0
   -6.4823    1.4283   -2.8563 O   0  0  0  0  0
   -7.7878    0.9020   -3.0545 C   0  0  0  0  0
   -7.8240   -0.1616   -2.8067 H   0  0  0  0  0
   -8.1100    1.0604   -4.0897 H   0  0  0  0  0
   -8.4746    1.4353   -2.3927 H   0  0  0  0  0
   -4.1186    1.3661   -3.3779 C   0  0  1  0  0
   -4.1187    2.7406   -3.0590 O   0  0  0  0  0
   -4.6883    2.8622   -2.2801 H   0  0  0  0  0
   -3.4623    1.2142   -4.2436 H   0  0  0  0  0
   -5.7661    1.0181   -4.7499 H   0  0  0  0  0
   -4.3585   -1.8160   -1.7043 O   0  0  0  0  0
   -4.8382   -3.0811   -2.1428 C   0  0  0  0  0
   -4.1240   -3.5580   -2.8200 H   0  0  0  0  0
   -5.8082   -2.9709   -2.6343 H   0  0  0  0  0
   -4.9633   -3.7212   -1.2656 H   0  0  0  0  0
   -3.4922   -1.2992   -3.5100 H   0  0  0  0  0
   -1.6295    0.2172   -2.8710 H   0  0  0  0  0
   -1.8683    1.4676   -1.6556 H   0  0  0  0  0
   -2.2961   -0.2930    0.0671 H   0  0  0  0  0
   -2.0613   -1.5411   -1.1514 H   0  0  0  0  0
   -0.0520   -1.6168    0.5219 C   0  0  0  0  0
    0.9865   -1.9237    0.6355 H   0  0  0  0  0
   -0.6067   -2.5296    0.2729 H   0  0  0  0  0
   -0.4207   -1.2896    1.4986 H   0  0  0  0  0
    0.2738   -2.2983   -2.4194 C   0  0  0  0  0
   -0.7838   -2.4657   -2.6378 H   0  0  0  0  0
    0.6100   -3.0703   -1.7206 H   0  0  0  0  0
    0.8173   -2.4503   -3.3585 H   0  0  0  0  0
    0.2023   -0.1882   -2.6611 H   0  0  0  0  0
    2.4762   -1.4273   -1.0549 H   0  0  0  0  0
    2.5296   -0.8849   -2.7005 H   0  0  0  0  0
    2.1378    1.4297   -2.0934 H   0  0  0  0  0
    2.4432    0.4061    1.2307 C   0  0  0  0  0
    1.9258    0.5723    2.1801 H   0  0  0  0  0
    3.4774    0.7366    1.3833 H   0  0  0  0  0
    2.5059   -0.6699    1.0720 H   0  0  0  0  0
   -0.1003    1.5705   -0.9027 H   0  0  0  0  0
   -1.6046    1.2646    1.1070 H   0  0  0  0  0
   -0.1917    0.9176    2.0703 H   0  0  0  0  0
   -1.0601    3.4756    0.7269 H   0  0  0  0  0
   -0.5104    3.2184    2.3780 H   0  0  0  0  0
    1.2390    4.4767    1.1308 H   0  0  0  0  0
  1  2  2  0  0  0
  2  3  1  0  0  0
  2  5  1  0  0  0
  3  4  1  0  0  0
  5  6  2  0  0  0
  5 10  1  0  0  0
  6  7  1  0  0  0
  6 66  1  0  0  0
  7  8  1  0  0  0
  7 64  1  0  0  0
  7 65  1  0  0  0
  8  9  1  0  0  0
  8 62  1  0  0  0
  8 63  1  0  0  0
  9 10  1  0  0  0
  9 16  1  0  0  0
  9 61  1  0  0  0
 10 11  1  0  0  0
 10 57  1  0  0  0
 11 12  1  0  0  0
 11 14  1  0  0  0
 11 56  1  0  0  0
 12 13  1  0  0  0
 14 15  1  0  0  0
 14 54  1  0  0  0
 14 55  1  0  0  0
 15 16  1  0  0  0
 15 49  1  0  0  0
 15 53  1  0  0  0
 16 17  1  0  0  0
 16 45  1  0  0  0
 17 18  1  0  0  0
 17 43  1  0  0  0
 17 44  1  0  0  0
 18 19  1  0  0  0
 18 41  1  0  0  0
 18 42  1  0  0  0
 19 20  1  0  0  0
 19 22  1  0  0  0
 19 30  1  0  0  0
 20 21  1  0  0  0
 22 23  1  0  0  0
 22 35  1  0  0  0
 22 40  1  0  0  0
 23 24  1  0  0  0
 24 25  1  0  0  0
 24 30  1  0  0  0
 24 34  1  0  0  0
 25 26  1  0  0  0
 26 27  1  0  0  0
 26 28  1  0  0  0
 26 29  1  0  0  0
 30 31  1  0  0  0
 30 33  1  0  0  0
 31 32  1  0  0  0
 35 36  1  0  0  0
 36 37  1  0  0  0
 36 38  1  0  0  0
 36 39  1  0  0  0
 45 46  1  0  0  0
 45 47  1  0  0  0
 45 48  1  0  0  0
 49 50  1  0  0  0
 49 51  1  0  0  0
 49 52  1  0  0  0
 57 58  1  0  0  0
 57 59  1  0  0  0
 57 60  1  0  0  0
M  END
> <Tumorigenic>
none

> <Score>
33.674564

> <Active/Decoy>
active

> <InChI>
InChI=1S/C22H36O8/c1-12-11-15(23)21(3)13(17(25)26)7-6-8-14(21)20(12,2)9-10-22(27)16(24)18(28-4)30-19(22)29-5/h7,12,14-16,18-19,23-24,27H,6,8-11H2,1-5H3,(H,25,26)/t12-,14-,15+,16-,18-,19+,20+,21+,22-/m1/s1

> <Matching Features>
H:14924486185440016873||HBA:14924321692640012300|HBA:14924486112070016868

> <Mol. Index>
743

> <Pharmacophore Match>
Model -1

> <# Confs.>
12

> <Source Database>
Pharm-Screening-input-NANPDB_After_DataWarror.ldb

> <Pharmacophore-Fit Score>
33.67

> <formula>
C22H36O8

> <Mutagenic>
none

> <Reproductive Effective>
none

> <Irritant>
none

$$$$
euphornin B
XX    ILIB03122402133D

 81 83  0  0  1  0              1 V2000
   -2.1294    3.1493   -6.5438 O   0  0  0  0  0
   -3.2789    2.8301   -6.2844 C   0  0  0  0  0
   -3.8917    2.9146   -5.0789 O   0  0  0  0  0
   -3.1206    3.4485   -4.0018 C   0  0  2  0  0
   -2.3707    2.3009   -3.2652 C   0  0  2  0  0
   -3.4973    1.6676   -2.3861 C   0  0  1  0  0
   -4.3289    0.8875   -3.2628 O   0  0  0  0  0
   -5.0573    0.5225   -2.7329 H   0  0  0  0  0
   -3.0942    0.7738   -1.1766 C   0  0  1  0  0
   -4.3233    0.3583   -0.5616 O   0  0  0  0  0
   -4.2867    0.1315    0.7806 C   0  0  0  0  0
   -3.3126    0.2483    1.5102 O   0  0  0  0  0
   -5.6472   -0.2792    1.2554 C   0  0  0  0  0
   -6.3490    0.5498    1.1267 H   0  0  0  0  0
   -5.6000   -0.5376    2.3179 H   0  0  0  0  0
   -5.9850   -1.1601    0.7042 H   0  0  0  0  0
   -2.2533   -0.5183   -1.4001 C   0  0  2  0  0
   -0.7723   -0.2384   -1.4867 C   0  0  0  0  0
    0.0845   -0.4363   -0.4681 C   0  0  0  0  0
    1.5877   -0.1563   -0.4704 C   0  0  0  0  0
    1.9853    1.0649   -1.3641 C   0  0  2  0  0
    3.4134    1.1741   -1.4189 O   0  0  0  0  0
    3.6291    1.8934   -2.0352 H   0  0  0  0  0
    1.4272    2.4181   -0.8708 C   0  0  0  0  0
    1.1849    3.4358   -2.0112 C   0  0  2  0  0
    0.8213    4.7020   -1.4415 O   0  0  0  0  0
    1.8451    5.5416   -1.1165 C   0  0  0  0  0
    3.0393    5.3208   -1.2643 O   0  0  0  0  0
    1.2890    6.8125   -0.5503 C   0  0  0  0  0
    0.7210    7.3415   -1.3202 H   0  0  0  0  0
    2.1112    7.4518   -0.2165 H   0  0  0  0  0
    0.6577    6.5912    0.3140 H   0  0  0  0  0
    0.0612    3.0029   -2.9450 C   0  0  0  0  0
   -1.2010    2.8548   -2.4906 C   0  0  0  0  0
   -1.4002    3.1240   -1.4554 H   0  0  0  0  0
    0.4805    2.7500   -4.3668 C   0  0  0  0  0
   -0.3541    2.5122   -5.0295 H   0  0  0  0  0
    1.1909    1.9204   -4.4162 H   0  0  0  0  0
    0.9656    3.6428   -4.7759 H   0  0  0  0  0
    2.1115    3.5620   -2.5876 H   0  0  0  0  0
    0.4920    2.2845   -0.3156 H   0  0  0  0  0
    2.1291    2.8631   -0.1535 H   0  0  0  0  0
    1.6703    0.8596   -2.3905 H   0  0  0  0  0
    2.0488    0.0762    0.9864 C   0  0  0  0  0
    1.8628   -0.8096    1.6071 H   0  0  0  0  0
    3.1217    0.2881    1.0381 H   0  0  0  0  0
    1.5187    0.9139    1.4528 H   0  0  0  0  0
    2.2908   -1.4309   -0.9843 C   0  0  0  0  0
    2.0496   -1.6216   -2.0359 H   0  0  0  0  0
    3.3799   -1.3521   -0.9023 H   0  0  0  0  0
    1.9866   -2.3147   -0.4101 H   0  0  0  0  0
   -0.3190   -0.8447    0.4578 H   0  0  0  0  0
   -0.4030    0.1224   -2.4400 H   0  0  0  0  0
   -2.6931   -1.3871   -2.5792 C   0  0  0  0  0
   -2.5034   -0.9008   -3.5420 H   0  0  0  0  0
   -2.1428   -2.3357   -2.5838 H   0  0  0  0  0
   -3.7588   -1.6295   -2.5126 H   0  0  0  0  0
   -2.4133   -1.1502   -0.5137 H   0  0  0  0  0
   -2.5578    1.4036   -0.4523 H   0  0  0  0  0
   -4.3545    2.8794   -1.9389 C   0  0  0  0  0
   -4.0352    4.0364   -2.9056 C   0  0  2  0  0
   -5.2851    4.7276   -3.4326 C   0  0  0  0  0
   -5.8444    5.1852   -2.6104 H   0  0  0  0  0
   -5.9550    4.0262   -3.9396 H   0  0  0  0  0
   -5.0185    5.5192   -4.1407 H   0  0  0  0  0
   -3.4543    4.7806   -2.3431 H   0  0  0  0  0
   -4.0876    3.1984   -0.9236 H   0  0  0  0  0
   -5.4244    2.6387   -1.9369 H   0  0  0  0  0
   -2.0360    1.5476   -3.9813 H   0  0  0  0  0
   -2.4429    4.2181   -4.3730 H   0  0  0  0  0
   -4.2099    2.2771   -7.2861 C   0  0  0  0  0
   -5.2038    1.3926   -6.8794 C   0  0  0  0  0
   -6.0684    0.8558   -7.8332 C   0  0  0  0  0
   -5.9364    1.2107   -9.1772 C   0  0  0  0  0
   -4.9397    2.1044   -9.5735 C   0  0  0  0  0
   -4.0691    2.6453   -8.6286 C   0  0  0  0  0
   -3.2939    3.3380   -8.9436 H   0  0  0  0  0
   -4.8412    2.3771  -10.6192 H   0  0  0  0  0
   -6.6103    0.7897   -9.9159 H   0  0  0  0  0
   -6.8438    0.1591   -7.5303 H   0  0  0  0  0
   -5.3111    1.1123   -5.8354 H   0  0  0  0  0
  1  2  2  0  0  0
  2  3  1  0  0  0
  2 71  1  0  0  0
  3  4  1  0  0  0
  4  5  1  0  0  0
  4 61  1  0  0  0
  4 70  1  0  0  0
  5  6  1  0  0  0
  5 34  1  0  0  0
  5 69  1  0  0  0
  6  7  1  0  0  0
  6  9  1  0  0  0
  6 60  1  0  0  0
  7  8  1  0  0  0
  9 10  1  0  0  0
  9 17  1  0  0  0
  9 59  1  0  0  0
 10 11  1  0  0  0
 11 12  2  0  0  0
 11 13  1  0  0  0
 13 14  1  0  0  0
 13 15  1  0  0  0
 13 16  1  0  0  0
 17 18  1  0  0  0
 17 54  1  0  0  0
 17 58  1  0  0  0
 18 19  2  0  0  0
 18 53  1  0  0  0
 19 20  1  0  0  0
 19 52  1  0  0  0
 20 21  1  0  0  0
 20 44  1  0  0  0
 20 48  1  0  0  0
 21 22  1  0  0  0
 21 24  1  0  0  0
 21 43  1  0  0  0
 22 23  1  0  0  0
 24 25  1  0  0  0
 24 41  1  0  0  0
 24 42  1  0  0  0
 25 26  1  0  0  0
 25 33  1  0  0  0
 25 40  1  0  0  0
 26 27  1  0  0  0
 27 28  2  0  0  0
 27 29  1  0  0  0
 29 30  1  0  0  0
 29 31  1  0  0  0
 29 32  1  0  0  0
 33 34  2  0  0  0
 33 36  1  0  0  0
 34 35  1  0  0  0
 36 37  1  0  0  0
 36 38  1  0  0  0
 36 39  1  0  0  0
 44 45  1  0  0  0
 44 46  1  0  0  0
 44 47  1  0  0  0
 48 49  1  0  0  0
 48 50  1  0  0  0
 48 51  1  0  0  0
 54 55  1  0  0  0
 54 56  1  0  0  0
 54 57  1  0  0  0
 60 61  1  0  0  0
 60 67  1  0  0  0
 60 68  1  0  0  0
 61 62  1  0  0  0
 61 66  1  0  0  0
 62 63  1  0  0  0
 62 64  1  0  0  0
 62 65  1  0  0  0
 71 72  2  0  0  0
 71 76  1  0  0  0
 72 73  1  0  0  0
 72 81  1  0  0  0
 73 74  2  0  0  0
 73 80  1  0  0  0
 74 75  1  0  0  0
 74 79  1  0  0  0
 75 76  2  0  0  0
 75 78  1  0  0  0
 76 77  1  0  0  0
M  END
> <Tumorigenic>
none

> <Score>
33.674255

> <Active/Decoy>
active

> <InChI>
InChI=1S/C31H42O8/c1-18-13-14-30(6,7)26(34)16-25(37-21(4)32)19(2)15-24-27(39-29(35)23-11-9-8-10-12-23)20(3)17-31(24,36)28(18)38-22(5)33/h8-15,18,20,24-28,34,36H,16-17H2,1-7H3/t18-,20-,24+,25-,26+,27-,28-,31+/m0/s1

> <Matching Features>
H:14924486185440016873||HBA:14924321692640012300|HBA:14924486112070016868

> <Mol. Index>
481

> <Pharmacophore Match>
Model -1

> <# Confs.>
25

> <Source Database>
Pharm-Screening-input-NANPDB_After_DataWarror.ldb

> <Pharmacophore-Fit Score>
33.67

> <formula>
C31H42O8

> <Mutagenic>
none

> <Reproductive Effective>
none

> <Irritant>
none

$$$$
isosilybin A
XX    ILIB03122402133D

 57 61  0  0  1  0              1 V2000
   -7.0255    0.0873   -4.1940 O   0  0  0  0  0
   -6.0731   -0.6768   -4.1036 C   0  0  0  0  0
   -5.8646   -1.7875   -5.0643 C   0  0  0  0  0
   -4.6928   -2.5468   -4.9615 C   0  0  0  0  0
   -3.7008   -2.3066   -4.0444 O   0  0  0  0  0
   -3.6812   -0.9635   -3.5422 C   0  0  1  0  0
   -5.0529   -0.5747   -2.9916 C   0  0  1  0  0
   -5.0547    0.7584   -2.5095 O   0  0  0  0  0
   -4.7094    1.3342   -3.2133 H   0  0  0  0  0
   -5.3832   -1.2385   -2.1831 H   0  0  0  0  0
   -2.5991   -0.9035   -2.4934 C   0  0  0  0  0
   -1.5064   -0.0325   -2.6230 C   0  0  0  0  0
   -0.5235    0.0232   -1.6324 C   0  0  0  0  0
    0.5017    0.9084   -1.8204 O   0  0  0  0  0
    1.2377    1.1727   -0.6087 C   0  0  1  0  0
    1.5548   -0.1570    0.0995 C   0  0  2  0  0
    0.3371   -0.8161    0.4691 O   0  0  0  0  0
   -0.6049   -0.8078   -0.5193 C   0  0  0  0  0
   -1.6922   -1.6664   -0.3700 C   0  0  0  0  0
   -2.6833   -1.7140   -1.3516 C   0  0  0  0  0
   -3.5207   -2.3936   -1.2202 H   0  0  0  0  0
   -1.7714   -2.3087    0.5026 H   0  0  0  0  0
    2.3599   -0.0218    1.3520 C   0  0  0  0  0
    1.8607    0.6968    2.4404 C   0  0  0  0  0
    2.6086    0.8328    3.6155 C   0  0  0  0  0
    2.2047    1.5097    4.7311 O   0  0  0  0  0
    0.9156    2.1110    4.6462 C   0  0  0  0  0
    0.8839    2.8689    3.8550 H   0  0  0  0  0
    0.1354    1.3564    4.4982 H   0  0  0  0  0
    0.7178    2.6131    5.5980 H   0  0  0  0  0
    3.8723    0.2453    3.6814 C   0  0  0  0  0
    4.6401    0.3262    4.8111 O   0  0  0  0  0
    4.1355    0.8197    5.4809 H   0  0  0  0  0
    4.3934   -0.4708    2.6019 C   0  0  0  0  0
    3.6444   -0.5979    1.4349 C   0  0  0  0  0
    4.0589   -1.1495    0.5950 H   0  0  0  0  0
    5.3786   -0.9258    2.6624 H   0  0  0  0  0
    0.8731    1.1411    2.3477 H   0  0  0  0  0
    2.0858   -0.8249   -0.6145 H   0  0  0  0  0
    2.4803    1.9383   -1.0272 C   0  0  0  0  0
    3.2491    1.1490   -1.9290 O   0  0  0  0  0
    2.6794    0.9236   -2.6850 H   0  0  0  0  0
    2.2282    2.8758   -1.5341 H   0  0  0  0  0
    3.1132    2.1635   -0.1633 H   0  0  0  0  0
    0.6025    1.8144    0.0165 H   0  0  0  0  0
   -1.4276    0.6158   -3.4920 H   0  0  0  0  0
   -3.3999   -0.2901   -4.3669 H   0  0  0  0  0
   -4.4863   -3.6435   -5.8012 C   0  0  0  0  0
   -5.4416   -3.9603   -6.7662 C   0  0  0  0  0
   -5.2635   -5.0236   -7.6052 O   0  0  0  0  0
   -4.4151   -5.4496   -7.3912 H   0  0  0  0  0
   -6.5995   -3.2010   -6.8966 C   0  0  0  0  0
   -6.8115   -2.1160   -6.0428 C   0  0  0  0  0
   -7.9627   -1.3869   -6.1696 O   0  0  0  0  0
   -8.4956   -1.7599   -6.8918 H   0  0  0  0  0
   -7.3352   -3.4597   -7.6547 H   0  0  0  0  0
   -3.5833   -4.2396   -5.7088 H   0  0  0  0  0
  1  2  2  0  0  0
  2  3  1  0  0  0
  2  7  1  0  0  0
  3  4  2  0  0  0
  3 53  1  0  0  0
  4  5  1  0  0  0
  4 48  1  0  0  0
  5  6  1  0  0  0
  6  7  1  0  0  0
  6 11  1  0  0  0
  6 47  1  0  0  0
  7  8  1  0  0  0
  7 10  1  0  0  0
  8  9  1  0  0  0
 11 12  2  0  0  0
 11 20  1  0  0  0
 12 13  1  0  0  0
 12 46  1  0  0  0
 13 14  1  0  0  0
 13 18  2  0  0  0
 14 15  1  0  0  0
 15 16  1  0  0  0
 15 40  1  0  0  0
 15 45  1  0  0  0
 16 17  1  0  0  0
 16 23  1  0  0  0
 16 39  1  0  0  0
 17 18  1  0  0  0
 18 19  1  0  0  0
 19 20  2  0  0  0
 19 22  1  0  0  0
 20 21  1  0  0  0
 23 24  2  0  0  0
 23 35  1  0  0  0
 24 25  1  0  0  0
 24 38  1  0  0  0
 25 26  1  0  0  0
 25 31  2  0  0  0
 26 27  1  0  0  0
 27 28  1  0  0  0
 27 29  1  0  0  0
 27 30  1  0  0  0
 31 32  1  0  0  0
 31 34  1  0  0  0
 32 33  1  0  0  0
 34 35  2  0  0  0
 34 37  1  0  0  0
 35 36  1  0  0  0
 40 41  1  0  0  0
 40 43  1  0  0  0
 40 44  1  0  0  0
 41 42  1  0  0  0
 48 49  2  0  0  0
 48 57  1  0  0  0
 49 50  1  0  0  0
 49 52  1  0  0  0
 50 51  1  0  0  0
 52 53  2  0  0  0
 52 56  1  0  0  0
 53 54  1  0  0  0
 54 55  1  0  0  0
M  END
> <Tumorigenic>
none

> <Score>
33.557007

> <Active/Decoy>
active

> <InChI>
InChI=1S/C25H22O10/c1-32-17-6-11(2-4-14(17)28)24-20(10-26)33-18-7-12(3-5-16(18)34-24)25-23(31)22(30)21-15(29)8-13(27)9-19(21)35-25/h2-9,20,23-29,31H,10H2,1H3/t20-,23+,24-,25-/m1/s1

> <Matching Features>
H:14924486185440016873||HBA:14924321692640012300|HBA:14924486112070016868

> <Mol. Index>
248

> <Pharmacophore Match>
Model -1

> <# Confs.>
25

> <Source Database>
Pharm-Screening-input-NANPDB_After_DataWarror.ldb

> <Pharmacophore-Fit Score>
33.56

> <formula>
C25H22O10

> <Mutagenic>
none

> <Reproductive Effective>
none

> <Irritant>
none

$$$$
euphoheliosnoid A
XX    ILIB03122402133D

 84 86  0  0  1  0              1 V2000
    3.4210    1.8877   -2.1222 O   0  0  0  0  0
    2.1939    1.9380   -2.0103 C   0  0  0  0  0
    1.3072    2.6026   -3.0864 C   0  0  0  0  0
    0.4299    1.5064   -3.6529 C   0  0  0  0  0
   -0.9120    1.4697   -3.6966 C   0  0  0  0  0
   -1.6782    0.3119   -4.2856 C   0  0  1  0  0
   -2.8447   -0.2093   -3.3908 C   0  0  1  0  0
   -3.3945   -1.3602   -4.0505 O   0  0  0  0  0
   -4.6568   -1.2342   -4.5459 C   0  0  0  0  0
   -5.5442   -0.5200   -4.0984 O   0  0  0  0  0
   -4.8090   -2.1046   -5.7559 C   0  0  0  0  0
   -4.1549   -1.7452   -6.5532 H   0  0  0  0  0
   -5.8446   -2.0646   -6.1052 H   0  0  0  0  0
   -4.5748   -3.1408   -5.5012 H   0  0  0  0  0
   -2.4899   -0.5598   -1.8915 C   0  0  2  0  0
   -2.2529    0.6645   -1.1803 O   0  0  0  0  0
   -3.2860    1.5515   -1.1332 C   0  0  0  0  0
   -4.3914    1.4062   -1.6361 O   0  0  0  0  0
   -2.8729    2.7598   -0.3475 C   0  0  0  0  0
   -2.6928    2.4783    0.6934 H   0  0  0  0  0
   -3.6733    3.5039   -0.3771 H   0  0  0  0  0
   -1.9771    3.2015   -0.7884 H   0  0  0  0  0
   -1.2345   -1.4791   -1.7125 C   0  0  2  0  0
   -1.8046   -2.8868   -1.9587 C   0  0  1  0  0
   -0.9731   -3.9412   -1.4723 O   0  0  0  0  0
   -0.0483   -4.4341   -2.3313 C   0  0  0  0  0
    0.1508   -4.0691   -3.4792 O   0  0  0  0  0
    0.7233   -5.5091   -1.6795 C   0  0  0  0  0
    2.0417   -5.7324   -2.0624 C   0  0  0  0  0
    2.7617   -6.7614   -1.4577 C   0  0  0  0  0
    2.1579   -7.5607   -0.4844 C   0  0  0  0  0
    0.8307   -7.3326   -0.1134 C   0  0  0  0  0
    0.1019   -6.3084   -0.7135 C   0  0  0  0  0
   -0.9304   -6.1386   -0.4220 H   0  0  0  0  0
    0.3663   -7.9576    0.6438 H   0  0  0  0  0
    2.7210   -8.3612   -0.0168 H   0  0  0  0  0
    3.7926   -6.9432   -1.7441 H   0  0  0  0  0
    2.5169   -5.1144   -2.8189 H   0  0  0  0  0
   -3.1587   -2.8693   -1.2077 C   0  0  1  0  0
   -3.6165   -1.3960   -1.2092 C   0  0  0  0  0
   -3.7584   -1.0772   -0.1684 H   0  0  0  0  0
   -4.5863   -1.2576   -1.6984 H   0  0  0  0  0
   -4.1805   -3.8277   -1.8049 C   0  0  0  0  0
   -5.1221   -3.7805   -1.2495 H   0  0  0  0  0
   -4.3949   -3.5953   -2.8513 H   0  0  0  0  0
   -3.8135   -4.8582   -1.7603 H   0  0  0  0  0
   -3.0045   -3.1891   -0.1685 H   0  0  0  0  0
   -1.9845   -3.0440   -3.0294 H   0  0  0  0  0
   -0.6374   -1.3679   -0.3065 C   0  0  0  0  0
    0.5485   -0.8435    0.0634 C   0  0  0  0  0
    1.5572   -0.2326   -0.8937 C   0  0  2  0  0
    2.8809   -0.6711   -0.5507 O   0  0  0  0  0
    3.3185   -1.8144   -1.1477 C   0  0  0  0  0
    2.6952   -2.5008   -1.9450 O   0  0  0  0  0
    4.7139   -2.1156   -0.6890 C   0  0  0  0  0
    5.3929   -1.3360   -1.0390 H   0  0  0  0  0
    5.0332   -3.0756   -1.1063 H   0  0  0  0  0
    4.7380   -2.1911    0.3999 H   0  0  0  0  0
    1.5233    1.2988   -0.7994 C   0  0  0  0  0
    2.0604    1.6607    0.0854 H   0  0  0  0  0
    0.4946    1.6604   -0.7218 H   0  0  0  0  0
    1.3630   -0.5366   -1.9254 H   0  0  0  0  0
    0.9140   -0.8069    1.5287 C   0  0  0  0  0
    1.1241    0.2182    1.8478 H   0  0  0  0  0
    1.7993   -1.4215    1.7200 H   0  0  0  0  0
    0.1108   -1.1856    2.1692 H   0  0  0  0  0
   -1.2731   -1.7460    0.4935 H   0  0  0  0  0
   -0.4685   -1.2722   -2.4483 H   0  0  0  0  0
   -3.6094    0.5807   -3.3701 H   0  0  0  0  0
   -2.1961    0.7465   -5.6678 C   0  0  0  0  0
   -2.9620    1.5244   -5.5797 H   0  0  0  0  0
   -2.6284   -0.0980   -6.2135 H   0  0  0  0  0
   -1.3831    1.1438   -6.2873 H   0  0  0  0  0
   -0.9976   -0.5285   -4.4754 H   0  0  0  0  0
   -1.4949    2.3055   -3.3223 H   0  0  0  0  0
    0.9666    0.6538   -4.0695 H   0  0  0  0  0
    0.5679    3.8007   -2.4675 C   0  0  0  0  0
    0.0130    4.3620   -3.2274 H   0  0  0  0  0
   -0.1486    3.5006   -1.6958 H   0  0  0  0  0
    1.2750    4.4900   -1.9938 H   0  0  0  0  0
    2.1915    3.1326   -4.2313 C   0  0  0  0  0
    2.7838    2.3328   -4.6902 H   0  0  0  0  0
    2.8972    3.8888   -3.8685 H   0  0  0  0  0
    1.5862    3.5928   -5.0212 H   0  0  0  0  0
  1  2  2  0  0  0
  2  3  1  0  0  0
  2 59  1  0  0  0
  3  4  1  0  0  0
  3 77  1  0  0  0
  3 81  1  0  0  0
  4  5  2  0  0  0
  4 76  1  0  0  0
  5  6  1  0  0  0
  5 75  1  0  0  0
  6  7  1  0  0  0
  6 70  1  0  0  0
  6 74  1  0  0  0
  7  8  1  0  0  0
  7 15  1  0  0  0
  7 69  1  0  0  0
  8  9  1  0  0  0
  9 10  2  0  0  0
  9 11  1  0  0  0
 11 12  1  0  0  0
 11 13  1  0  0  0
 11 14  1  0  0  0
 15 16  1  0  0  0
 15 23  1  0  0  0
 15 40  1  0  0  0
 16 17  1  0  0  0
 17 18  2  0  0  0
 17 19  1  0  0  0
 19 20  1  0  0  0
 19 21  1  0  0  0
 19 22  1  0  0  0
 23 24  1  0  0  0
 23 49  1  0  0  0
 23 68  1  0  0  0
 24 25  1  0  0  0
 24 39  1  0  0  0
 24 48  1  0  0  0
 25 26  1  0  0  0
 26 27  2  0  0  0
 26 28  1  0  0  0
 28 29  2  0  0  0
 28 33  1  0  0  0
 29 30  1  0  0  0
 29 38  1  0  0  0
 30 31  2  0  0  0
 30 37  1  0  0  0
 31 32  1  0  0  0
 31 36  1  0  0  0
 32 33  2  0  0  0
 32 35  1  0  0  0
 33 34  1  0  0  0
 39 40  1  0  0  0
 39 43  1  0  0  0
 39 47  1  0  0  0
 40 41  1  0  0  0
 40 42  1  0  0  0
 43 44  1  0  0  0
 43 45  1  0  0  0
 43 46  1  0  0  0
 49 50  2  0  0  0
 49 67  1  0  0  0
 50 51  1  0  0  0
 50 63  1  0  0  0
 51 52  1  0  0  0
 51 59  1  0  0  0
 51 62  1  0  0  0
 52 53  1  0  0  0
 53 54  2  0  0  0
 53 55  1  0  0  0
 55 56  1  0  0  0
 55 57  1  0  0  0
 55 58  1  0  0  0
 59 60  1  0  0  0
 59 61  1  0  0  0
 63 64  1  0  0  0
 63 65  1  0  0  0
 63 66  1  0  0  0
 70 71  1  0  0  0
 70 72  1  0  0  0
 70 73  1  0  0  0
 77 78  1  0  0  0
 77 79  1  0  0  0
 77 80  1  0  0  0
 81 82  1  0  0  0
 81 83  1  0  0  0
 81 84  1  0  0  0
M  END
> <Tumorigenic>
none

> <Score>
33.544533

> <Active/Decoy>
active

> <InChI>
InChI=1S/C33H42O9/c1-19-14-15-32(7,8)28(37)17-27(39-22(4)34)20(2)16-26-29(41-31(38)25-12-10-9-11-13-25)21(3)18-33(26,42-24(6)36)30(19)40-23(5)35/h9-16,19,21,26-27,29-30H,17-18H2,1-8H3/b15-14?,20-16-/t19-,21+,26-,27+,29-,30+,33+/m0/s1

> <Matching Features>
H:14924486185440016873||HBA:14924321692640012300|HBA:14924486112070016868

> <Mol. Index>
499

> <Pharmacophore Match>
Model -1

> <# Confs.>
25

> <Source Database>
Pharm-Screening-input-NANPDB_After_DataWarror.ldb

> <Pharmacophore-Fit Score>
33.54

> <formula>
C33H42O9

> <Mutagenic>
none

> <Reproductive Effective>
none

> <Irritant>
none

$$$$
apigenin-7-methylgalacturonide
XX    ILIB03122402133D

 53 56  0  0  1  0              1 V2000
    3.3940    1.1743   -2.6417 O   0  0  0  0  0
    2.6226    1.2222   -1.6931 C   0  0  0  0  0
    1.2763    1.8192   -1.7897 C   0  0  0  0  0
    0.4808    1.8230   -0.6448 C   0  0  0  0  0
    0.8876    1.2973    0.5570 O   0  0  0  0  0
    2.1514    0.7354    0.6483 C   0  0  0  0  0
    3.0123    0.6721   -0.3798 C   0  0  0  0  0
    4.0000    0.2316   -0.3095 H   0  0  0  0  0
    2.4773    0.2020    1.9855 C   0  0  0  0  0
    1.9208    0.7758    3.1430 C   0  0  0  0  0
    2.2238    0.2807    4.4145 C   0  0  0  0  0
    3.0915   -0.7984    4.5423 C   0  0  0  0  0
    3.4100   -1.3042    5.7713 O   0  0  0  0  0
    2.9457   -0.7849    6.4486 H   0  0  0  0  0
    3.6591   -1.3855    3.4179 C   0  0  0  0  0
    3.3530   -0.8864    2.1482 C   0  0  0  0  0
    3.8191   -1.3669    1.2906 H   0  0  0  0  0
    4.3367   -2.2267    3.5158 H   0  0  0  0  0
    1.7759    0.7427    5.2888 H   0  0  0  0  0
    1.2346    1.6179    3.0763 H   0  0  0  0  0
   -0.8009    2.3782   -0.6738 C   0  0  0  0  0
   -1.3019    2.9436   -1.8541 C   0  0  0  0  0
   -2.5745    3.4588   -1.7644 O   0  0  0  0  0
   -3.3622    3.4240   -2.9559 C   0  0  1  0  0
   -3.5622    2.0792   -3.4568 O   0  0  0  0  0
   -4.2839    1.2371   -2.5526 C   0  0  2  0  0
   -4.3331   -0.1271   -3.1832 C   0  0  0  0  0
   -5.3741   -0.7145   -3.4497 O   0  0  0  0  0
   -3.0717   -0.6023   -3.3757 O   0  0  0  0  0
   -2.9938   -1.9125   -3.9456 C   0  0  0  0  0
   -3.4759   -1.9297   -4.9283 H   0  0  0  0  0
   -1.9395   -2.1686   -4.0671 H   0  0  0  0  0
   -3.4593   -2.6421   -3.2751 H   0  0  0  0  0
   -5.6798    1.8021   -2.2838 C   0  0  2  0  0
   -6.4095    1.8089   -3.5160 O   0  0  0  0  0
   -7.2777    2.2071   -3.3361 H   0  0  0  0  0
   -5.5683    3.2336   -1.7525 C   0  0  2  0  0
   -6.8649    3.8150   -1.6433 O   0  0  0  0  0
   -7.3932    3.2436   -1.0606 H   0  0  0  0  0
   -4.7119    4.0822   -2.6936 C   0  0  1  0  0
   -4.5128    5.3804   -2.1432 O   0  0  0  0  0
   -4.0095    5.2774   -1.3178 H   0  0  0  0  0
   -5.2471    4.2181   -3.6410 H   0  0  0  0  0
   -5.1319    3.2345   -0.7463 H   0  0  0  0  0
   -6.2412    1.1726   -1.5850 H   0  0  0  0  0
   -3.7077    1.1441   -1.6242 H   0  0  0  0  0
   -2.8462    3.9881   -3.7414 H   0  0  0  0  0
   -0.5119    2.9330   -3.0027 C   0  0  0  0  0
    0.7721    2.3760   -2.9705 C   0  0  0  0  0
    1.4720    2.4175   -4.1444 O   0  0  0  0  0
    2.3408    2.0036   -4.0143 H   0  0  0  0  0
   -0.8685    3.3568   -3.9375 H   0  0  0  0  0
   -1.4107    2.3752    0.2273 H   0  0  0  0  0
  1  2  2  0  0  0
  2  3  1  0  0  0
  2  7  1  0  0  0
  3  4  2  0  0  0
  3 49  1  0  0  0
  4  5  1  0  0  0
  4 21  1  0  0  0
  5  6  1  0  0  0
  6  7  2  0  0  0
  6  9  1  0  0  0
  7  8  1  0  0  0
  9 10  2  0  0  0
  9 16  1  0  0  0
 10 11  1  0  0  0
 10 20  1  0  0  0
 11 12  2  0  0  0
 11 19  1  0  0  0
 12 13  1  0  0  0
 12 15  1  0  0  0
 13 14  1  0  0  0
 15 16  2  0  0  0
 15 18  1  0  0  0
 16 17  1  0  0  0
 21 22  2  0  0  0
 21 53  1  0  0  0
 22 23  1  0  0  0
 22 48  1  0  0  0
 23 24  1  0  0  0
 24 25  1  0  0  0
 24 40  1  0  0  0
 24 47  1  0  0  0
 25 26  1  0  0  0
 26 27  1  0  0  0
 26 34  1  0  0  0
 26 46  1  0  0  0
 27 28  2  0  0  0
 27 29  1  0  0  0
 29 30  1  0  0  0
 30 31  1  0  0  0
 30 32  1  0  0  0
 30 33  1  0  0  0
 34 35  1  0  0  0
 34 37  1  0  0  0
 34 45  1  0  0  0
 35 36  1  0  0  0
 37 38  1  0  0  0
 37 40  1  0  0  0
 37 44  1  0  0  0
 38 39  1  0  0  0
 40 41  1  0  0  0
 40 43  1  0  0  0
 41 42  1  0  0  0
 48 49  2  0  0  0
 48 52  1  0  0  0
 49 50  1  0  0  0
 50 51  1  0  0  0
M  END
> <Tumorigenic>
none

> <Score>
33.521374

> <Active/Decoy>
active

> <InChI>
InChI=1S/C22H20O11/c1-30-21(29)20-18(27)17(26)19(28)22(33-20)31-11-6-12(24)16-13(25)8-14(32-15(16)7-11)9-2-4-10(23)5-3-9/h2-8,17-20,22-24,26-28H,1H3/t17-,18+,19+,20-,22-/m0/s1

> <Matching Features>
H:14924486185440016873||HBA:14924321692640012300|HBA:14924486112070016868

> <Mol. Index>
1065

> <Pharmacophore Match>
Model -1

> <# Confs.>
25

> <Source Database>
Pharm-Screening-input-NANPDB_After_DataWarror.ldb

> <Pharmacophore-Fit Score>
33.52

> <formula>
C22H20O11

> <Mutagenic>
none

> <Reproductive Effective>
none

> <Irritant>
none

$$$$
