3'-prenylnaringenin
XX    ILIB03122411353D

 43 45  0  0  1  0              1 V2000
   -2.3843    0.2636   -0.8855 O   0  0  0  0  0
   -4.8805    0.8401   -4.0461 O   0  0  0  0  0
   -6.9214    0.0336   -2.5479 O   0  0  0  0  0
    3.6700    1.6356   -2.2792 O   0  0  0  0  0
   -5.9238   -1.1815    1.9361 O   0  0  0  0  0
   -3.7249    0.0042   -0.7450 C   0  0  0  0  0
   -1.9143    0.7168   -2.1091 C   0  0  0  0  0
   -4.1511    0.6578   -3.0814 C   0  0  0  0  0
   -5.9988   -0.1200   -1.5498 C   0  0  0  0  0
    2.3201    1.4172   -2.2251 C   0  0  0  0  0
   -5.4869   -0.7358    0.7218 C   0  0  0  0  0
   -4.6486    0.1738   -1.7791 C   0  0  0  0  0
   -0.4580    0.9551   -2.1428 C   0  0  0  0  0
    1.8159    0.4310   -1.3537 C   0  0  0  0  0
   -2.7002    0.9197   -3.1766 C   0  0  0  0  0
   -4.1396   -0.4496    0.5086 C   0  0  0  0  0
   -6.4210   -0.5753   -0.2983 C   0  0  0  0  0
    1.4640    2.1721   -3.0231 C   0  0  0  0  0
    0.4300    0.2051   -1.3478 C   0  0  0  0  0
    0.0870    1.9426   -2.9788 C   0  0  0  0  0
    2.7121   -0.4011   -0.4936 C   0  0  0  0  0
    2.6389   -0.3445    2.0523 C   0  0  0  0  0
    2.9272    0.1895    0.8586 C   0  0  0  0  0
    2.8916    0.4279    3.3186 C   0  0  0  0  0
    2.0599   -1.7144    2.2651 C   0  0  0  0  0
   -7.7953   -0.2248   -2.2123 H   0  0  0  0  0
    3.8482    2.3397   -2.9259 H   0  0  0  0  0
   -5.1640   -1.2408    2.5389 H   0  0  0  0  0
   -2.3330    1.2699   -4.1345 H   0  0  0  0  0
   -3.4165   -0.5794    1.3091 H   0  0  0  0  0
   -7.4681   -0.8053   -0.1163 H   0  0  0  0  0
    1.8536    2.9400   -3.6851 H   0  0  0  0  0
    0.0467   -0.5630   -0.6772 H   0  0  0  0  0
   -0.5492    2.5507   -3.6186 H   0  0  0  0  0
    2.3036   -1.4150   -0.4241 H   0  0  0  0  0
    3.6923   -0.5191   -0.9968 H   0  0  0  0  0
    3.3645    1.1974    0.8407 H   0  0  0  0  0
    1.9594    0.5506    3.8798 H   0  0  0  0  0
    3.2954    1.4274    3.1255 H   0  0  0  0  0
    3.6102   -0.1037    3.9499 H   0  0  0  0  0
    2.6841   -2.2808    2.9630 H   0  0  0  0  0
    1.0536   -1.6366    2.6904 H   0  0  0  0  0
    1.9914   -2.3061    1.3499 H   0  0  0  0  0
  1  6  1  0  0  0
  1  7  1  0  0  0
  2  8  2  0  0  0
  3  9  1  0  0  0
  3 26  1  0  0  0
  4 10  1  0  0  0
  4 27  1  0  0  0
  5 11  1  0  0  0
  5 28  1  0  0  0
  6 12  2  0  0  0
  6 16  1  0  0  0
  7 13  1  0  0  0
  7 15  2  0  0  0
  8 12  1  0  0  0
  8 15  1  0  0  0
  9 12  1  0  0  0
  9 17  2  0  0  0
 10 14  2  0  0  0
 10 18  1  0  0  0
 11 16  2  0  0  0
 11 17  1  0  0  0
 13 19  2  0  0  0
 13 20  1  0  0  0
 14 19  1  0  0  0
 14 21  1  0  0  0
 15 29  1  0  0  0
 16 30  1  0  0  0
 17 31  1  0  0  0
 18 20  2  0  0  0
 18 32  1  0  0  0
 19 33  1  0  0  0
 20 34  1  0  0  0
 21 23  1  0  0  0
 21 35  1  0  0  0
 21 36  1  0  0  0
 22 23  2  0  0  0
 22 24  1  0  0  0
 22 25  1  0  0  0
 23 37  1  0  0  0
 24 38  1  0  0  0
 24 39  1  0  0  0
 24 40  1  0  0  0
 25 41  1  0  0  0
 25 42  1  0  0  0
 25 43  1  0  0  0
M  END
> <Tumorigenic>
none

> <Score>
44.071728

> <Active/Decoy>
active

> <InChI>
InChI=1S/C20H18O5/c1-11(2)3-4-12-7-13(5-6-15(12)22)18-10-17(24)20-16(23)8-14(21)9-19(20)25-18/h3,5-10,21-23H,4H2,1-2H3

> <Matching Features>
H:14924486185440016873|HBA:149238150533300697|HBA:14924321692640012300|HBA:14924486112070016868

> <Mol. Index>
267

> <Pharmacophore Match>
Model -1

> <# Confs.>
25

> <Source Database>
Pharm-Screening-input-EANPDB_After_DataWarror.ldb

> <Pharmacophore-Fit Score>
44.07

> <formula>
C20H18O5

> <Mutagenic>
none

> <Reproductive Effective>
none

> <Irritant>
none

$$$$
knipholone anthrone
XX    ILIB03122411353D

 51 54  0  0  1  0              1 V2000
    3.9121   -0.6793    1.0927 O   0  0  0  0  0
    1.3338    1.5506   -2.2665 O   0  0  0  0  0
   -0.5963    0.7826    2.0335 O   0  0  0  0  0
   -4.4120    3.7281   -1.8420 O   0  0  0  0  0
   -6.5051   -0.7867   -2.9649 O   0  0  0  0  0
   -5.0414    1.4838   -2.9953 O   0  0  0  0  0
    4.3093    1.2256   -1.9755 O   0  0  0  0  0
    2.7281   -0.0883    0.7479 C   0  0  0  0  0
    1.4468    1.0457   -0.9947 C   0  0  0  0  0
    0.4576    0.6569    1.1608 C   0  0  0  0  0
   -3.2672    3.0868   -1.4522 C   0  0  0  0  0
   -5.3201   -1.3215   -2.5409 C   0  0  0  0  0
    0.3239    1.1580   -0.1396 C   0  0  0  0  0
   -0.9026    1.8074   -0.5961 C   0  0  0  0  0
    2.6204    0.3982   -0.5652 C   0  0  0  0  0
   -3.1176    1.7095   -1.6513 C   0  0  0  0  0
   -4.1919   -0.5528   -2.2133 C   0  0  0  0  0
   -1.9488    1.0613   -1.2118 C   0  0  0  0  0
   -1.0825    3.2116   -0.4029 C   0  0  0  0  0
   -3.0302   -1.1893   -1.7646 C   0  0  0  0  0
    1.6357    0.0428    1.6072 C   0  0  0  0  0
   -2.2563    3.8311   -0.8496 C   0  0  0  0  0
   -5.2875   -2.7140   -2.4330 C   0  0  0  0  0
   -3.0077   -2.5906   -1.6673 C   0  0  0  0  0
   -4.1307   -3.3485   -1.9967 C   0  0  0  0  0
   -4.1797    0.9230   -2.3308 C   0  0  0  0  0
    3.7731    0.2393   -1.4783 C   0  0  0  0  0
    3.9780   -1.1818    2.4248 C   0  0  0  0  0
   -1.7681   -0.4298   -1.4380 C   0  0  0  0  0
   -0.0149    4.0665    0.2377 C   0  0  0  0  0
    4.2474   -1.1584   -1.7866 C   0  0  0  0  0
    2.2116    1.6096   -2.6755 H   0  0  0  0  0
   -0.3490    0.3856    2.8858 H   0  0  0  0  0
   -4.3417    4.6709   -1.6140 H   0  0  0  0  0
   -6.4408    0.1827   -2.9585 H   0  0  0  0  0
    1.6725   -0.3245    2.6281 H   0  0  0  0  0
   -2.3962    4.8987   -0.6917 H   0  0  0  0  0
   -6.1617   -3.3074   -2.6866 H   0  0  0  0  0
   -2.1068   -3.1016   -1.3358 H   0  0  0  0  0
   -4.1002   -4.4295   -1.9144 H   0  0  0  0  0
    4.9590   -1.6485    2.5559 H   0  0  0  0  0
    3.8883   -0.3667    3.1506 H   0  0  0  0  0
    3.2204   -1.9531    2.6022 H   0  0  0  0  0
   -1.0695   -0.5643   -2.2684 H   0  0  0  0  0
   -1.3519   -0.8764   -0.5360 H   0  0  0  0  0
    0.1221    3.7768    1.2799 H   0  0  0  0  0
   -0.3001    5.1288    0.2279 H   0  0  0  0  0
    0.9268    3.9845   -0.3053 H   0  0  0  0  0
    4.4515   -1.7095   -0.8652 H   0  0  0  0  0
    3.5034   -1.6807   -2.3922 H   0  0  0  0  0
    5.1818   -1.1023   -2.3541 H   0  0  0  0  0
  1  8  1  0  0  0
  1 28  1  0  0  0
  2  9  1  0  0  0
  2 32  1  0  0  0
  3 10  1  0  0  0
  3 33  1  0  0  0
  4 11  1  0  0  0
  4 34  1  0  0  0
  5 12  1  0  0  0
  5 35  1  0  0  0
  6 26  2  0  0  0
  7 27  2  0  0  0
  8 15  2  0  0  0
  8 21  1  0  0  0
  9 13  2  0  0  0
  9 15  1  0  0  0
 10 13  1  0  0  0
 10 21  2  0  0  0
 11 16  2  0  0  0
 11 22  1  0  0  0
 12 17  2  0  0  0
 12 23  1  0  0  0
 13 14  1  0  0  0
 14 18  2  0  0  0
 14 19  1  0  0  0
 15 27  1  0  0  0
 16 18  1  0  0  0
 16 26  1  0  0  0
 17 20  1  0  0  0
 17 26  1  0  0  0
 18 29  1  0  0  0
 19 22  2  0  0  0
 19 30  1  0  0  0
 20 24  2  0  0  0
 20 29  1  0  0  0
 21 36  1  0  0  0
 22 37  1  0  0  0
 23 25  2  0  0  0
 23 38  1  0  0  0
 24 25  1  0  0  0
 24 39  1  0  0  0
 25 40  1  0  0  0
 27 31  1  0  0  0
 28 41  1  0  0  0
 28 42  1  0  0  0
 28 43  1  0  0  0
 29 44  1  0  0  0
 29 45  1  0  0  0
 30 46  1  0  0  0
 30 47  1  0  0  0
 30 48  1  0  0  0
 31 49  1  0  0  0
 31 50  1  0  0  0
 31 51  1  0  0  0
M  END
> <Tumorigenic>
none

> <Score>
43.952477

> <Active/Decoy>
active

> <InChI>
InChI=1S/C24H20O7/c1-10-7-15(27)21-13(8-12-5-4-6-14(26)20(12)24(21)30)18(10)22-16(28)9-17(31-3)19(11(2)25)23(22)29/h4-7,9,26-29H,8H2,1-3H3

> <Matching Features>
H:14924486185440016873|HBA:149238150533300697|HBA:14924321692640012300|HBA:14924486112070016868

> <Mol. Index>
60

> <Pharmacophore Match>
Model -1

> <# Confs.>
12

> <Source Database>
Pharm-Screening-input-EANPDB_After_DataWarror.ldb

> <Pharmacophore-Fit Score>
43.95

> <formula>
C24H20O7

> <Mutagenic>
none

> <Reproductive Effective>
none

> <Irritant>
none

$$$$
3-(3,4-dimethoxyphenyl)-8-(3-methylbut-2-enyl)-6-methoxy-7-hydroxybenzopyran-4-one
XX    ILIB03122411353D

 53 55  0  0  1  0              1 V2000
    0.1400   -1.1076    0.1723 O   0  0  0  0  0
   -0.5206    0.5161   -3.4985 O   0  0  0  0  0
   -5.6326    1.5533   -3.1117 O   0  0  0  0  0
   -6.7857   -0.7520   -3.4735 O   0  0  0  0  0
    4.4271    1.3257   -2.3593 O   0  0  0  0  0
    4.7288    0.1787    0.0437 O   0  0  0  0  0
    1.1691   -0.4843   -0.4895 C   0  0  0  0  0
   -1.1016   -1.1117   -0.4103 C   0  0  0  0  0
   -0.3453    0.0454   -2.3823 C   0  0  0  0  0
   -4.8732    0.4547   -2.8291 C   0  0  0  0  0
   -5.4934   -0.7850   -3.0293 C   0  0  0  0  0
    3.3159    0.7548   -1.8077 C   0  0  0  0  0
    3.4907    0.1636   -0.5479 C   0  0  0  0  0
    0.9853    0.1005   -1.7436 C   0  0  0  0  0
   -1.4536   -0.5945   -1.5949 C   0  0  0  0  0
   -2.8268   -0.6579   -2.0912 C   0  0  0  0  0
    2.4271   -0.4544    0.1346 C   0  0  0  0  0
    2.0523    0.7217   -2.4038 C   0  0  0  0  0
   -3.5501    0.5058   -2.3609 C   0  0  0  0  0
   -4.7832   -1.9608   -2.7605 C   0  0  0  0  0
   -3.4651   -1.8990   -2.3003 C   0  0  0  0  0
   -4.9896    2.8091   -2.9107 C   0  0  0  0  0
   -7.4012   -2.0232   -3.6648 C   0  0  0  0  0
    4.2360    1.9226   -3.6387 C   0  0  0  0  0
    2.6446   -1.0984    1.4754 C   0  0  0  0  0
    1.4861   -0.2909    3.6072 C   0  0  0  0  0
    2.3888   -0.1607    2.6159 C   0  0  0  0  0
    1.3438    0.7833    4.6521 C   0  0  0  0  0
    0.5686   -1.4642    3.7924 C   0  0  0  0  0
    5.3455    0.6375   -0.5526 H   0  0  0  0  0
   -1.7956   -1.6022    0.2617 H   0  0  0  0  0
    1.8855    1.1705   -3.3793 H   0  0  0  0  0
   -3.0703    1.4678   -2.1965 H   0  0  0  0  0
   -5.2207   -2.9452   -2.9048 H   0  0  0  0  0
   -2.9496   -2.8392   -2.1136 H   0  0  0  0  0
   -5.7012    3.5954   -3.1805 H   0  0  0  0  0
   -4.7185    2.9501   -1.8586 H   0  0  0  0  0
   -4.1140    2.9133   -3.5608 H   0  0  0  0  0
   -8.4231   -1.8484   -4.0145 H   0  0  0  0  0
   -6.8781   -2.6033   -4.4326 H   0  0  0  0  0
   -7.4607   -2.5793   -2.7228 H   0  0  0  0  0
    5.1938    2.3448   -3.9555 H   0  0  0  0  0
    3.9366    1.1762   -4.3824 H   0  0  0  0  0
    3.5088    2.7414   -3.5881 H   0  0  0  0  0
    2.0093   -1.9909    1.5509 H   0  0  0  0  0
    3.6763   -1.4636    1.5418 H   0  0  0  0  0
    3.0040    0.7397    2.6026 H   0  0  0  0  0
    0.3192    1.1685    4.6601 H   0  0  0  0  0
    2.0134    1.6310    4.4739 H   0  0  0  0  0
    1.5719    0.3809    5.6438 H   0  0  0  0  0
    0.6772   -1.8704    4.8035 H   0  0  0  0  0
   -0.4730   -1.1532    3.6589 H   0  0  0  0  0
    0.7638   -2.2856    3.1001 H   0  0  0  0  0
  1  7  1  0  0  0
  1  8  1  0  0  0
  2  9  2  0  0  0
  3 10  1  0  0  0
  3 22  1  0  0  0
  4 11  1  0  0  0
  4 23  1  0  0  0
  5 12  1  0  0  0
  5 24  1  0  0  0
  6 13  1  0  0  0
  6 30  1  0  0  0
  7 14  2  0  0  0
  7 17  1  0  0  0
  8 15  2  0  0  0
  8 31  1  0  0  0
  9 14  1  0  0  0
  9 15  1  0  0  0
 10 11  2  0  0  0
 10 19  1  0  0  0
 11 20  1  0  0  0
 12 13  1  0  0  0
 12 18  2  0  0  0
 13 17  2  0  0  0
 14 18  1  0  0  0
 15 16  1  0  0  0
 16 19  2  0  0  0
 16 21  1  0  0  0
 17 25  1  0  0  0
 18 32  1  0  0  0
 19 33  1  0  0  0
 20 21  2  0  0  0
 20 34  1  0  0  0
 21 35  1  0  0  0
 22 36  1  0  0  0
 22 37  1  0  0  0
 22 38  1  0  0  0
 23 39  1  0  0  0
 23 40  1  0  0  0
 23 41  1  0  0  0
 24 42  1  0  0  0
 24 43  1  0  0  0
 24 44  1  0  0  0
 25 27  1  0  0  0
 25 45  1  0  0  0
 25 46  1  0  0  0
 26 27  2  0  0  0
 26 28  1  0  0  0
 26 29  1  0  0  0
 27 47  1  0  0  0
 28 48  1  0  0  0
 28 49  1  0  0  0
 28 50  1  0  0  0
 29 51  1  0  0  0
 29 52  1  0  0  0
 29 53  1  0  0  0
M  END
> <Tumorigenic>
none

> <Score>
43.943428

> <Active/Decoy>
active

> <InChI>
InChI=1S/C23H24O6/c1-13(2)6-8-15-22(25)20(28-5)11-16-21(24)17(12-29-23(15)16)14-7-9-18(26-3)19(10-14)27-4/h6-7,9-12,25H,8H2,1-5H3

> <Matching Features>
H:14924486185440016873|HBA:149238150533300697|HBA:14924321692640012300|HBA:14924486112070016868

> <Mol. Index>
232

> <Pharmacophore Match>
Model -1

> <# Confs.>
25

> <Source Database>
Pharm-Screening-input-EANPDB_After_DataWarror.ldb

> <Pharmacophore-Fit Score>
43.94

> <formula>
C23H24O6

> <Mutagenic>
none

> <Reproductive Effective>
none

> <Irritant>
none

$$$$
5,7-dihydroxy-4'-methoxy-3?-(3-hydroxy-3-methylbut-1-enyl)-5?-(3-methylbut-2-enyl)flavanone
XX    ILIB03122411353D

 58 60  0  0  1  0              1 V2000
   -2.2782   -0.8906   -1.1733 O   0  0  0  0  0
    3.6273    1.3062   -1.4639 O   0  0  0  0  0
   -6.7789   -0.4176   -2.9110 O   0  0  0  0  0
   -5.6357   -3.9333    0.1274 O   0  0  0  0  0
   -4.8494    1.2936   -3.4970 O   0  0  0  0  0
   -3.5909   -1.2682   -1.2918 C   0  0  0  0  0
    2.3098    0.9548   -1.6195 C   0  0  0  0  0
   -5.8467   -1.0590   -2.1419 C   0  0  0  0  0
   -5.2909   -2.8352   -0.6109 C   0  0  0  0  0
   -0.3669    0.2270   -2.0575 C   0  0  0  0  0
   -4.5291   -0.5885   -2.0824 C   0  0  0  0  0
    1.4391    0.8294   -0.5093 C   0  0  0  0  0
    1.8572    0.7320   -2.9319 C   0  0  0  0  0
   -3.9769   -2.3825   -0.5434 C   0  0  0  0  0
   -6.2310   -2.1862   -1.4097 C   0  0  0  0  0
    0.1134    0.4457   -0.7582 C   0  0  0  0  0
    0.5139    0.3797   -3.1347 C   0  0  0  0  0
   -1.8032   -0.1480   -2.3043 C   0  0  2  0  0
   -4.0893    0.6412   -2.7915 C   0  0  0  0  0
    1.8817    1.0278    0.9050 C   0  0  0  0  0
    2.7620    0.8895   -4.1216 C   0  0  0  0  0
   -2.6722    1.0830   -2.5354 C   0  0  0  0  0
    3.6385   -0.4308    2.0487 C   0  0  0  0  0
    2.3936    2.6686   -5.9201 C   0  0  0  0  0
    2.3991   -0.2162    1.5440 C   0  0  0  0  0
    2.7469    2.2796   -4.6805 C   0  0  0  0  0
    3.9995   -1.7768    2.6163 C   0  0  0  0  0
    4.7391    0.5894    2.1204 C   0  0  0  0  0
    2.4839    4.1172   -6.3181 C   0  0  0  0  0
    1.8812    1.7586   -6.9995 C   0  0  0  0  0
    3.8430    1.3863   -0.5219 H   0  0  0  0  0
   -7.6291   -0.8832   -2.8304 H   0  0  0  0  0
   -6.5769   -4.1235   -0.0224 H   0  0  0  0  0
   -3.2520   -2.8995    0.0812 H   0  0  0  0  0
   -7.2535   -2.5484   -1.4544 H   0  0  0  0  0
   -0.5701    0.3423    0.0836 H   0  0  0  0  0
    0.1526    0.2152   -4.1485 H   0  0  0  0  0
   -1.8387   -0.8149   -3.1793 H   0  0  0  0  0
    2.6410    1.8356    0.9265 H   0  0  0  0  0
    1.0422    1.4100    1.4937 H   0  0  0  0  0
    3.7798    0.5900   -3.8400 H   0  0  0  0  0
    2.4544    0.1892   -4.9089 H   0  0  0  0  0
   -2.3159    1.6471   -3.4052 H   0  0  0  0  0
   -2.6849    1.7472   -1.6637 H   0  0  0  0  0
    1.6986   -1.0385    1.5596 H   0  0  0  0  0
    3.0941    3.0459   -3.9868 H   0  0  0  0  0
    4.8643   -2.1911    2.0876 H   0  0  0  0  0
    3.1817   -2.4999    2.5305 H   0  0  0  0  0
    4.2515   -1.6855    3.6773 H   0  0  0  0  0
    5.1067    0.6724    3.1478 H   0  0  0  0  0
    5.5752    0.2878    1.4803 H   0  0  0  0  0
    4.4272    1.5899    1.8140 H   0  0  0  0  0
    3.1459    4.2313   -7.1839 H   0  0  0  0  0
    2.8793    4.7478   -5.5155 H   0  0  0  0  0
    1.4936    4.5001   -6.5847 H   0  0  0  0  0
    0.9233    2.1305   -7.3819 H   0  0  0  0  0
    2.5915    1.7228   -7.8329 H   0  0  0  0  0
    1.7080    0.7341   -6.6626 H   0  0  0  0  0
  1  6  1  0  0  0
  1 18  1  0  0  0
  2  7  1  0  0  0
  2 31  1  0  0  0
  3  8  1  0  0  0
  3 32  1  0  0  0
  4  9  1  0  0  0
  4 33  1  0  0  0
  5 19  2  0  0  0
  6 11  2  0  0  0
  6 14  1  0  0  0
  7 12  2  0  0  0
  7 13  1  0  0  0
  8 11  1  0  0  0
  8 15  2  0  0  0
  9 14  2  0  0  0
  9 15  1  0  0  0
 10 16  2  0  0  0
 10 17  1  0  0  0
 10 18  1  0  0  0
 11 19  1  0  0  0
 12 16  1  0  0  0
 12 20  1  0  0  0
 13 17  2  0  0  0
 13 21  1  0  0  0
 14 34  1  0  0  0
 15 35  1  0  0  0
 16 36  1  0  0  0
 17 37  1  0  0  0
 18 22  1  0  0  0
 18 38  1  0  0  0
 19 22  1  0  0  0
 20 25  1  0  0  0
 20 39  1  0  0  0
 20 40  1  0  0  0
 21 26  1  0  0  0
 21 41  1  0  0  0
 21 42  1  0  0  0
 22 43  1  0  0  0
 22 44  1  0  0  0
 23 25  2  0  0  0
 23 27  1  0  0  0
 23 28  1  0  0  0
 24 26  2  0  0  0
 24 29  1  0  0  0
 24 30  1  0  0  0
 25 45  1  0  0  0
 26 46  1  0  0  0
 27 47  1  0  0  0
 27 48  1  0  0  0
 27 49  1  0  0  0
 28 50  1  0  0  0
 28 51  1  0  0  0
 28 52  1  0  0  0
 29 53  1  0  0  0
 29 54  1  0  0  0
 29 55  1  0  0  0
 30 56  1  0  0  0
 30 57  1  0  0  0
 30 58  1  0  0  0
M  END
> <Tumorigenic>
none

> <Score>
43.816532

> <Active/Decoy>
active

> <InChI>
InChI=1S/C25H28O5/c1-14(2)5-7-16-9-18(10-17(25(16)29)8-6-15(3)4)22-13-21(28)24-20(27)11-19(26)12-23(24)30-22/h5-6,9-12,22,26-27,29H,7-8,13H2,1-4H3/t22-/m0/s1

> <Matching Features>
H:14924486185440016873|HBA:149238150533300697|HBA:14924321692640012300|HBA:14924486112070016868

> <Mol. Index>
246

> <Pharmacophore Match>
Model -1

> <# Confs.>
25

> <Source Database>
Pharm-Screening-input-EANPDB_After_DataWarror.ldb

> <Pharmacophore-Fit Score>
43.82

> <formula>
C25H28O5

> <Mutagenic>
none

> <Reproductive Effective>
none

> <Irritant>
none

$$$$
5,7-dihydroxy-4'-methoxy-3'-(3-methylbutadienyl)-5'-(3-methylbut-2-enyl)flavanone
XX    ILIB03122411353D

 59 61  0  0  1  0              1 V2000
   -1.7430   -1.3697   -2.9083 O   0  0  0  0  0
    3.9049    1.3633   -2.4632 O   0  0  0  0  0
   -6.5150   -0.5924   -3.2546 O   0  0  0  0  0
   -4.6896   -5.0128   -3.4249 O   0  0  0  0  0
   -4.7872    1.3696   -2.8601 O   0  0  0  0  0
   -3.0441   -1.7812   -3.0528 C   0  0  0  0  0
    2.6037    1.0238   -2.7036 C   0  0  0  0  0
   -5.4304   -1.4259   -3.2291 C   0  0  0  0  0
   -4.5302   -3.6591   -3.3157 C   0  0  0  0  0
   -0.0844    0.3341   -3.1137 C   0  0  0  0  0
   -4.1379   -0.9058   -3.0685 C   0  0  0  0  0
    1.9083    1.6214   -3.7712 C   0  0  0  0  0
    1.9834    0.1094   -1.8304 C   0  0  0  0  0
   -3.2412   -3.1602   -3.1597 C   0  0  0  0  0
   -5.6275   -2.8029   -3.3571 C   0  0  0  0  0
    0.5534    1.2548   -3.9578 C   0  0  0  0  0
    0.6394   -0.2251   -2.0511 C   0  0  0  0  0
   -1.5293   -0.0195   -3.3408 C   0  0  2  0  0
   -3.8847    0.5421   -2.8644 C   0  0  0  0  0
    4.2633    2.6959   -2.8200 C   0  0  0  0  0
    2.5116    2.6511   -4.6109 C   0  0  0  0  0
    2.7015   -0.4871   -0.6529 C   0  0  0  0  0
   -2.4546    0.9323   -2.5907 C   0  0  0  0  0
    2.0061   -0.0450    1.7671 C   0  0  0  0  0
    3.7757    3.3835   -6.6207 C   0  0  0  0  0
    3.1541    2.3877   -5.7724 C   0  0  0  0  0
    2.5488    0.3310    0.5937 C   0  0  0  0  0
    4.4037    3.0803   -7.7682 C   0  0  0  0  0
    1.8991    0.9364    2.9042 C   0  0  0  0  0
    1.4797   -1.4164    2.0775 C   0  0  0  0  0
    3.6354    4.8050   -6.1571 C   0  0  0  0  0
   -7.3193   -1.1263   -3.3739 H   0  0  0  0  0
   -5.6373   -5.2061   -3.5251 H   0  0  0  0  0
   -2.3922   -3.8380   -3.1318 H   0  0  0  0  0
   -6.6310   -3.2050   -3.4792 H   0  0  0  0  0
   -0.0279    1.7128   -4.7559 H   0  0  0  0  0
    0.1471   -0.9254   -1.3787 H   0  0  0  0  0
   -1.7301    0.0191   -4.4216 H   0  0  0  0  0
    5.3192    2.8345   -2.5685 H   0  0  0  0  0
    4.1513    2.8603   -3.8967 H   0  0  0  0  0
    3.6843    3.4279   -2.2462 H   0  0  0  0  0
    2.4353    3.6639   -4.2522 H   0  0  0  0  0
    2.3430   -1.5130   -0.4957 H   0  0  0  0  0
    3.7700   -0.5796   -0.8861 H   0  0  0  0  0
   -2.2989    1.9632   -2.9261 H   0  0  0  0  0
   -2.3014    0.8855   -1.5061 H   0  0  0  0  0
    3.2442    1.3611   -6.1232 H   0  0  0  0  0
    2.9035    1.3576    0.5019 H   0  0  0  0  0
    4.8482    3.8536   -8.3849 H   0  0  0  0  0
    4.5042    2.0585   -8.1190 H   0  0  0  0  0
    0.8531    1.0475    3.2086 H   0  0  0  0  0
    2.2743    1.9289    2.6364 H   0  0  0  0  0
    2.4766    0.5843    3.7643 H   0  0  0  0  0
    1.9530   -1.8030    2.9878 H   0  0  0  0  0
    0.3982   -1.3777    2.2448 H   0  0  0  0  0
    1.6704   -2.1460    1.2881 H   0  0  0  0  0
    4.1055    5.5110   -6.8493 H   0  0  0  0  0
    2.5768    5.0762   -6.0753 H   0  0  0  0  0
    4.1048    4.9431   -5.1769 H   0  0  0  0  0
  1  6  1  0  0  0
  1 18  1  0  0  0
  2  7  1  0  0  0
  2 20  1  0  0  0
  3  8  1  0  0  0
  3 32  1  0  0  0
  4  9  1  0  0  0
  4 33  1  0  0  0
  5 19  2  0  0  0
  6 11  2  0  0  0
  6 14  1  0  0  0
  7 12  2  0  0  0
  7 13  1  0  0  0
  8 11  1  0  0  0
  8 15  2  0  0  0
  9 14  2  0  0  0
  9 15  1  0  0  0
 10 16  2  0  0  0
 10 17  1  0  0  0
 10 18  1  0  0  0
 11 19  1  0  0  0
 12 16  1  0  0  0
 12 21  1  0  0  0
 13 17  2  0  0  0
 13 22  1  0  0  0
 14 34  1  0  0  0
 15 35  1  0  0  0
 16 36  1  0  0  0
 17 37  1  0  0  0
 18 23  1  0  0  0
 18 38  1  0  0  0
 19 23  1  0  0  0
 20 39  1  0  0  0
 20 40  1  0  0  0
 20 41  1  0  0  0
 21 26  2  0  0  0
 21 42  1  0  0  0
 22 27  1  0  0  0
 22 43  1  0  0  0
 22 44  1  0  0  0
 23 45  1  0  0  0
 23 46  1  0  0  0
 24 27  2  0  0  0
 24 29  1  0  0  0
 24 30  1  0  0  0
 25 26  1  0  0  0
 25 28  2  0  0  0
 25 31  1  0  0  0
 26 47  1  0  0  0
 27 48  1  0  0  0
 28 49  1  0  0  0
 28 50  1  0  0  0
 29 51  1  0  0  0
 29 52  1  0  0  0
 29 53  1  0  0  0
 30 54  1  0  0  0
 30 55  1  0  0  0
 30 56  1  0  0  0
 31 57  1  0  0  0
 31 58  1  0  0  0
 31 59  1  0  0  0
M  END
> <Tumorigenic>
none

> <Score>
43.649822

> <Active/Decoy>
active

> <InChI>
InChI=1S/C26H28O5/c1-15(2)6-8-17-10-19(11-18(26(17)30-5)9-7-16(3)4)23-14-22(29)25-21(28)12-20(27)13-24(25)31-23/h6-8,10-13,23,27-28H,1,9,14H2,2-5H3/b8-6+/t23-/m0/s1

> <Matching Features>
H:14924486185440016873|HBA:149238150533300697|HBA:14924321692640012300|HBA:14924486112070016868

> <Mol. Index>
249

> <Pharmacophore Match>
Model -1

> <# Confs.>
25

> <Source Database>
Pharm-Screening-input-EANPDB_After_DataWarror.ldb

> <Pharmacophore-Fit Score>
43.65

> <formula>
C26H28O5

> <Mutagenic>
none

> <Reproductive Effective>
none

> <Irritant>
none

$$$$
aloenin acetal
XX    ILIB03122411353D

 55 58  0  0  1  0              1 V2000
    1.8434    0.4759   -1.0383 O   0  0  0  0  0
    3.3655    1.4109   -2.4391 O   0  0  0  0  0
   -1.2552   -0.7591   -1.3356 O   0  0  0  0  0
    0.2681    4.2073   -0.1151 O   0  0  0  0  0
   -1.2110   -4.1242    2.1077 O   0  0  0  0  0
   -4.6579    0.8829   -3.9480 O   0  0  0  0  0
   -6.2462    0.0503   -2.3368 O   0  0  0  0  0
   -3.1830   -1.9443   -2.1413 O   0  0  0  0  0
   -1.6846   -2.1868   -4.6487 O   0  0  0  0  0
   -2.1912    0.4323   -5.4094 O   0  0  0  0  0
    2.4221    1.5422   -1.6667 C   0  0  0  0  0
    0.7648    0.6545   -0.1226 C   0  0  0  0  0
   -0.7768   -1.3013   -0.1675 C   0  0  0  0  0
    0.8688    3.0304   -0.4908 C   0  0  0  0  0
   -0.7110   -2.9640    1.5838 C   0  0  0  0  0
    0.2627   -0.6030    0.4677 C   0  0  0  0  0
    0.8204   -1.0905    1.6767 C   0  0  0  0  0
    1.8838    2.8826   -1.3568 C   0  0  0  0  0
    0.2931    1.8731    0.1480 C   0  0  0  0  0
   -1.2583   -2.4890    0.3948 C   0  0  0  0  0
    0.3173   -2.2781    2.2245 C   0  0  0  0  0
   -6.0341    0.6379   -3.6271 C   0  0  2  0  0
   -1.7747   -1.6807   -2.2948 C   0  0  1  0  0
   -3.8449   -0.2797   -3.7895 C   0  0  1  0  0
   -1.4795   -1.1359   -3.7017 C   0  0  2  0  0
   -2.3777    0.0595   -4.0472 C   0  0  1  0  0
   -3.9914   -0.7939   -2.3595 C   0  0  1  0  0
   -5.4576   -1.1158   -2.1099 C   0  0  0  0  0
    0.7894    5.3894   -0.7151 C   0  0  0  0  0
    1.9363   -0.3781    2.3951 C   0  0  0  0  0
   -6.7569   -0.1313   -4.7265 C   0  0  0  0  0
   -0.7252   -4.3297    2.9251 H   0  0  0  0  0
   -2.5591   -2.5773   -4.4842 H   0  0  0  0  0
   -2.4021   -0.3413   -5.9581 H   0  0  0  0  0
    2.3504    3.7157   -1.8693 H   0  0  0  0  0
   -0.5268    2.0348    0.8402 H   0  0  0  0  0
   -2.0656   -3.0539   -0.0624 H   0  0  0  0  0
    0.7328   -2.6716    3.1485 H   0  0  0  0  0
   -6.4992    1.6279   -3.5765 H   0  0  0  0  0
   -1.2633   -2.6479   -2.1909 H   0  0  0  0  0
   -4.1618   -1.0324   -4.5213 H   0  0  0  0  0
   -0.4301   -0.8347   -3.7907 H   0  0  0  0  0
   -2.0905    0.9294   -3.4437 H   0  0  0  0  0
   -3.7079   -0.0016   -1.6527 H   0  0  0  0  0
   -5.8078   -1.9440   -2.7363 H   0  0  0  0  0
   -5.6043   -1.4322   -1.0721 H   0  0  0  0  0
    0.2204    6.2400   -0.3283 H   0  0  0  0  0
    1.8405    5.5366   -0.4466 H   0  0  0  0  0
    0.6638    5.3662   -1.8026 H   0  0  0  0  0
    2.8245   -0.3306    1.7670 H   0  0  0  0  0
    1.6242    0.6391    2.6732 H   0  0  0  0  0
    2.2100   -0.8922    3.3221 H   0  0  0  0  0
   -7.8261   -0.2089   -4.4999 H   0  0  0  0  0
   -6.6274    0.3653   -5.6927 H   0  0  0  0  0
   -6.3808   -1.1520   -4.8338 H   0  0  0  0  0
  1 11  1  0  0  0
  1 12  1  0  0  0
  2 11  2  0  0  0
  3 13  1  0  0  0
  3 23  1  0  0  0
  4 14  1  0  0  0
  4 29  1  0  0  0
  5 15  1  0  0  0
  5 32  1  0  0  0
  6 22  1  0  0  0
  6 24  1  0  0  0
  7 22  1  0  0  0
  7 28  1  0  0  0
  8 23  1  0  0  0
  8 27  1  0  0  0
  9 25  1  0  0  0
  9 33  1  0  0  0
 10 26  1  0  0  0
 10 34  1  0  0  0
 11 18  1  0  0  0
 12 16  1  0  0  0
 12 19  2  0  0  0
 13 16  2  0  0  0
 13 20  1  0  0  0
 14 18  2  0  0  0
 14 19  1  0  0  0
 15 20  2  0  0  0
 15 21  1  0  0  0
 16 17  1  0  0  0
 17 21  2  0  0  0
 17 30  1  0  0  0
 18 35  1  0  0  0
 19 36  1  0  0  0
 20 37  1  0  0  0
 21 38  1  0  0  0
 22 31  1  0  0  0
 22 39  1  0  0  0
 23 25  1  0  0  0
 23 40  1  0  0  0
 24 26  1  0  0  0
 24 27  1  0  0  0
 24 41  1  0  0  0
 25 26  1  0  0  0
 25 42  1  0  0  0
 26 43  1  0  0  0
 27 28  1  0  0  0
 27 44  1  0  0  0
 28 45  1  0  0  0
 28 46  1  0  0  0
 29 47  1  0  0  0
 29 48  1  0  0  0
 29 49  1  0  0  0
 30 50  1  0  0  0
 30 51  1  0  0  0
 30 52  1  0  0  0
 31 53  1  0  0  0
 31 54  1  0  0  0
 31 55  1  0  0  0
M  END
> <Tumorigenic>
none

> <Score>
43.59742

> <Active/Decoy>
active

> <InChI>
InChI=1S/C21H24O10/c1-9-4-11(22)5-13(17(9)14-6-12(26-3)7-16(23)29-14)30-21-19(25)18(24)20-15(31-21)8-27-10(2)28-20/h4-7,10,15,18-22,24-25H,8H2,1-3H3/t10-,15+,18+,19-,20+,21-/m0/s1

> <Matching Features>
H:14924486185440016873|HBA:149238150533300697|HBA:14924321692640012300|HBA:14924486112070016868

> <Mol. Index>
91

> <Pharmacophore Match>
Model -1

> <# Confs.>
25

> <Source Database>
Pharm-Screening-input-EANPDB_After_DataWarror.ldb

> <Pharmacophore-Fit Score>
43.6

> <formula>
C21H24O10

> <Mutagenic>
none

> <Reproductive Effective>
none

> <Irritant>
none

$$$$
zataroside A
XX    ILIB03122411353D

 47 48  0  0  1  0              1 V2000
   -0.9163   -0.7029   -1.1407 O   0  0  0  0  0
    4.1425    1.3515   -2.1078 O   0  0  0  0  0
   -1.9711    1.1590   -2.1267 O   0  0  0  0  0
   -3.1331   -2.2927   -1.8243 O   0  0  0  0  0
   -5.6024   -0.7651   -2.0479 O   0  0  0  0  0
   -5.2378    1.5492   -3.7520 O   0  0  0  0  0
   -1.4747    3.5664   -3.4548 O   0  0  0  0  0
    0.3357   -0.2010   -1.4414 C   0  0  0  0  0
    2.8913    0.8444   -1.8879 C   0  0  0  0  0
    1.1934    0.0375   -0.3414 C   0  0  0  0  0
    2.0466    0.6217   -2.9773 C   0  0  0  0  0
    0.7661    0.1032   -2.7398 C   0  0  0  0  0
    2.4747    0.5573   -0.5865 C   0  0  0  0  0
   -1.8672   -0.2532   -2.1084 C   0  0  2  0  0
   -3.2178   -0.8732   -1.7070 C   0  0  1  0  0
   -4.3477   -0.3645   -2.6018 C   0  0  2  0  0
   -4.3184    1.1585   -2.7369 C   0  0  1  0  0
   -2.9057    1.6412   -3.0938 C   0  0  1  0  0
   -2.7899    3.1599   -3.1042 C   0  0  0  0  0
    0.8001   -0.2533    1.0864 C   0  0  0  0  0
    2.4855    0.9410   -4.3763 C   0  0  0  0  0
    0.7421    1.0216    1.9320 C   0  0  0  0  0
    1.7454   -1.2768    1.7202 C   0  0  0  0  0
    4.5971    1.4450   -1.2538 H   0  0  0  0  0
   -4.0024   -2.6566   -1.5843 H   0  0  0  0  0
   -5.6825   -0.3650   -1.1657 H   0  0  0  0  0
   -6.1111    1.2055   -3.4997 H   0  0  0  0  0
   -0.8742    3.2611   -2.7537 H   0  0  0  0  0
    0.1144   -0.0595   -3.5939 H   0  0  0  0  0
    3.1533    0.7405    0.2440 H   0  0  0  0  0
   -1.5805   -0.6379   -3.1066 H   0  0  0  0  0
   -3.4314   -0.6501   -0.6544 H   0  0  0  0  0
   -4.2934   -0.8359   -3.5905 H   0  0  0  0  0
   -4.6474    1.6185   -1.7964 H   0  0  0  0  0
   -2.6310    1.2737   -4.0918 H   0  0  0  0  0
   -3.4775    3.5859   -3.8433 H   0  0  0  0  0
   -3.0537    3.5991   -2.1353 H   0  0  0  0  0
   -0.2084   -0.6879    1.0882 H   0  0  0  0  0
    1.7260    0.6575   -5.1123 H   0  0  0  0  0
    3.4019    0.3949   -4.6212 H   0  0  0  0  0
    2.6672    2.0162   -4.4801 H   0  0  0  0  0
    1.7250    1.4981    2.0234 H   0  0  0  0  0
    0.0559    1.7526    1.4908 H   0  0  0  0  0
    0.3871    0.7967    2.9441 H   0  0  0  0  0
    1.4183   -1.5290    2.7342 H   0  0  0  0  0
    2.7720   -0.8983    1.7843 H   0  0  0  0  0
    1.7691   -2.2035    1.1366 H   0  0  0  0  0
  1  8  1  0  0  0
  1 14  1  0  0  0
  2  9  1  0  0  0
  2 24  1  0  0  0
  3 14  1  0  0  0
  3 18  1  0  0  0
  4 15  1  0  0  0
  4 25  1  0  0  0
  5 16  1  0  0  0
  5 26  1  0  0  0
  6 17  1  0  0  0
  6 27  1  0  0  0
  7 19  1  0  0  0
  7 28  1  0  0  0
  8 10  2  0  0  0
  8 12  1  0  0  0
  9 11  1  0  0  0
  9 13  2  0  0  0
 10 13  1  0  0  0
 10 20  1  0  0  0
 11 12  2  0  0  0
 11 21  1  0  0  0
 12 29  1  0  0  0
 13 30  1  0  0  0
 14 15  1  0  0  0
 14 31  1  0  0  0
 15 16  1  0  0  0
 15 32  1  0  0  0
 16 17  1  0  0  0
 16 33  1  0  0  0
 17 18  1  0  0  0
 17 34  1  0  0  0
 18 19  1  0  0  0
 18 35  1  0  0  0
 19 36  1  0  0  0
 19 37  1  0  0  0
 20 22  1  0  0  0
 20 23  1  0  0  0
 20 38  1  0  0  0
 21 39  1  0  0  0
 21 40  1  0  0  0
 21 41  1  0  0  0
 22 42  1  0  0  0
 22 43  1  0  0  0
 22 44  1  0  0  0
 23 45  1  0  0  0
 23 46  1  0  0  0
 23 47  1  0  0  0
M  END
> <Tumorigenic>
none

> <Score>
43.325867

> <Active/Decoy>
active

> <InChI>
InChI=1S/C16H24O7/c1-7(2)9-5-10(18)8(3)4-11(9)22-16-15(21)14(20)13(19)12(6-17)23-16/h4-5,7,12-21H,6H2,1-3H3/t12-,13-,14+,15-,16-/m1/s1

> <Matching Features>
H:14924486185440016873|HBA:149238150533300697|HBA:14924321692640012300|HBA:14924486112070016868

> <Mol. Index>
161

> <Pharmacophore Match>
Model -1

> <# Confs.>
25

> <Source Database>
Pharm-Screening-input-EANPDB_After_DataWarror.ldb

> <Pharmacophore-Fit Score>
43.33

> <formula>
C16H24O7

> <Mutagenic>
none

> <Reproductive Effective>
none

> <Irritant>
none

$$$$
22-de-O-acetyl-26-deoxyneoboutomellerone
XX    ILIB03122411353D

 84 88  0  0  1  0              1 V2000
   -4.6987    2.8467    1.2869 O   0  0  0  0  0
    2.5138    4.2014    1.5054 O   0  0  0  0  0
   -3.8163    1.9768   -2.6149 O   0  0  0  0  0
   -4.1182    4.8339    2.3095 O   0  0  0  0  0
   -6.0543    0.7377   -3.4494 O   0  0  0  0  0
    5.6135    1.5258   -1.6008 O   0  0  0  0  0
   -3.3300    2.5588    0.9475 C   0  0  2  0  0
    1.7479    3.1731    0.8806 C   0  0  1  0  0
   -4.8473    1.7790   -1.6532 C   0  0  2  0  0
   -3.1724    1.2171    0.1876 C   0  0  1  0  0
    2.6871    2.0391    0.4209 C   0  0  1  0  0
    1.9663    0.7097    0.1289 C   0  0  2  0  0
   -2.4464    0.2511    1.1998 C   0  0  2  0  0
    0.4857    0.5272    0.5435 C   0  0  2  0  0
   -1.5180    1.2565    2.0028 C   0  0  1  0  0
   -4.4322    0.7617   -0.5978 C   0  0  2  0  0
   -0.2740    1.7190    1.1390 C   0  0  1  0  0
    3.5898    2.5182   -0.7527 C   0  0  1  0  0
   -4.9477    4.0044    1.9603 C   0  0  0  0  0
   -6.1033    1.3605   -2.3906 C   0  0  0  0  0
    4.4342    1.3793   -1.2923 C   0  0  0  0  0
   -2.4904    2.4372    2.2261 C   0  0  0  0  0
    0.6693    2.7055    1.8506 C   0  0  0  0  0
    1.5733   -0.1240    1.3547 C   0  0  0  0  0
    2.6042   -0.1478   -0.9104 C   0  0  0  0  0
   -1.6004   -0.8590    0.5342 C   0  0  0  0  0
   -0.4153   -0.3635   -0.2864 C   0  0  0  0  0
   -3.4701   -0.4745    2.1072 C   0  0  0  0  0
   -1.0642    0.7110    3.3722 C   0  0  0  0  0
   -4.2699   -0.6454   -1.1946 C   0  0  0  0  0
    2.8490    3.1531   -1.9340 C   0  0  0  0  0
   -7.3944    1.7222   -1.7536 C   0  0  0  0  0
    3.7576    0.0932   -1.5419 C   0  0  0  0  0
   -7.9055    2.9154   -2.0932 C   0  0  0  0  0
   -8.0406    0.7230   -0.8339 C   0  0  0  0  0
   -6.4156    4.1180    2.2407 C   0  0  0  0  0
   -8.1435    1.2937    0.5798 C   0  0  0  0  0
   -9.4221    0.3359   -1.3582 C   0  0  0  0  0
    2.9352    3.8239    2.2957 H   0  0  0  0  0
   -3.6314    1.1289   -3.0525 H   0  0  0  0  0
   -2.9403    3.3659    0.3113 H   0  0  0  0  0
    1.2403    3.6326    0.0278 H   0  0  0  0  0
   -5.0442    2.7450   -1.1967 H   0  0  0  0  0
   -2.4369    1.4314   -0.6073 H   0  0  0  0  0
    3.3826    1.8264    1.2484 H   0  0  0  0  0
   -5.2463    0.7079    0.1262 H   0  0  0  0  0
   -0.6598    2.2729    0.2729 H   0  0  0  0  0
    4.2888    3.2641   -0.3552 H   0  0  0  0  0
   -3.1443    2.2508    3.0882 H   0  0  0  0  0
   -1.9847    3.3801    2.4456 H   0  0  0  0  0
    0.1210    3.5830    2.2078 H   0  0  0  0  0
    1.1425    2.2775    2.7404 H   0  0  0  0  0
    1.6571   -1.2056    1.3140 H   0  0  0  0  0
    1.8256    0.2538    2.3370 H   0  0  0  0  0
    2.1428   -1.1055   -1.1358 H   0  0  0  0  0
   -1.2073   -1.5220    1.3178 H   0  0  0  0  0
   -2.2265   -1.4966   -0.0981 H   0  0  0  0  0
    0.1094   -1.2516   -0.6520 H   0  0  0  0  0
   -0.7505    0.1786   -1.1766 H   0  0  0  0  0
   -4.1358    0.2194    2.6284 H   0  0  0  0  0
   -4.0878   -1.1694    1.5292 H   0  0  0  0  0
   -2.9733   -1.0898    2.8662 H   0  0  0  0  0
   -0.4741    1.4466    3.9256 H   0  0  0  0  0
   -1.9140    0.4754    4.0213 H   0  0  0  0  0
   -0.4687   -0.1992    3.2687 H   0  0  0  0  0
   -5.1947   -0.9491   -1.6966 H   0  0  0  0  0
   -4.0624   -1.3854   -0.4152 H   0  0  0  0  0
   -3.4598   -0.6952   -1.9285 H   0  0  0  0  0
    2.4930    4.1565   -1.6851 H   0  0  0  0  0
    1.9886    2.5508   -2.2453 H   0  0  0  0  0
    3.5093    3.2557   -2.8039 H   0  0  0  0  0
    4.2027   -0.6131   -2.2305 H   0  0  0  0  0
   -7.3970    3.5912   -2.7744 H   0  0  0  0  0
   -8.8485    3.2645   -1.6857 H   0  0  0  0  0
   -7.4280   -0.1868   -0.7880 H   0  0  0  0  0
   -6.9842    3.9559    1.3207 H   0  0  0  0  0
   -6.7030    3.3899    3.0029 H   0  0  0  0  0
   -6.6392    5.1250    2.6051 H   0  0  0  0  0
   -8.5947    0.5628    1.2597 H   0  0  0  0  0
   -7.1540    1.5490    0.9739 H   0  0  0  0  0
   -8.7594    2.2000    0.6048 H   0  0  0  0  0
  -10.0920    1.2014   -1.4092 H   0  0  0  0  0
   -9.8875   -0.4120   -0.7068 H   0  0  0  0  0
   -9.3531   -0.0959   -2.3627 H   0  0  0  0  0
  1  7  1  0  0  0
  1 19  1  0  0  0
  2  8  1  0  0  0
  2 39  1  0  0  0
  3  9  1  0  0  0
  3 40  1  0  0  0
  4 19  2  0  0  0
  5 20  2  0  0  0
  6 21  2  0  0  0
  7 10  1  0  0  0
  7 22  1  0  0  0
  7 41  1  0  0  0
  8 11  1  0  0  0
  8 23  1  0  0  0
  8 42  1  0  0  0
  9 16  1  0  0  0
  9 20  1  0  0  0
  9 43  1  0  0  0
 10 13  1  0  0  0
 10 16  1  0  0  0
 10 44  1  0  0  0
 11 12  1  0  0  0
 11 18  1  0  0  0
 11 45  1  0  0  0
 12 14  1  0  0  0
 12 24  1  0  0  0
 12 25  1  0  0  0
 13 15  1  0  0  0
 13 26  1  0  0  0
 13 28  1  0  0  0
 14 17  1  0  0  0
 14 24  1  0  0  0
 14 27  1  0  0  0
 15 17  1  0  0  0
 15 22  1  0  0  0
 15 29  1  0  0  0
 16 30  1  0  0  0
 16 46  1  0  0  0
 17 23  1  0  0  0
 17 47  1  0  0  0
 18 21  1  0  0  0
 18 31  1  0  0  0
 18 48  1  0  0  0
 19 36  1  0  0  0
 20 32  1  0  0  0
 21 33  1  0  0  0
 22 49  1  0  0  0
 22 50  1  0  0  0
 23 51  1  0  0  0
 23 52  1  0  0  0
 24 53  1  0  0  0
 24 54  1  0  0  0
 25 33  2  0  0  0
 25 55  1  0  0  0
 26 27  1  0  0  0
 26 56  1  0  0  0
 26 57  1  0  0  0
 27 58  1  0  0  0
 27 59  1  0  0  0
 28 60  1  0  0  0
 28 61  1  0  0  0
 28 62  1  0  0  0
 29 63  1  0  0  0
 29 64  1  0  0  0
 29 65  1  0  0  0
 30 66  1  0  0  0
 30 67  1  0  0  0
 30 68  1  0  0  0
 31 69  1  0  0  0
 31 70  1  0  0  0
 31 71  1  0  0  0
 32 34  2  0  0  0
 32 35  1  0  0  0
 33 72  1  0  0  0
 34 73  1  0  0  0
 34 74  1  0  0  0
 35 37  1  0  0  0
 35 38  1  0  0  0
 35 75  1  0  0  0
 36 76  1  0  0  0
 36 77  1  0  0  0
 36 78  1  0  0  0
 37 79  1  0  0  0
 37 80  1  0  0  0
 37 81  1  0  0  0
 38 82  1  0  0  0
 38 83  1  0  0  0
 38 84  1  0  0  0
M  END
> <Tumorigenic>
none

> <Score>
43.284637

> <Active/Decoy>
active

> <InChI>
InChI=1S/C32H46O6/c1-16(2)17(3)27(36)28(37)19(5)26-23(38-20(6)33)14-30(8)24-13-22(35)25-18(4)21(34)9-10-32(25)15-31(24,32)12-11-29(26,30)7/h9-10,16,18-19,22-26,28,35,37H,3,11-15H2,1-2,4-8H3/t18-,19+,22-,23+,24-,25+,26+,28-,29-,30-,31+,32-/m1/s1

> <Matching Features>
H:14924486185440016873|HBA:149238150533300697|HBA:14924321692640012300|HBA:14924486112070016868

> <Mol. Index>
187

> <Pharmacophore Match>
Model -1

> <# Confs.>
25

> <Source Database>
Pharm-Screening-input-EANPDB_After_DataWarror.ldb

> <Pharmacophore-Fit Score>
43.28

> <formula>
C32H46O6

> <Mutagenic>
none

> <Reproductive Effective>
none

> <Irritant>
none

$$$$
sigmoidin B
XX    ILIB03122411353D

 46 48  0  0  1  0              1 V2000
   -2.5630    2.3866   -1.3629 O   0  0  0  0  0
    3.6216    1.8292   -2.2207 O   0  0  0  0  0
    1.9624    3.5403   -3.5860 O   0  0  0  0  0
   -6.9629    0.8068   -2.6421 O   0  0  0  0  0
   -6.3913    4.0430    0.8332 O   0  0  0  0  0
   -4.7659    0.0284   -3.8852 O   0  0  0  0  0
   -3.9310    2.3514   -1.2569 C   0  0  0  0  0
    2.2635    1.6718   -2.1439 C   0  0  0  0  0
    1.4160    2.5341   -2.8383 C   0  0  0  0  0
   -6.1399    1.5810   -1.8718 C   0  0  0  0  0
   -5.8719    3.2143   -0.1198 C   0  0  0  0  0
   -0.5194    1.3468   -1.9985 C   0  0  0  0  0
   -4.7529    1.5540   -2.0646 C   0  0  0  0  0
    1.7517    0.6164   -1.3841 C   0  0  0  0  0
   -4.4904    3.1955   -0.2963 C   0  0  0  0  0
   -6.7017    2.4078   -0.8953 C   0  0  0  0  0
    0.0325    2.3793   -2.7659 C   0  0  0  0  0
    0.3446    0.4799   -1.3061 C   0  0  0  0  0
   -2.0129    1.1837   -1.9169 C   0  0  2  0  0
   -4.1134    0.7417   -3.1316 C   0  0  0  0  0
    2.6291   -0.3125   -0.6076 C   0  0  0  0  0
   -2.6240    0.9002   -3.2847 C   0  0  0  0  0
    2.6108   -0.4659    1.9415 C   0  0  0  0  0
    2.9129    0.1600    0.7779 C   0  0  0  0  0
    2.9334    0.1897    3.2569 C   0  0  0  0  0
    1.9717   -1.8202    2.0624 C   0  0  0  0  0
    3.8066    2.5950   -2.7914 H   0  0  0  0  0
    1.2415    4.0445   -4.0016 H   0  0  0  0  0
   -7.8853    0.9599   -2.3732 H   0  0  0  0  0
   -7.3598    3.9465    0.8332 H   0  0  0  0  0
   -3.8528    3.8257    0.3189 H   0  0  0  0  0
   -7.7782    2.4301   -0.7476 H   0  0  0  0  0
   -0.6178    3.0626   -3.3062 H   0  0  0  0  0
   -0.0776   -0.3195   -0.6987 H   0  0  0  0  0
   -2.2380    0.3595   -1.2228 H   0  0  0  0  0
    2.1598   -1.3171   -0.6008 H   0  0  0  0  0
    3.5751   -0.4434   -1.1418 H   0  0  0  0  0
   -2.4512    1.7183   -3.9931 H   0  0  0  0  0
   -2.2097   -0.0243   -3.7038 H   0  0  0  0  0
    3.3788    1.1331    0.8346 H   0  0  0  0  0
    2.0232    0.3098    3.8534 H   0  0  0  0  0
    3.3801    1.1816    3.1314 H   0  0  0  0  0
    3.6415   -0.4237    3.8225 H   0  0  0  0  0
    2.5855   -2.4692    2.6944 H   0  0  0  0  0
    0.9817   -1.7303    2.5222 H   0  0  0  0  0
    1.8509   -2.3326    1.1057 H   0  0  0  0  0
  1  7  1  0  0  0
  1 19  1  0  0  0
  2  8  1  0  0  0
  2 27  1  0  0  0
  3  9  1  0  0  0
  3 28  1  0  0  0
  4 10  1  0  0  0
  4 29  1  0  0  0
  5 11  1  0  0  0
  5 30  1  0  0  0
  6 20  2  0  0  0
  7 13  2  0  0  0
  7 15  1  0  0  0
  8  9  2  0  0  0
  8 14  1  0  0  0
  9 17  1  0  0  0
 10 13  1  0  0  0
 10 16  2  0  0  0
 11 15  2  0  0  0
 11 16  1  0  0  0
 12 17  2  0  0  0
 12 18  1  0  0  0
 12 19  1  0  0  0
 13 20  1  0  0  0
 14 18  2  0  0  0
 14 21  1  0  0  0
 15 31  1  0  0  0
 16 32  1  0  0  0
 17 33  1  0  0  0
 18 34  1  0  0  0
 19 22  1  0  0  0
 19 35  1  0  0  0
 20 22  1  0  0  0
 21 24  1  0  0  0
 21 36  1  0  0  0
 21 37  1  0  0  0
 22 38  1  0  0  0
 22 39  1  0  0  0
 23 24  2  0  0  0
 23 25  1  0  0  0
 23 26  1  0  0  0
 24 40  1  0  0  0
 25 41  1  0  0  0
 25 42  1  0  0  0
 25 43  1  0  0  0
 26 44  1  0  0  0
 26 45  1  0  0  0
 26 46  1  0  0  0
M  END
> <Tumorigenic>
none

> <Score>
43.26719

> <Active/Decoy>
active

> <InChI>
InChI=1S/C20H20O6/c1-10(2)3-4-11-5-12(6-16(24)20(11)25)17-9-15(23)19-14(22)7-13(21)8-18(19)26-17/h3,5-8,17,21-22,24-25H,4,9H2,1-2H3/t17-/m0/s1

> <Matching Features>
H:14924486185440016873|HBA:149238150533300697|HBA:14924321692640012300|HBA:14924486112070016868

> <Mol. Index>
260

> <Pharmacophore Match>
Model -1

> <# Confs.>
25

> <Source Database>
Pharm-Screening-input-EANPDB_After_DataWarror.ldb

> <Pharmacophore-Fit Score>
43.27

> <formula>
C20H20O6

> <Mutagenic>
none

> <Reproductive Effective>
none

> <Irritant>
none

$$$$
abyssinoflavone VI
XX    ILIB03122411353D

 59 61  0  0  1  0              1 V2000
   -2.1454    2.6000   -4.0478 O   0  0  0  0  0
    3.8681    1.7618   -2.3426 O   0  0  0  0  0
   -6.6857    0.9882   -3.5157 O   0  0  0  0  0
   -5.7183    4.9239   -6.0599 O   0  0  0  0  0
    3.9494    3.8280   -4.6040 O   0  0  0  0  0
   -4.6037   -0.2937   -2.5124 O   0  0  0  0  0
   -3.4998    2.6649   -4.2528 C   0  0  0  0  0
    2.5068    1.8114   -2.5117 C   0  0  0  0  0
   -5.7774    1.8864   -4.0042 C   0  0  0  0  0
   -5.3104    3.8685   -5.2932 C   0  0  0  0  0
   -0.2922    1.8622   -2.7401 C   0  0  0  0  0
   -4.4100    1.7281   -3.7446 C   0  0  0  0  0
    1.9250    1.8285   -3.7793 C   0  0  0  0  0
    1.7151    1.7898   -1.3494 C   0  0  0  0  0
   -3.9489    3.7264   -5.0420 C   0  0  0  0  0
   -6.2307    2.9597   -4.7753 C   0  0  0  0  0
    0.5208    1.8599   -3.8831 C   0  0  0  0  0
    0.3179    1.8221   -1.4808 C   0  0  0  0  0
   -1.7920    1.8919   -2.8520 C   0  0  2  0  0
    3.0859    3.2170   -5.5531 C   0  0  1  0  0
   -3.8754    0.5714   -2.9807 C   0  0  0  0  0
    2.7329    1.8248   -5.0548 C   0  0  0  0  0
    2.3207    1.7529    0.0250 C   0  0  0  0  0
    1.8869    4.1066   -5.8308 C   0  0  0  0  0
   -2.3753    0.4833   -2.8752 C   0  0  0  0  0
    2.0155   -0.2343    1.6061 C   0  0  0  0  0
    2.5381    0.3526    0.5123 C   0  0  0  0  0
    1.3564    4.9554   -4.9350 C   0  0  0  0  0
    1.2798    3.9775   -7.2033 C   0  0  0  0  0
    2.3277   -1.6734    1.9167 C   0  0  0  0  0
    1.1164    0.4361    2.6045 C   0  0  0  0  0
    4.3131    1.8471   -3.2008 H   0  0  0  0  0
   -7.5769    1.2545   -3.7966 H   0  0  0  0  0
   -6.6879    4.8863   -6.1479 H   0  0  0  0  0
    3.5435    3.7356   -3.7247 H   0  0  0  0  0
   -3.2402    4.4439   -5.4483 H   0  0  0  0  0
   -7.2905    3.0822   -4.9777 H   0  0  0  0  0
    0.0525    1.8872   -4.8659 H   0  0  0  0  0
   -0.3015    1.8134   -0.5865 H   0  0  0  0  0
   -2.1909    2.4613   -1.9989 H   0  0  0  0  0
    3.6502    3.1366   -6.4902 H   0  0  0  0  0
    2.1874    1.2680   -5.8420 H   0  0  0  0  0
    3.6520    1.2553   -4.8825 H   0  0  0  0  0
    3.2845    2.2786    0.0177 H   0  0  0  0  0
    1.6823    2.3150    0.7194 H   0  0  0  0  0
   -2.0176   -0.0956   -3.7348 H   0  0  0  0  0
   -2.1171   -0.0536   -1.9553 H   0  0  0  0  0
    3.1894   -0.2456   -0.1253 H   0  0  0  0  0
    0.4937    5.5657   -5.1816 H   0  0  0  0  0
    1.7613    5.0716   -3.9361 H   0  0  0  0  0
    0.3952    4.6107   -7.3262 H   0  0  0  0  0
    2.0020    4.2680   -7.9732 H   0  0  0  0  0
    0.9724    2.9428   -7.3857 H   0  0  0  0  0
    2.9803   -2.1319    1.1673 H   0  0  0  0  0
    1.4032   -2.2599    1.9547 H   0  0  0  0  0
    2.8295   -1.7530    2.8867 H   0  0  0  0  0
    1.5295    0.3280    3.6132 H   0  0  0  0  0
    0.9875    1.5057    2.4272 H   0  0  0  0  0
    0.1259   -0.0286    2.5888 H   0  0  0  0  0
  1  7  1  0  0  0
  1 19  1  0  0  0
  2  8  1  0  0  0
  2 32  1  0  0  0
  3  9  1  0  0  0
  3 33  1  0  0  0
  4 10  1  0  0  0
  4 34  1  0  0  0
  5 20  1  0  0  0
  5 35  1  0  0  0
  6 21  2  0  0  0
  7 12  2  0  0  0
  7 15  1  0  0  0
  8 13  1  0  0  0
  8 14  2  0  0  0
  9 12  1  0  0  0
  9 16  2  0  0  0
 10 15  2  0  0  0
 10 16  1  0  0  0
 11 17  1  0  0  0
 11 18  2  0  0  0
 11 19  1  0  0  0
 12 21  1  0  0  0
 13 17  2  0  0  0
 13 22  1  0  0  0
 14 18  1  0  0  0
 14 23  1  0  0  0
 15 36  1  0  0  0
 16 37  1  0  0  0
 17 38  1  0  0  0
 18 39  1  0  0  0
 19 25  1  0  0  0
 19 40  1  0  0  0
 20 22  1  0  0  0
 20 24  1  0  0  0
 20 41  1  0  0  0
 21 25  1  0  0  0
 22 42  1  0  0  0
 22 43  1  0  0  0
 23 27  1  0  0  0
 23 44  1  0  0  0
 23 45  1  0  0  0
 24 28  2  0  0  0
 24 29  1  0  0  0
 25 46  1  0  0  0
 25 47  1  0  0  0
 26 27  2  0  0  0
 26 30  1  0  0  0
 26 31  1  0  0  0
 27 48  1  0  0  0
 28 49  1  0  0  0
 28 50  1  0  0  0
 29 51  1  0  0  0
 29 52  1  0  0  0
 29 53  1  0  0  0
 30 54  1  0  0  0
 30 55  1  0  0  0
 30 56  1  0  0  0
 31 57  1  0  0  0
 31 58  1  0  0  0
 31 59  1  0  0  0
M  END
> <Tumorigenic>
none

> <Score>
43.236652

> <Active/Decoy>
active

> <InChI>
InChI=1S/C25H28O6/c1-13(2)5-6-15-7-16(8-17(25(15)30)9-19(27)14(3)4)22-12-21(29)24-20(28)10-18(26)11-23(24)31-22/h5,7-8,10-11,19,22,26-28,30H,3,6,9,12H2,1-2,4H3/t19-,22-/m0/s1

> <Matching Features>
H:14924486185440016873|HBA:149238150533300697|HBA:14924321692640012300|HBA:14924486112070016868

> <Mol. Index>
264

> <Pharmacophore Match>
Model -1

> <# Confs.>
25

> <Source Database>
Pharm-Screening-input-EANPDB_After_DataWarror.ldb

> <Pharmacophore-Fit Score>
43.24

> <formula>
C25H28O6

> <Mutagenic>
none

> <Reproductive Effective>
none

> <Irritant>
none

$$$$
sigmoidin B-4'-methyl ether
XX    ILIB03122411353D

 49 51  0  0  1  0              1 V2000
   -2.1414    2.6066   -4.0405 O   0  0  0  0  0
    3.8731    1.7628   -2.3597 O   0  0  0  0  0
    2.6684    1.7975   -4.8761 O   0  0  0  0  0
   -6.6778    0.9775   -3.5260 O   0  0  0  0  0
   -5.7105    4.8910   -6.1047 O   0  0  0  0  0
   -4.5981   -0.2837   -2.4944 O   0  0  0  0  0
   -3.4943    2.6624   -4.2557 C   0  0  0  0  0
    2.5092    1.8312   -2.4904 C   0  0  0  0  0
    1.8958    1.8481   -3.7467 C   0  0  0  0  0
   -5.7699    1.8749   -4.0184 C   0  0  0  0  0
   -5.3034    3.8456   -5.3250 C   0  0  0  0  0
   -0.2953    1.8868   -2.7102 C   0  0  0  0  0
   -4.4036    1.7264   -3.7455 C   0  0  0  0  0
    1.7365    1.8161   -1.3216 C   0  0  0  0  0
   -3.9422    3.7134   -5.0596 C   0  0  0  0  0
   -6.2224    2.9376   -4.8046 C   0  0  0  0  0
    0.5045    1.8809   -3.8592 C   0  0  0  0  0
    0.3268    1.8517   -1.4513 C   0  0  0  0  0
   -1.7944    1.9129   -2.8336 C   0  0  2  0  0
   -3.8703    0.5810   -2.9667 C   0  0  0  0  0
    4.4759    1.7007   -3.6529 C   0  0  0  0  0
    2.3481    1.7591    0.0411 C   0  0  0  0  0
   -2.3691    0.5010   -2.8471 C   0  0  0  0  0
    1.9996   -0.2373    1.6154 C   0  0  0  0  0
    2.5384    0.3426    0.5163 C   0  0  0  0  0
    2.2776   -1.6862    1.9161 C   0  0  0  0  0
    1.1250    0.4490    2.6251 C   0  0  0  0  0
    2.0851    1.8062   -5.6545 H   0  0  0  0  0
   -7.5693    1.2363   -3.8195 H   0  0  0  0  0
   -6.6767    4.8474   -6.1986 H   0  0  0  0  0
   -3.2336    4.4294   -5.4680 H   0  0  0  0  0
   -7.2819    3.0524   -5.0176 H   0  0  0  0  0
    0.0412    1.8877   -4.8426 H   0  0  0  0  0
   -0.2886    1.8420   -0.5534 H   0  0  0  0  0
   -2.2038    2.4893   -1.9902 H   0  0  0  0  0
    4.2405    2.5927   -4.2440 H   0  0  0  0  0
    5.5599    1.6623   -3.5149 H   0  0  0  0  0
    4.1682    0.7952   -4.1879 H   0  0  0  0  0
    3.3172    2.2533    0.0324 H   0  0  0  0  0
    1.7226    2.3248    0.7472 H   0  0  0  0  0
   -2.0018   -0.0852   -3.6979 H   0  0  0  0  0
   -2.1168   -0.0245   -1.9199 H   0  0  0  0  0
    3.1587   -0.2674   -0.1246 H   0  0  0  0  0
    2.9128   -2.1555    1.1571 H   0  0  0  0  0
    1.3398   -2.2501    1.9564 H   0  0  0  0  0
    2.7856   -1.7844    2.8810 H   0  0  0  0  0
    1.5424    0.3243    3.6303 H   0  0  0  0  0
    1.0207    1.5223    2.4558 H   0  0  0  0  0
    0.1220    0.0086    2.6144 H   0  0  0  0  0
  1  7  1  0  0  0
  1 19  1  0  0  0
  2  8  1  0  0  0
  2 21  1  0  0  0
  3  9  1  0  0  0
  3 28  1  0  0  0
  4 10  1  0  0  0
  4 29  1  0  0  0
  5 11  1  0  0  0
  5 30  1  0  0  0
  6 20  2  0  0  0
  7 13  2  0  0  0
  7 15  1  0  0  0
  8  9  2  0  0  0
  8 14  1  0  0  0
  9 17  1  0  0  0
 10 13  1  0  0  0
 10 16  2  0  0  0
 11 15  2  0  0  0
 11 16  1  0  0  0
 12 17  2  0  0  0
 12 18  1  0  0  0
 12 19  1  0  0  0
 13 20  1  0  0  0
 14 18  2  0  0  0
 14 22  1  0  0  0
 15 31  1  0  0  0
 16 32  1  0  0  0
 17 33  1  0  0  0
 18 34  1  0  0  0
 19 23  1  0  0  0
 19 35  1  0  0  0
 20 23  1  0  0  0
 21 36  1  0  0  0
 21 37  1  0  0  0
 21 38  1  0  0  0
 22 25  1  0  0  0
 22 39  1  0  0  0
 22 40  1  0  0  0
 23 41  1  0  0  0
 23 42  1  0  0  0
 24 25  2  0  0  0
 24 26  1  0  0  0
 24 27  1  0  0  0
 25 43  1  0  0  0
 26 44  1  0  0  0
 26 45  1  0  0  0
 26 46  1  0  0  0
 27 47  1  0  0  0
 27 48  1  0  0  0
 27 49  1  0  0  0
M  END
> <Tumorigenic>
none

> <Score>
43.243023

> <Active/Decoy>
active

> <InChI>
InChI=1S/C21H22O6/c1-11(2)4-5-12-6-13(7-17(25)21(12)26-3)18-10-16(24)20-15(23)8-14(22)9-19(20)27-18/h4,6-9,18,22-23,25H,5,10H2,1-3H3/t18-/m0/s1

> <Matching Features>
H:14924486185440016873|HBA:149238150533300697|HBA:14924321692640012300|HBA:14924486112070016868

> <Mol. Index>
247

> <Pharmacophore Match>
Model -1

> <# Confs.>
25

> <Source Database>
Pharm-Screening-input-EANPDB_After_DataWarror.ldb

> <Pharmacophore-Fit Score>
43.24

> <formula>
C21H22O6

> <Mutagenic>
none

> <Reproductive Effective>
none

> <Irritant>
none

$$$$
sigmoidin E
XX    ILIB03122411353D

 56 59  0  0  1  0              1 V2000
   -2.1563    2.6143   -4.0321 O   0  0  0  0  0
    3.8662    1.7664   -2.3418 O   0  0  0  0  0
   -6.6959    0.9979   -3.5099 O   0  0  0  0  0
   -5.7352    4.9723   -5.9967 O   0  0  0  0  0
   -4.6131   -0.3008   -2.5332 O   0  0  0  0  0
   -3.5124    2.6837   -4.2316 C   0  0  0  0  0
    2.5088    1.7790   -2.5161 C   0  0  0  0  0
   -5.7890    1.9030   -3.9892 C   0  0  0  0  0
   -5.3240    3.9043   -5.2479 C   0  0  0  0  0
   -0.2971    1.8495   -2.7414 C   0  0  0  0  0
   -4.4203    1.7396   -3.7357 C   0  0  0  0  0
    1.9098    1.8379   -3.7779 C   0  0  0  0  0
    1.7259    1.7724   -1.3504 C   0  0  0  0  0
   -3.9619    3.7577   -5.0017 C   0  0  0  0  0
   -6.2445    2.9882   -4.7415 C   0  0  0  0  0
    0.5136    1.8680   -3.8847 C   0  0  0  0  0
    0.3173    1.8036   -1.4830 C   0  0  0  0  0
   -1.7999    1.8874   -2.8480 C   0  0  2  0  0
   -3.8849    0.5713   -2.9919 C   0  0  0  0  0
    4.7354    1.6914   -3.4894 C   0  0  0  0  0
    2.7346    1.8684   -4.9741 C   0  0  0  0  0
    2.3304    1.7387    0.0161 C   0  0  0  0  0
   -2.3844    0.4799   -2.8911 C   0  0  0  0  0
    2.0343   -0.2445    1.6177 C   0  0  0  0  0
    4.0593    1.7981   -4.8334 C   0  0  0  0  0
    2.5616    0.3359    0.5132 C   0  0  0  0  0
    5.7420    2.8382   -3.3398 C   0  0  0  0  0
    5.4664    0.3479   -3.3921 C   0  0  0  0  0
    2.3553   -1.6795    1.9412 C   0  0  0  0  0
    1.1326    0.4288    2.6121 C   0  0  0  0  0
   -7.5880    1.2694   -3.7857 H   0  0  0  0  0
   -6.7020    4.9370   -6.0826 H   0  0  0  0  0
   -3.2540    4.4806   -5.3996 H   0  0  0  0  0
   -7.3039    3.1146   -4.9383 H   0  0  0  0  0
    0.0476    1.9106   -4.8685 H   0  0  0  0  0
   -0.3007    1.7966   -0.5869 H   0  0  0  0  0
   -2.1962    2.4438   -1.9849 H   0  0  0  0  0
    2.2722    1.9407   -5.9512 H   0  0  0  0  0
    3.2837    2.2626    0.0057 H   0  0  0  0  0
    1.6832    2.2949    0.7103 H   0  0  0  0  0
   -2.0294   -0.0860   -3.7606 H   0  0  0  0  0
   -2.1241   -0.0717   -1.9805 H   0  0  0  0  0
    4.6824    1.8102   -5.7229 H   0  0  0  0  0
    3.2046   -0.2637   -0.1150 H   0  0  0  0  0
    6.2571    2.7817   -2.3738 H   0  0  0  0  0
    5.2329    3.8092   -3.3599 H   0  0  0  0  0
    6.4972    2.8298   -4.1337 H   0  0  0  0  0
    6.2098    0.2258   -4.1898 H   0  0  0  0  0
    5.9787    0.2505   -2.4279 H   0  0  0  0  0
    4.7600   -0.4873   -3.4509 H   0  0  0  0  0
    3.0095   -2.1397    1.1930 H   0  0  0  0  0
    1.4353   -2.2717    1.9844 H   0  0  0  0  0
    2.8601   -1.7477    2.9104 H   0  0  0  0  0
    1.5474    0.3318    3.6214 H   0  0  0  0  0
    0.9961    1.4958    2.4264 H   0  0  0  0  0
    0.1438   -0.0427    2.6021 H   0  0  0  0  0
  1  6  1  0  0  0
  1 18  1  0  0  0
  2  7  1  0  0  0
  2 20  1  0  0  0
  3  8  1  0  0  0
  3 31  1  0  0  0
  4  9  1  0  0  0
  4 32  1  0  0  0
  5 19  2  0  0  0
  6 11  2  0  0  0
  6 14  1  0  0  0
  7 12  2  0  0  0
  7 13  1  0  0  0
  8 11  1  0  0  0
  8 15  2  0  0  0
  9 14  2  0  0  0
  9 15  1  0  0  0
 10 16  2  0  0  0
 10 17  1  0  0  0
 10 18  1  0  0  0
 11 19  1  0  0  0
 12 16  1  0  0  0
 12 21  1  0  0  0
 13 17  2  0  0  0
 13 22  1  0  0  0
 14 33  1  0  0  0
 15 34  1  0  0  0
 16 35  1  0  0  0
 17 36  1  0  0  0
 18 23  1  0  0  0
 18 37  1  0  0  0
 19 23  1  0  0  0
 20 25  1  0  0  0
 20 27  1  0  0  0
 20 28  1  0  0  0
 21 25  2  0  0  0
 21 38  1  0  0  0
 22 26  1  0  0  0
 22 39  1  0  0  0
 22 40  1  0  0  0
 23 41  1  0  0  0
 23 42  1  0  0  0
 24 26  2  0  0  0
 24 29  1  0  0  0
 24 30  1  0  0  0
 25 43  1  0  0  0
 26 44  1  0  0  0
 27 45  1  0  0  0
 27 46  1  0  0  0
 27 47  1  0  0  0
 28 48  1  0  0  0
 28 49  1  0  0  0
 28 50  1  0  0  0
 29 51  1  0  0  0
 29 52  1  0  0  0
 29 53  1  0  0  0
 30 54  1  0  0  0
 30 55  1  0  0  0
 30 56  1  0  0  0
M  END
> <Tumorigenic>
none

> <Score>
43.223904

> <Active/Decoy>
active

> <InChI>
InChI=1S/C25H26O5/c1-14(2)5-6-15-9-17(10-16-7-8-25(3,4)30-24(15)16)21-13-20(28)23-19(27)11-18(26)12-22(23)29-21/h5,7-12,21,26-27H,6,13H2,1-4H3/t21-/m0/s1

> <Matching Features>
H:14924486185440016873|HBA:149238150533300697|HBA:14924321692640012300|HBA:14924486112070016868

> <Mol. Index>
262

> <Pharmacophore Match>
Model -1

> <# Confs.>
25

> <Source Database>
Pharm-Screening-input-EANPDB_After_DataWarror.ldb

> <Pharmacophore-Fit Score>
43.22

> <formula>
C25H26O5

> <Mutagenic>
none

> <Reproductive Effective>
none

> <Irritant>
none

$$$$
(+)sesamin
XX    ILIB03122411353D

 42 45  0  0  1  0              1 V2000
   -5.6247    0.9230   -4.0165 O   0  0  0  0  0
    4.9281    1.1090   -0.8719 O   0  0  0  0  0
   -7.7474   -0.2087   -2.6481 O   0  0  0  0  0
    5.7661   -0.1836    1.4281 O   0  0  0  0  0
   -2.5216   -0.7077    0.8674 O   0  0  0  0  0
   -0.0026    1.9055   -0.2457 O   0  0  0  0  0
   -5.4782    0.4897   -2.7280 C   0  0  0  0  0
    4.0243    0.6758    0.0583 C   0  0  0  0  0
   -6.5371   -0.0798   -2.0304 C   0  0  0  0  0
    4.4333    0.0246    1.2168 C   0  0  0  0  0
   -4.0225    0.2116   -0.8031 C   0  0  0  0  0
    1.7017    0.4840    0.7184 C   0  0  0  0  0
   -4.2274    0.6353   -2.1245 C   0  0  0  0  0
    2.6697    0.9043   -0.1866 C   0  0  0  0  0
   -6.3573   -0.5090   -0.7201 C   0  0  0  0  0
    3.4897   -0.4056    2.1429 C   0  0  0  0  0
   -5.1071   -0.3640   -0.1134 C   0  0  0  0  0
    2.1325   -0.1791    1.9000 C   0  0  0  0  0
   -2.6895    0.3452   -0.1052 C   0  0  2  0  0
    0.2278    0.6886    0.5135 C   0  0  2  0  0
   -0.4538   -0.4491   -0.2464 C   0  0  2  0  0
   -1.4965    0.2612   -1.0678 C   0  0  2  0  0
   -1.2777   -1.3752    0.6187 C   0  0  0  0  0
   -0.8410    1.5897   -1.3723 C   0  0  0  0  0
   -6.5456    0.7621   -4.2862 H   0  0  0  0  0
    5.8184    0.8684   -0.5625 H   0  0  0  0  0
   -8.3724   -0.6246   -2.0282 H   0  0  0  0  0
    5.8791   -0.6440    2.2776 H   0  0  0  0  0
   -3.4206    1.0824   -2.6992 H   0  0  0  0  0
    2.3851    1.4177   -1.1010 H   0  0  0  0  0
   -7.1755   -0.9549   -0.1618 H   0  0  0  0  0
    3.7919   -0.9163    3.0525 H   0  0  0  0  0
   -4.9820   -0.7058    0.9121 H   0  0  0  0  0
    1.4068   -0.5219    2.6350 H   0  0  0  0  0
   -2.6825    1.2822    0.4659 H   0  0  0  0  0
   -0.2562    0.8758    1.4876 H   0  0  0  0  0
    0.2624   -1.0009   -0.8653 H   0  0  0  0  0
   -1.7516   -0.2844   -1.9827 H   0  0  0  0  0
   -1.5057   -2.3060    0.0877 H   0  0  0  0  0
   -0.7989   -1.6276    1.5691 H   0  0  0  0  0
   -1.5534    2.4027   -1.5349 H   0  0  0  0  0
   -0.1954    1.5136   -2.2537 H   0  0  0  0  0
  1  7  1  0  0  0
  1 25  1  0  0  0
  2  8  1  0  0  0
  2 26  1  0  0  0
  3  9  1  0  0  0
  3 27  1  0  0  0
  4 10  1  0  0  0
  4 28  1  0  0  0
  5 19  1  0  0  0
  5 23  1  0  0  0
  6 20  1  0  0  0
  6 24  1  0  0  0
  7  9  2  0  0  0
  7 13  1  0  0  0
  8 10  2  0  0  0
  8 14  1  0  0  0
  9 15  1  0  0  0
 10 16  1  0  0  0
 11 13  2  0  0  0
 11 17  1  0  0  0
 11 19  1  0  0  0
 12 14  2  0  0  0
 12 18  1  0  0  0
 12 20  1  0  0  0
 13 29  1  0  0  0
 14 30  1  0  0  0
 15 17  2  0  0  0
 15 31  1  0  0  0
 16 18  2  0  0  0
 16 32  1  0  0  0
 17 33  1  0  0  0
 18 34  1  0  0  0
 19 22  1  0  0  0
 19 35  1  0  0  0
 20 21  1  0  0  0
 20 36  1  0  0  0
 21 22  1  0  0  0
 21 23  1  0  0  0
 21 37  1  0  0  0
 22 24  1  0  0  0
 22 38  1  0  0  0
 23 39  1  0  0  0
 23 40  1  0  0  0
 24 41  1  0  0  0
 24 42  1  0  0  0
M  END
> <Tumorigenic>
none

> <Score>
43.211082

> <Active/Decoy>
active

> <InChI>
InChI=1S/C18H18O6/c19-13-3-1-9(5-15(13)21)17-11-7-24-18(12(11)8-23-17)10-2-4-14(20)16(22)6-10/h1-6,11-12,17-22H,7-8H2/t11-,12-,17+,18+/m0/s1

> <Matching Features>
H:14924486185440016873|HBA:149238150533300697|HBA:14924321692640012300|HBA:14924486112070016868

> <Mol. Index>
444

> <Pharmacophore Match>
Model -1

> <# Confs.>
21

> <Source Database>
Pharm-Screening-input-EANPDB_After_DataWarror.ldb

> <Pharmacophore-Fit Score>
43.21

> <formula>
C18H18O6

> <Mutagenic>
none

> <Reproductive Effective>
none

> <Irritant>
none

$$$$
burttinone
XX    ILIB03122411353D

 62 64  0  0  1  0              1 V2000
   -1.9230   -1.4687   -2.4129 O   0  0  0  0  0
    3.7831    1.0287   -1.6256 O   0  0  0  0  0
   -6.6587   -0.6366   -3.2547 O   0  0  0  0  0
   -4.9324   -5.0486   -2.9970 O   0  0  0  0  0
   -4.8596    1.3570   -2.7986 O   0  0  0  0  0
    1.4050    3.6668   -1.9464 O   0  0  0  0  0
   -3.2187   -1.8473   -2.6551 C   0  0  0  0  0
    2.4878    0.7473   -1.9558 C   0  0  0  0  0
   -5.5647   -1.4363   -3.0720 C   0  0  0  0  0
   -4.7367   -3.6971   -2.9460 C   0  0  0  0  0
   -0.1878    0.1532   -2.5689 C   0  0  0  0  0
   -4.2775   -0.9429   -2.8232 C   0  0  0  0  0
    1.9093    1.3216   -3.1016 C   0  0  0  0  0
    1.7553   -0.1027   -1.1059 C   0  0  0  0  0
   -3.4515   -3.2241   -2.6999 C   0  0  0  0  0
   -5.7943   -2.8121   -3.1384 C   0  0  0  0  0
    0.5680    0.9887   -3.4041 C   0  0  0  0  0
    0.4156   -0.3784   -1.4206 C   0  0  0  0  0
   -1.6189   -0.1602   -2.9123 C   0  0  2  0  0
   -3.9851    0.5060   -2.6822 C   0  0  0  0  0
    2.0658    4.4764   -2.9248 C   0  0  0  0  0
    4.6421    1.3216   -2.7247 C   0  0  0  0  0
    2.6033    2.2183   -4.0127 C   0  0  0  0  0
    2.3417   -0.6658    0.1575 C   0  0  0  0  0
   -2.5702    0.8724   -2.3194 C   0  0  0  0  0
    1.4812   -0.0730    2.4905 C   0  0  0  0  0
    2.6370    3.5654   -3.9623 C   0  0  0  0  0
    2.1330    0.2169    1.3501 C   0  0  0  0  0
    3.0889    5.3519   -2.1915 C   0  0  0  0  0
    0.9962    5.3637   -3.5675 C   0  0  0  0  0
    1.4023    0.9385    3.6032 C   0  0  0  0  0
    0.7741   -1.3679    2.7795 C   0  0  0  0  0
   -6.3884    0.2947   -3.2019 H   0  0  0  0  0
   -5.8738   -5.2195   -3.1736 H   0  0  0  0  0
    2.0750    3.1077   -1.5162 H   0  0  0  0  0
   -2.6314   -3.9227   -2.5515 H   0  0  0  0  0
   -6.7969   -3.1880   -3.3328 H   0  0  0  0  0
    0.0965    1.4184   -4.2867 H   0  0  0  0  0
   -0.1627   -1.0277   -0.7648 H   0  0  0  0  0
   -1.7198   -0.1882   -4.0077 H   0  0  0  0  0
    4.3098    2.2183   -3.2586 H   0  0  0  0  0
    4.7210    0.4651   -3.4029 H   0  0  0  0  0
    5.6405    1.5230   -2.3235 H   0  0  0  0  0
    3.1328    1.7345   -4.8229 H   0  0  0  0  0
    3.4186   -0.8209    0.0167 H   0  0  0  0  0
    1.9194   -1.6644    0.3311 H   0  0  0  0  0
   -2.3500    1.8683   -2.7187 H   0  0  0  0  0
   -2.5119    0.9082   -1.2253 H   0  0  0  0  0
    3.2095    4.0644   -4.7438 H   0  0  0  0  0
    2.5916    1.2012    1.2601 H   0  0  0  0  0
    2.6006    5.9493   -1.4127 H   0  0  0  0  0
    3.8391    4.7397   -1.6777 H   0  0  0  0  0
    3.6055    6.0367   -2.8733 H   0  0  0  0  0
    0.2077    4.7599   -4.0327 H   0  0  0  0  0
    1.4204    6.0237   -4.3315 H   0  0  0  0  0
    0.4986    5.9836   -2.8126 H   0  0  0  0  0
    1.9302    1.8668    3.3628 H   0  0  0  0  0
    0.3591    1.1951    3.8102 H   0  0  0  0  0
    1.8476    0.5317    4.5173 H   0  0  0  0  0
   -0.2610   -1.1713    3.0770 H   0  0  0  0  0
    0.7344   -2.0415    1.9215 H   0  0  0  0  0
    1.2737   -1.8946    3.5982 H   0  0  0  0  0
  1  7  1  0  0  0
  1 19  1  0  0  0
  2  8  1  0  0  0
  2 22  1  0  0  0
  3  9  1  0  0  0
  3 33  1  0  0  0
  4 10  1  0  0  0
  4 34  1  0  0  0
  5 20  2  0  0  0
  6 21  1  0  0  0
  6 35  1  0  0  0
  7 12  2  0  0  0
  7 15  1  0  0  0
  8 13  2  0  0  0
  8 14  1  0  0  0
  9 12  1  0  0  0
  9 16  2  0  0  0
 10 15  2  0  0  0
 10 16  1  0  0  0
 11 17  2  0  0  0
 11 18  1  0  0  0
 11 19  1  0  0  0
 12 20  1  0  0  0
 13 17  1  0  0  0
 13 23  1  0  0  0
 14 18  2  0  0  0
 14 24  1  0  0  0
 15 36  1  0  0  0
 16 37  1  0  0  0
 17 38  1  0  0  0
 18 39  1  0  0  0
 19 25  1  0  0  0
 19 40  1  0  0  0
 20 25  1  0  0  0
 21 27  1  0  0  0
 21 29  1  0  0  0
 21 30  1  0  0  0
 22 41  1  0  0  0
 22 42  1  0  0  0
 22 43  1  0  0  0
 23 27  2  0  0  0
 23 44  1  0  0  0
 24 28  1  0  0  0
 24 45  1  0  0  0
 24 46  1  0  0  0
 25 47  1  0  0  0
 25 48  1  0  0  0
 26 28  2  0  0  0
 26 31  1  0  0  0
 26 32  1  0  0  0
 27 49  1  0  0  0
 28 50  1  0  0  0
 29 51  1  0  0  0
 29 52  1  0  0  0
 29 53  1  0  0  0
 30 54  1  0  0  0
 30 55  1  0  0  0
 30 56  1  0  0  0
 31 57  1  0  0  0
 31 58  1  0  0  0
 31 59  1  0  0  0
 32 60  1  0  0  0
 32 61  1  0  0  0
 32 62  1  0  0  0
M  END
> <Tumorigenic>
none

> <Score>
43.209965

> <Active/Decoy>
active

> <InChI>
InChI=1S/C26H30O6/c1-15(2)6-7-16-10-18(11-17(25(16)31-5)8-9-26(3,4)30)22-14-21(29)24-20(28)12-19(27)13-23(24)32-22/h6,8-13,22,27-28,30H,7,14H2,1-5H3/b9-8+/t22-/m0/s1

> <Matching Features>
H:14924486185440016873|HBA:149238150533300697|HBA:14924321692640012300|HBA:14924486112070016868

> <Mol. Index>
245

> <Pharmacophore Match>
Model -1

> <# Confs.>
25

> <Source Database>
Pharm-Screening-input-EANPDB_After_DataWarror.ldb

> <Pharmacophore-Fit Score>
43.21

> <formula>
C26H30O6

> <Mutagenic>
none

> <Reproductive Effective>
none

> <Irritant>
none

$$$$
sigmoidin C
XX    ILIB03122411353D

 44 47  0  0  1  0              1 V2000
   -1.6396   -1.3070   -1.5065 O   0  0  0  0  0
    3.9112    0.5025    0.8006 O   0  0  0  0  0
    3.4925    1.2781   -1.7808 O   0  0  0  0  0
   -6.1596   -0.0077   -2.8227 O   0  0  0  0  0
   -4.5252   -4.3963   -3.5869 O   0  0  0  0  0
   -4.4491    1.6695   -1.5197 O   0  0  0  0  0
   -2.8782   -1.5288   -2.0547 C   0  0  0  0  0
    2.6514    0.3755    0.2882 C   0  0  0  0  0
    2.4631    0.7664   -1.0380 C   0  0  0  0  0
   -5.1165   -0.8847   -2.7072 C   0  0  0  0  0
   -4.3342   -3.1289   -3.1144 C   0  0  0  0  0
    0.1085    0.1956   -0.9259 C   0  0  0  0  0
   -3.8858   -0.5560   -2.1196 C   0  0  0  0  0
    1.5714   -0.1185    1.0184 C   0  0  0  0  0
   -3.1079   -2.8189   -2.5372 C   0  0  0  0  0
   -5.3401   -2.1697   -3.2086 C   0  0  0  0  0
    1.2073    0.6865   -1.6384 C   0  0  0  0  0
    0.3093   -0.2133    0.4129 C   0  0  0  0  0
   -1.2492    0.0870   -1.5507 C   0  0  2  0  0
   -3.6147    0.7728   -1.5163 C   0  0  0  0  0
    4.1837    0.0234    2.1337 C   0  0  0  0  0
    1.7586   -0.5231    2.4011 C   0  0  0  0  0
   -2.2815    0.9366   -0.8334 C   0  0  0  0  0
    2.9853   -0.4547    2.9187 C   0  0  0  0  0
    4.8456    1.1866    2.8807 C   0  0  0  0  0
    5.1831   -1.1282    1.9826 C   0  0  0  0  0
    4.2927    1.2781   -1.2267 H   0  0  0  0  0
   -5.8995    0.8513   -2.4537 H   0  0  0  0  0
   -5.4224   -4.4558   -3.9597 H   0  0  0  0  0
   -2.3281   -3.5750   -2.4717 H   0  0  0  0  0
   -6.2964   -2.4188   -3.6621 H   0  0  0  0  0
    1.0846    0.9993   -2.6725 H   0  0  0  0  0
   -0.5335   -0.6004    0.9822 H   0  0  0  0  0
   -1.1748    0.3708   -2.6044 H   0  0  0  0  0
    0.9159   -0.8759    2.9840 H   0  0  0  0  0
   -2.4143    0.6456    0.2149 H   0  0  0  0  0
   -1.9882    1.9916   -0.8743 H   0  0  0  0  0
    3.1392   -0.7651    3.9500 H   0  0  0  0  0
    5.7279    1.5471    2.3391 H   0  0  0  0  0
    5.1571    0.9028    3.8930 H   0  0  0  0  0
    4.1624    2.0405    2.9574 H   0  0  0  0  0
    4.7442   -1.9546    1.4110 H   0  0  0  0  0
    6.0697   -0.8055    1.4244 H   0  0  0  0  0
    5.5118   -1.5181    2.9535 H   0  0  0  0  0
  1  7  1  0  0  0
  1 19  1  0  0  0
  2  8  1  0  0  0
  2 21  1  0  0  0
  3  9  1  0  0  0
  3 27  1  0  0  0
  4 10  1  0  0  0
  4 28  1  0  0  0
  5 11  1  0  0  0
  5 29  1  0  0  0
  6 20  2  0  0  0
  7 13  2  0  0  0
  7 15  1  0  0  0
  8  9  2  0  0  0
  8 14  1  0  0  0
  9 17  1  0  0  0
 10 13  1  0  0  0
 10 16  2  0  0  0
 11 15  2  0  0  0
 11 16  1  0  0  0
 12 17  2  0  0  0
 12 18  1  0  0  0
 12 19  1  0  0  0
 13 20  1  0  0  0
 14 18  2  0  0  0
 14 22  1  0  0  0
 15 30  1  0  0  0
 16 31  1  0  0  0
 17 32  1  0  0  0
 18 33  1  0  0  0
 19 23  1  0  0  0
 19 34  1  0  0  0
 20 23  1  0  0  0
 21 24  1  0  0  0
 21 25  1  0  0  0
 21 26  1  0  0  0
 22 24  2  0  0  0
 22 35  1  0  0  0
 23 36  1  0  0  0
 23 37  1  0  0  0
 24 38  1  0  0  0
 25 39  1  0  0  0
 25 40  1  0  0  0
 25 41  1  0  0  0
 26 42  1  0  0  0
 26 43  1  0  0  0
 26 44  1  0  0  0
M  END
> <Tumorigenic>
none

> <Score>
43.199932

> <Active/Decoy>
active

> <InChI>
InChI=1S/C20H18O6/c1-20(2)4-3-10-5-11(6-15(24)19(10)26-20)16-9-14(23)18-13(22)7-12(21)8-17(18)25-16/h3-8,16,21-22,24H,9H2,1-2H3/t16-/m0/s1

> <Matching Features>
H:14924486185440016873|HBA:149238150533300697|HBA:14924321692640012300|HBA:14924486112070016868

> <Mol. Index>
261

> <Pharmacophore Match>
Model -1

> <# Confs.>
7

> <Source Database>
Pharm-Screening-input-EANPDB_After_DataWarror.ldb

> <Pharmacophore-Fit Score>
43.2

> <formula>
C20H18O6

> <Mutagenic>
none

> <Reproductive Effective>
none

> <Irritant>
none

$$$$
hispidin
XX    ILIB03122411353D

 28 29  0  0  1  0              1 V2000
    1.9356    0.7178   -0.8926 O   0  0  0  0  0
    4.0110    0.9825   -1.7807 O   0  0  0  0  0
   -4.8206    0.0228   -4.0124 O   0  0  0  0  0
   -6.4789    0.7593   -1.9773 O   0  0  0  0  0
    3.5971   -0.0499    2.8255 O   0  0  0  0  0
    3.3016    0.7562   -0.8058 C   0  0  0  0  0
    1.1355    0.4520    0.2398 C   0  0  0  0  0
   -4.2819    0.3722   -2.8043 C   0  0  0  0  0
   -5.1295    0.7494   -1.7697 C   0  0  0  0  0
    3.1162    0.2174    1.5656 C   0  0  0  0  0
   -2.3385    0.7044   -1.3768 C   0  0  0  0  0
    3.8998    0.4623    0.5109 C   0  0  0  0  0
    1.6871    0.2013    1.4418 C   0  0  0  0  0
   -2.8972    0.3535   -2.6143 C   0  0  0  0  0
   -4.5987    1.1136   -0.5363 C   0  0  0  0  0
   -3.2146    1.0958   -0.3423 C   0  0  0  0  0
   -0.2832    0.4635    0.0144 C   0  0  0  0  0
   -0.8880    0.7013   -1.1596 C   0  0  0  0  0
   -4.0966   -0.2033   -4.6221 H   0  0  0  0  0
   -6.9176    1.0412   -1.1559 H   0  0  0  0  0
    4.5682   -0.0152    2.7897 H   0  0  0  0  0
    4.9811    0.4750    0.5898 H   0  0  0  0  0
    1.0872   -0.0047    2.3218 H   0  0  0  0  0
   -2.2593    0.0589   -3.4452 H   0  0  0  0  0
   -5.2483    1.4123    0.2815 H   0  0  0  0  0
   -2.8358    1.3819    0.6363 H   0  0  0  0  0
   -0.9015    0.2525    0.8984 H   0  0  0  0  0
   -0.2873    0.9237   -2.0399 H   0  0  0  0  0
  1  6  1  0  0  0
  1  7  1  0  0  0
  2  6  2  0  0  0
  3  8  1  0  0  0
  3 19  1  0  0  0
  4  9  1  0  0  0
  4 20  1  0  0  0
  5 10  1  0  0  0
  5 21  1  0  0  0
  6 12  1  0  0  0
  7 13  2  0  0  0
  7 17  1  0  0  0
  8  9  2  0  0  0
  8 14  1  0  0  0
  9 15  1  0  0  0
 10 12  2  0  0  0
 10 13  1  0  0  0
 11 14  2  0  0  0
 11 16  1  0  0  0
 11 18  1  0  0  0
 12 22  1  0  0  0
 13 23  1  0  0  0
 14 24  1  0  0  0
 15 16  2  0  0  0
 15 25  1  0  0  0
 16 26  1  0  0  0
 17 18  2  0  0  0
 17 27  1  0  0  0
 18 28  1  0  0  0
M  END
> <Tumorigenic>
none

> <Score>
43.154816

> <Active/Decoy>
active

> <InChI>
InChI=1S/C13H10O5/c14-9-6-10(18-13(17)7-9)3-1-8-2-4-11(15)12(16)5-8/h1-7,14-16H/b3-1+

> <Matching Features>
H:14924486185440016873|HBA:149238150533300697|HBA:14924321692640012300|HBA:14924486112070016868

> <Mol. Index>
545

> <Pharmacophore Match>
Model -1

> <# Confs.>
10

> <Source Database>
Pharm-Screening-input-EANPDB_After_DataWarror.ldb

> <Pharmacophore-Fit Score>
43.15

> <formula>
C13H10O5

> <Mutagenic>
none

> <Reproductive Effective>
none

> <Irritant>
none

$$$$
13,17-dihydroxy-labda-8,14-diene-17-O-xylopyranoside
XX    ILIB03122411353D

 73 75  0  0  1  0              1 V2000
   -0.6921   -2.1521   -2.2925 O   0  0  0  0  0
    3.9707    1.3718   -1.9492 O   0  0  0  0  0
   -2.4651    1.7948   -2.6633 O   0  0  0  0  0
   -5.4092   -0.3369   -2.0913 O   0  0  0  0  0
   -6.2051    1.2709   -4.3636 O   0  0  0  0  0
   -3.9487    2.0732   -6.0070 O   0  0  0  0  0
   -1.1385   -0.8487   -1.9046 C   0  0  1  0  0
    2.6879    1.9408   -1.6655 C   0  0  2  0  0
   -4.6874    0.8025   -2.5463 C   0  0  2  0  0
   -4.8449    0.9534   -4.0605 C   0  0  2  0  0
   -3.2134    0.6973   -2.1264 C   0  0  1  0  0
   -3.9404    2.0678   -4.5839 C   0  0  1  0  0
   -0.2104    0.3340    1.8146 C   0  0  1  0  0
   -0.8737   -0.9209    2.5324 C   0  0  1  0  0
   -2.5124    1.9013   -4.0824 C   0  0  0  0  0
   -2.5618   -0.6553   -2.4460 C   0  0  0  0  0
   -1.0315   -0.6662   -0.4099 C   0  0  0  0  0
    2.8171    3.2645   -0.9701 C   0  0  0  0  0
    1.8642    0.8930   -0.9035 C   0  0  0  0  0
   -0.2786    0.2587    0.2329 C   0  0  0  0  0
   -1.1546   -0.7659    4.0895 C   0  0  0  0  0
   -0.9371    1.6311    2.2668 C   0  0  0  0  0
   -2.1605   -1.3043    1.7741 C   0  0  0  0  0
    1.2895    0.4074    2.1898 C   0  0  0  0  0
    3.9561    3.8746   -0.6203 C   0  0  0  0  0
   -1.8743   -1.6663    0.3299 C   0  0  0  0  0
    0.4621    1.3222   -0.5051 C   0  0  0  0  0
   -1.8318    0.5873    4.3871 C   0  0  0  0  0
   -1.1068    1.7760    3.7751 C   0  0  0  0  0
   -2.0936   -1.8823    4.6230 C   0  0  0  0  0
    0.1355   -0.9110    4.9338 C   0  0  0  0  0
   -1.3674   -2.7968   -2.0206 H   0  0  0  0  0
    4.3435    1.0547   -1.1005 H   0  0  0  0  0
   -6.3260   -0.2440   -2.3991 H   0  0  0  0  0
   -6.4256    2.1059   -3.9193 H   0  0  0  0  0
   -3.6033    1.2160   -6.3117 H   0  0  0  0  0
   -0.4599   -0.1412   -2.3952 H   0  0  0  0  0
    2.2221    2.1035   -2.6544 H   0  0  0  0  0
   -5.1290    1.6784   -2.0548 H   0  0  0  0  0
   -4.6382    0.0061   -4.5701 H   0  0  0  0  0
   -3.1757    0.8099   -1.0356 H   0  0  0  0  0
   -4.3329    3.0380   -4.2557 H   0  0  0  0  0
   -0.1875   -1.7729    2.4152 H   0  0  0  0  0
   -1.9197    2.7768   -4.3733 H   0  0  0  0  0
   -2.0157    1.0431   -4.5479 H   0  0  0  0  0
   -2.5385   -0.8007   -3.5347 H   0  0  0  0  0
   -3.1849   -1.4614   -2.0361 H   0  0  0  0  0
    1.8878    3.7758   -0.7225 H   0  0  0  0  0
    1.8272   -0.0257   -1.4876 H   0  0  0  0  0
    2.4276    0.6569    0.0209 H   0  0  0  0  0
   -0.3998    2.5203    1.9181 H   0  0  0  0  0
   -1.9293    1.6802    1.8005 H   0  0  0  0  0
   -2.6386   -2.1853    2.2127 H   0  0  0  0  0
   -2.8944   -0.4910    1.8181 H   0  0  0  0  0
    1.4668    0.5232    3.2550 H   0  0  0  0  0
    1.8217   -0.4923    1.8619 H   0  0  0  0  0
    1.7863    1.2746    1.7432 H   0  0  0  0  0
    4.9313    3.4494   -0.8263 H   0  0  0  0  0
    3.9264    4.8328   -0.1131 H   0  0  0  0  0
   -1.3778   -2.6443    0.2881 H   0  0  0  0  0
   -2.8414   -1.7808   -0.1765 H   0  0  0  0  0
    0.4854    2.2335    0.0920 H   0  0  0  0  0
   -0.0934    1.5783   -1.4333 H   0  0  0  0  0
   -2.8611    0.5785    4.0065 H   0  0  0  0  0
   -1.9142    0.7382    5.4708 H   0  0  0  0  0
   -0.1339    1.9250    4.2538 H   0  0  0  0  0
   -1.6839    2.6858    3.9795 H   0  0  0  0  0
   -2.1838   -1.8397    5.7154 H   0  0  0  0  0
   -3.1137   -1.7859    4.2383 H   0  0  0  0  0
   -1.7121   -2.8757    4.3616 H   0  0  0  0  0
    0.7286    0.0010    4.9811 H   0  0  0  0  0
    0.7675   -1.7221    4.5573 H   0  0  0  0  0
   -0.0969   -1.1450    5.9799 H   0  0  0  0  0
  1  7  1  0  0  0
  1 32  1  0  0  0
  2  8  1  0  0  0
  2 33  1  0  0  0
  3 11  1  0  0  0
  3 15  1  0  0  0
  4  9  1  0  0  0
  4 34  1  0  0  0
  5 10  1  0  0  0
  5 35  1  0  0  0
  6 12  1  0  0  0
  6 36  1  0  0  0
  7 16  1  0  0  0
  7 17  1  0  0  0
  7 37  1  0  0  0
  8 18  1  0  0  0
  8 19  1  0  0  0
  8 38  1  0  0  0
  9 10  1  0  0  0
  9 11  1  0  0  0
  9 39  1  0  0  0
 10 12  1  0  0  0
 10 40  1  0  0  0
 11 16  1  0  0  0
 11 41  1  0  0  0
 12 15  1  0  0  0
 12 42  1  0  0  0
 13 14  1  0  0  0
 13 20  1  0  0  0
 13 22  1  0  0  0
 13 24  1  0  0  0
 14 21  1  0  0  0
 14 23  1  0  0  0
 14 43  1  0  0  0
 15 44  1  0  0  0
 15 45  1  0  0  0
 16 46  1  0  0  0
 16 47  1  0  0  0
 17 20  2  0  0  0
 17 26  1  0  0  0
 18 25  2  0  0  0
 18 48  1  0  0  0
 19 27  1  0  0  0
 19 49  1  0  0  0
 19 50  1  0  0  0
 20 27  1  0  0  0
 21 28  1  0  0  0
 21 30  1  0  0  0
 21 31  1  0  0  0
 22 29  1  0  0  0
 22 51  1  0  0  0
 22 52  1  0  0  0
 23 26  1  0  0  0
 23 53  1  0  0  0
 23 54  1  0  0  0
 24 55  1  0  0  0
 24 56  1  0  0  0
 24 57  1  0  0  0
 25 58  1  0  0  0
 25 59  1  0  0  0
 26 60  1  0  0  0
 26 61  1  0  0  0
 27 62  1  0  0  0
 27 63  1  0  0  0
 28 29  1  0  0  0
 28 64  1  0  0  0
 28 65  1  0  0  0
 29 66  1  0  0  0
 29 67  1  0  0  0
 30 68  1  0  0  0
 30 69  1  0  0  0
 30 70  1  0  0  0
 31 71  1  0  0  0
 31 72  1  0  0  0
 31 73  1  0  0  0
M  END
> <Tumorigenic>
none

> <Score>
43.096733

> <Active/Decoy>
active

> <InChI>
InChI=1S/C25H42O6/c1-5-15(26)7-9-17-16(8-10-21-24(2,3)11-6-12-25(17,21)4)18(27)13-20-23(30)22(29)19(28)14-31-20/h5,15,18-23,26-30H,1,6-14H2,2-4H3/t15-,18+,19-,20-,21-,22+,23+,25-/m1/s1

> <Matching Features>
H:14924486185440016873|HBA:149238150533300697|HBA:14924321692640012300|HBA:14924486112070016868

> <Mol. Index>
475

> <Pharmacophore Match>
Model -1

> <# Confs.>
25

> <Source Database>
Pharm-Screening-input-EANPDB_After_DataWarror.ldb

> <Pharmacophore-Fit Score>
43.1

> <formula>
C25H42O6

> <Mutagenic>
none

> <Reproductive Effective>
none

> <Irritant>
none

$$$$
3-(3,4-dimethoxyphenyl)-6-methoxy-8,8-dimethyl-4H,8H-benzo[1,2-b:3,4-b']dipyran-4-one
XX    ILIB03122411353D

 51 54  0  0  1  0              1 V2000
   -0.4191   -0.3817    0.9564 O   0  0  0  0  0
   -0.8850    1.6342   -2.5468 O   0  0  0  0  0
    4.3422    0.3488    0.7950 O   0  0  0  0  0
    4.1311    1.6827   -1.4362 O   0  0  0  0  0
   -5.4991   -0.2127   -4.1252 O   0  0  0  0  0
   -7.2517    0.9804   -2.6140 O   0  0  0  0  0
    0.6803    0.1485    0.3270 C   0  0  0  0  0
   -1.6526   -0.1878    0.3887 C   0  0  0  0  0
   -0.7649    1.0507   -1.4765 C   0  0  0  0  0
    3.0754    0.4849    0.2893 C   0  0  0  0  0
    2.9616    1.2065   -0.9129 C   0  0  0  0  0
   -5.0401    0.2434   -2.9228 C   0  0  0  0  0
   -5.9865    0.8873   -2.1093 C   0  0  0  0  0
    0.5670    0.8584   -0.8681 C   0  0  0  0  0
   -1.9333    0.4767   -0.7551 C   0  0  0  0  0
   -3.3076    0.5967   -1.2395 C   0  0  0  0  0
    1.9394   -0.0432    0.9174 C   0  0  0  0  0
    1.7020    1.3892   -1.4894 C   0  0  0  0  0
   -3.7149    0.1070   -2.4784 C   0  0  0  0  0
   -5.5935    1.3822   -0.8634 C   0  0  0  0  0
   -4.2716    1.2403   -0.4292 C   0  0  0  0  0
    4.5642   -0.4472    1.9748 C   0  0  0  0  0
    4.0008    2.4119   -2.6544 C   0  0  0  0  0
   -4.5304   -0.8647   -4.9427 C   0  0  0  0  0
   -8.1969    1.6373   -1.7732 C   0  0  0  0  0
    2.0950   -0.7712    2.1710 C   0  0  0  0  0
    3.3234   -0.9583    2.6588 C   0  0  0  0  0
    5.3466    0.4440    2.9460 C   0  0  0  0  0
    5.4348   -1.6331    1.5466 C   0  0  0  0  0
   -2.4013   -0.6475    1.0219 H   0  0  0  0  0
    1.5902    1.9400   -2.4183 H   0  0  0  0  0
   -2.9803   -0.3890   -3.1079 H   0  0  0  0  0
   -6.2901    1.8863   -0.1990 H   0  0  0  0  0
   -4.0133    1.6428    0.5478 H   0  0  0  0  0
    5.0014    2.7388   -2.9534 H   0  0  0  0  0
    3.6017    1.7774   -3.4528 H   0  0  0  0  0
    3.3827    3.3058   -2.5149 H   0  0  0  0  0
   -5.0305   -1.1829   -5.8617 H   0  0  0  0  0
   -3.7228   -0.1786   -5.2208 H   0  0  0  0  0
   -4.1353   -1.7592   -4.4490 H   0  0  0  0  0
   -9.1562    1.6494   -2.2982 H   0  0  0  0  0
   -8.3360    1.0916   -0.8340 H   0  0  0  0  0
   -7.9038    2.6758   -1.5867 H   0  0  0  0  0
    1.2294   -1.1578    2.6932 H   0  0  0  0  0
    3.4402   -1.5101    3.5885 H   0  0  0  0  0
    4.7555    1.3225    3.2317 H   0  0  0  0  0
    5.6266   -0.0912    3.8580 H   0  0  0  0  0
    6.2568    0.8276    2.4742 H   0  0  0  0  0
    6.3532   -1.2863    1.0585 H   0  0  0  0  0
    5.7160   -2.2658    2.3965 H   0  0  0  0  0
    4.9134   -2.2570    0.8116 H   0  0  0  0  0
  1  7  1  0  0  0
  1  8  1  0  0  0
  2  9  2  0  0  0
  3 10  1  0  0  0
  3 22  1  0  0  0
  4 11  1  0  0  0
  4 23  1  0  0  0
  5 12  1  0  0  0
  5 24  1  0  0  0
  6 13  1  0  0  0
  6 25  1  0  0  0
  7 14  2  0  0  0
  7 17  1  0  0  0
  8 15  2  0  0  0
  8 30  1  0  0  0
  9 14  1  0  0  0
  9 15  1  0  0  0
 10 11  1  0  0  0
 10 17  2  0  0  0
 11 18  2  0  0  0
 12 13  2  0  0  0
 12 19  1  0  0  0
 13 20  1  0  0  0
 14 18  1  0  0  0
 15 16  1  0  0  0
 16 19  2  0  0  0
 16 21  1  0  0  0
 17 26  1  0  0  0
 18 31  1  0  0  0
 19 32  1  0  0  0
 20 21  2  0  0  0
 20 33  1  0  0  0
 21 34  1  0  0  0
 22 27  1  0  0  0
 22 28  1  0  0  0
 22 29  1  0  0  0
 23 35  1  0  0  0
 23 36  1  0  0  0
 23 37  1  0  0  0
 24 38  1  0  0  0
 24 39  1  0  0  0
 24 40  1  0  0  0
 25 41  1  0  0  0
 25 42  1  0  0  0
 25 43  1  0  0  0
 26 27  2  0  0  0
 26 44  1  0  0  0
 27 45  1  0  0  0
 28 46  1  0  0  0
 28 47  1  0  0  0
 28 48  1  0  0  0
 29 49  1  0  0  0
 29 50  1  0  0  0
 29 51  1  0  0  0
M  END
> <Tumorigenic>
none

> <Score>
43.080605

> <Active/Decoy>
active

> <InChI>
InChI=1S/C23H22O6/c1-23(2)9-8-14-21-15(11-19(27-5)22(14)29-23)20(24)16(12-28-21)13-6-7-17(25-3)18(10-13)26-4/h6-12H,1-5H3

> <Matching Features>
H:14924486185440016873|HBA:149238150533300697|HBA:14924321692640012300|HBA:14924486112070016868

> <Mol. Index>
233

> <Pharmacophore Match>
Model -1

> <# Confs.>
25

> <Source Database>
Pharm-Screening-input-EANPDB_After_DataWarror.ldb

> <Pharmacophore-Fit Score>
43.08

> <formula>
C23H22O6

> <Mutagenic>
none

> <Reproductive Effective>
none

> <Irritant>
none

$$$$
(Z)-volkendousin
XX    ILIB03122411353D

 54 57  0  0  1  0              1 V2000
   -4.1327   -1.2772   -2.9242 O   0  0  0  0  0
   -5.9818    0.7641   -3.4939 O   0  0  0  0  0
    5.1886    1.3203   -1.2064 O   0  0  0  0  0
   -3.6848   -0.0037   -3.3856 C   0  0  1  0  0
   -4.6842    1.0900   -3.0038 C   0  0  2  0  0
    0.3458    0.5692   -1.6302 C   0  0  2  0  0
   -0.8339    1.3754   -1.0165 C   0  0  1  0  0
    1.6761    1.2542   -1.2892 C   0  0  1  0  0
   -2.2260    0.6756   -1.3091 C   0  0  2  0  0
    1.9079    1.3942    0.2319 C   0  0  1  0  0
    3.9889    1.3220   -0.9772 C   0  0  0  0  0
   -2.3176    0.2748   -2.7940 C   0  0  0  0  0
    3.3276    1.9383    0.2264 C   0  0  0  0  0
   -4.7393    1.3044   -1.4949 C   0  0  0  0  0
    2.9602    0.6380   -1.8456 C   0  0  0  0  0
   -0.6015    1.7382    0.4748 C   0  0  0  0  0
    0.1718    0.4531   -3.1512 C   0  0  0  0  0
   -3.3601    1.6858   -0.9590 C   0  0  0  0  0
    0.7961    2.3084    0.7724 C   0  0  0  0  0
   -2.3999   -0.5951   -0.4437 C   0  0  0  0  0
    1.9256    0.0552    1.0052 C   0  0  0  0  0
   -1.2343    0.1968   -3.5874 C   0  0  0  0  0
    3.8685    2.8154    1.0812 C   0  0  0  0  0
    5.2414    3.4031    1.0648 C   0  0  0  0  0
   -4.9506   -1.4913   -3.4024 H   0  0  0  0  0
   -6.3128    0.0047   -2.9866 H   0  0  0  0  0
   -3.6407   -0.0751   -4.4789 H   0  0  0  0  0
   -4.3918    2.0295   -3.4878 H   0  0  0  0  0
    0.3511   -0.4460   -1.2170 H   0  0  0  0  0
   -0.8464    2.3409   -1.5479 H   0  0  0  0  0
    1.6201    2.2714   -1.7170 H   0  0  0  0  0
   -5.4601    2.0976   -1.2634 H   0  0  0  0  0
   -5.1213    0.4089   -0.9897 H   0  0  0  0  0
    3.0093   -0.4439   -1.7051 H   0  0  0  0  0
    3.1101    0.9003   -2.8958 H   0  0  0  0  0
   -1.3421    2.4807    0.7927 H   0  0  0  0  0
   -0.7535    0.8649    1.1136 H   0  0  0  0  0
    0.8095   -0.3583   -3.5238 H   0  0  0  0  0
    0.5100    1.3715   -3.6476 H   0  0  0  0  0
   -3.1071    2.6750   -1.3635 H   0  0  0  0  0
   -3.4375    1.8095    0.1278 H   0  0  0  0  0
    0.8730    3.3077    0.3243 H   0  0  0  0  0
    0.9009    2.4474    1.8558 H   0  0  0  0  0
   -3.3547   -1.0962   -0.6242 H   0  0  0  0  0
   -2.3911   -0.3656    0.6259 H   0  0  0  0  0
   -1.6127   -1.3312   -0.6361 H   0  0  0  0  0
    2.1067    0.2326    2.0721 H   0  0  0  0  0
    2.7144   -0.6210    0.6563 H   0  0  0  0  0
    0.9828   -0.4934    0.9253 H   0  0  0  0  0
   -1.3573   -0.0679   -4.6356 H   0  0  0  0  0
    3.2499    3.1661    1.9044 H   0  0  0  0  0
    5.1700    4.4931    1.1314 H   0  0  0  0  0
    5.8092    3.0459    1.9300 H   0  0  0  0  0
    5.8110    3.1720    0.1632 H   0  0  0  0  0
  1  4  1  0  0  0
  1 25  1  0  0  0
  2  5  1  0  0  0
  2 26  1  0  0  0
  3 11  2  0  0  0
  4  5  1  0  0  0
  4 12  1  0  0  0
  4 27  1  0  0  0
  5 14  1  0  0  0
  5 28  1  0  0  0
  6  7  1  0  0  0
  6  8  1  0  0  0
  6 17  1  0  0  0
  6 29  1  0  0  0
  7  9  1  0  0  0
  7 16  1  0  0  0
  7 30  1  0  0  0
  8 10  1  0  0  0
  8 15  1  0  0  0
  8 31  1  0  0  0
  9 12  1  0  0  0
  9 18  1  0  0  0
  9 20  1  0  0  0
 10 13  1  0  0  0
 10 19  1  0  0  0
 10 21  1  0  0  0
 11 13  1  0  0  0
 11 15  1  0  0  0
 12 22  2  0  0  0
 13 23  2  0  0  0
 14 18  1  0  0  0
 14 32  1  0  0  0
 14 33  1  0  0  0
 15 34  1  0  0  0
 15 35  1  0  0  0
 16 19  1  0  0  0
 16 36  1  0  0  0
 16 37  1  0  0  0
 17 22  1  0  0  0
 17 38  1  0  0  0
 17 39  1  0  0  0
 18 40  1  0  0  0
 18 41  1  0  0  0
 19 42  1  0  0  0
 19 43  1  0  0  0
 20 44  1  0  0  0
 20 45  1  0  0  0
 20 46  1  0  0  0
 21 47  1  0  0  0
 21 48  1  0  0  0
 21 49  1  0  0  0
 22 50  1  0  0  0
 23 24  1  0  0  0
 23 51  1  0  0  0
 24 52  1  0  0  0
 24 53  1  0  0  0
 24 54  1  0  0  0
M  END
> <Tumorigenic>
none

> <Score>
43.07011

> <Active/Decoy>
active

> <InChI>
InChI=1S/C21H30O3/c1-4-13-18(23)11-16-12-5-6-15-19(24)17(22)8-10-21(15,3)14(12)7-9-20(13,16)2/h4,6,12,14,16-17,19,22,24H,5,7-11H2,1-3H3/t12-,14+,16+,17+,19-,20-,21-/m1/s1

> <Matching Features>
H:14924486185440016873|HBA:149238150533300697|HBA:14924321692640012300|HBA:14924486112070016868

> <Mol. Index>
353

> <Pharmacophore Match>
Model -1

> <# Confs.>
2

> <Source Database>
Pharm-Screening-input-EANPDB_After_DataWarror.ldb

> <Pharmacophore-Fit Score>
43.07

> <formula>
C21H30O3

> <Mutagenic>
none

> <Reproductive Effective>
none

> <Irritant>
none

$$$$
6-demethyldurallone
XX    ILIB03122411353D

 48 51  0  0  1  0              1 V2000
   -0.4267   -0.3495    1.0217 O   0  0  0  0  0
   -0.8722    1.6496   -2.4948 O   0  0  0  0  0
    4.3446    0.3263    0.8453 O   0  0  0  0  0
   -5.4440   -0.2190   -4.0986 O   0  0  0  0  0
   -7.2241    0.9973   -2.6395 O   0  0  0  0  0
    4.0496    1.6896   -1.4883 O   0  0  0  0  0
    0.6785    0.1627    0.3876 C   0  0  0  0  0
   -1.6581   -0.1490    0.4507 C   0  0  0  0  0
   -0.7587    1.0558   -1.4305 C   0  0  0  0  0
    3.0779    0.4639    0.3464 C   0  0  0  0  0
   -5.0079    0.2535   -2.8940 C   0  0  0  0  0
   -5.9676    0.9103   -2.1076 C   0  0  0  0  0
    2.9531    1.1736   -0.8508 C   0  0  0  0  0
    0.5694    0.8667   -0.8146 C   0  0  0  0  0
   -1.9344    0.5088   -0.6985 C   0  0  0  0  0
   -3.3089    0.6516   -1.1740 C   0  0  0  0  0
    1.9382   -0.0425    0.9796 C   0  0  0  0  0
   -3.6905    0.1275   -2.4239 C   0  0  0  0  0
    1.7084    1.3779   -1.4384 C   0  0  0  0  0
   -5.6011    1.4185   -0.8595 C   0  0  0  0  0
   -4.2887    1.2827   -0.3987 C   0  0  0  0  0
    4.5657   -0.5421    1.9746 C   0  0  0  0  0
   -4.4596   -0.8837   -4.8866 C   0  0  0  0  0
   -8.1851    1.6674   -1.8272 C   0  0  0  0  0
    2.0922   -0.7573    2.2410 C   0  0  0  0  0
    3.3227   -0.9850    2.7036 C   0  0  0  0  0
    5.4555    0.2455    2.9405 C   0  0  0  0  0
    5.3264   -1.7671    1.4548 C   0  0  0  0  0
    4.8364    1.4665   -0.9604 H   0  0  0  0  0
   -2.4101   -0.5985    1.0884 H   0  0  0  0  0
   -2.9418   -0.3688   -3.0369 H   0  0  0  0  0
    1.6399    1.9301   -2.3713 H   0  0  0  0  0
   -6.3118    1.9262   -0.2133 H   0  0  0  0  0
   -4.0516    1.6916    0.5815 H   0  0  0  0  0
   -4.0837   -1.7779   -4.3779 H   0  0  0  0  0
   -3.6406   -0.2050   -5.1475 H   0  0  0  0  0
   -4.9374   -1.2049   -5.8169 H   0  0  0  0  0
   -7.9003    2.7116   -1.6587 H   0  0  0  0  0
   -8.3334    1.1416   -0.8778 H   0  0  0  0  0
   -9.1377    1.6627   -2.3645 H   0  0  0  0  0
    1.2220   -1.1022    2.7861 H   0  0  0  0  0
    3.4403   -1.5377    3.6325 H   0  0  0  0  0
    5.7436   -0.3503    3.8140 H   0  0  0  0  0
    4.9475    1.1499    3.2940 H   0  0  0  0  0
    6.3736    0.5831    2.4408 H   0  0  0  0  0
    6.2393   -1.4646    0.9295 H   0  0  0  0  0
    5.6045   -2.4506    2.2645 H   0  0  0  0  0
    4.7247   -2.3232    0.7281 H   0  0  0  0  0
  1  7  1  0  0  0
  1  8  1  0  0  0
  2  9  2  0  0  0
  3 10  1  0  0  0
  3 22  1  0  0  0
  4 11  1  0  0  0
  4 23  1  0  0  0
  5 12  1  0  0  0
  5 24  1  0  0  0
  6 13  1  0  0  0
  6 29  1  0  0  0
  7 14  2  0  0  0
  7 17  1  0  0  0
  8 15  2  0  0  0
  8 30  1  0  0  0
  9 14  1  0  0  0
  9 15  1  0  0  0
 10 13  1  0  0  0
 10 17  2  0  0  0
 11 12  2  0  0  0
 11 18  1  0  0  0
 12 20  1  0  0  0
 13 19  2  0  0  0
 14 19  1  0  0  0
 15 16  1  0  0  0
 16 18  2  0  0  0
 16 21  1  0  0  0
 17 25  1  0  0  0
 18 31  1  0  0  0
 19 32  1  0  0  0
 20 21  2  0  0  0
 20 33  1  0  0  0
 21 34  1  0  0  0
 22 26  1  0  0  0
 22 27  1  0  0  0
 22 28  1  0  0  0
 23 35  1  0  0  0
 23 36  1  0  0  0
 23 37  1  0  0  0
 24 38  1  0  0  0
 24 39  1  0  0  0
 24 40  1  0  0  0
 25 26  2  0  0  0
 25 41  1  0  0  0
 26 42  1  0  0  0
 27 43  1  0  0  0
 27 44  1  0  0  0
 27 45  1  0  0  0
 28 46  1  0  0  0
 28 47  1  0  0  0
 28 48  1  0  0  0
M  END
> <Tumorigenic>
none

> <Score>
43.06671

> <Active/Decoy>
active

> <InChI>
InChI=1S/C22H20O6/c1-22(2)8-7-13-20-14(10-16(23)21(13)28-22)19(24)15(11-27-20)12-5-6-17(25-3)18(9-12)26-4/h5-11,23H,1-4H3

> <Matching Features>
H:14924486185440016873|HBA:149238150533300697|HBA:14924321692640012300|HBA:14924486112070016868

> <Mol. Index>
231

> <Pharmacophore Match>
Model -1

> <# Confs.>
12

> <Source Database>
Pharm-Screening-input-EANPDB_After_DataWarror.ldb

> <Pharmacophore-Fit Score>
43.07

> <formula>
C22H20O6

> <Mutagenic>
none

> <Reproductive Effective>
none

> <Irritant>
none

$$$$
ekeberin B
XX    ILIB03122411353D

 56 59  0  0  1  0              1 V2000
   -4.1401   -1.2774   -2.9243 O   0  0  0  0  0
   -5.9866    0.7630   -3.4928 O   0  0  0  0  0
    5.1802    1.3084   -1.1781 O   0  0  0  0  0
   -3.6925   -0.0057   -3.3884 C   0  0  1  0  0
   -4.6893    1.0882   -3.0061 C   0  0  2  0  0
    1.9152    1.4180    0.2166 C   0  0  1  0  0
    1.6675    1.2698   -1.3037 C   0  0  2  0  0
    0.3416    0.5790   -1.6444 C   0  0  1  0  0
   -0.8392    1.3742   -1.0193 C   0  0  1  0  0
   -2.2301    0.6742   -1.3123 C   0  0  2  0  0
    3.3296    2.0705    0.2130 C   0  0  2  0  0
    3.9791    1.3490   -0.9653 C   0  0  0  0  0
   -2.3239    0.2774   -2.7993 C   0  0  0  0  0
   -4.7435    1.3056   -1.4976 C   0  0  0  0  0
    0.7897    2.3093    0.7663 C   0  0  0  0  0
    2.9539    0.6544   -1.8453 C   0  0  0  0  0
   -0.6002    1.7188    0.4752 C   0  0  0  0  0
    0.1631    0.4756   -3.1659 C   0  0  0  0  0
   -3.3638    1.6858   -0.9613 C   0  0  0  0  0
    4.1734    1.9880    1.4711 C   0  0  0  0  0
    1.9385    0.0674    0.9755 C   0  0  0  0  0
   -2.4048   -0.5972   -0.4483 C   0  0  0  0  0
   -1.2427    0.2109   -3.5971 C   0  0  0  0  0
    5.1752    3.1368    1.5841 C   0  0  0  0  0
   -4.9612   -1.4892   -3.3979 H   0  0  0  0  0
   -6.3248    0.0141   -2.9759 H   0  0  0  0  0
   -3.6487   -0.0785   -4.4824 H   0  0  0  0  0
   -4.3965    2.0275   -3.4918 H   0  0  0  0  0
    1.6093    2.2848   -1.7339 H   0  0  0  0  0
    0.3512   -0.4407   -1.2419 H   0  0  0  0  0
   -0.8560    2.3455   -1.5402 H   0  0  0  0  0
    3.2361    3.1324   -0.1003 H   0  0  0  0  0
   -5.1267    0.4138   -0.9906 H   0  0  0  0  0
   -5.4609    2.1020   -1.2680 H   0  0  0  0  0
    0.8477    3.3102    0.3203 H   0  0  0  0  0
    0.8968    2.4468    1.8480 H   0  0  0  0  0
    3.1198    0.9100   -2.8937 H   0  0  0  0  0
    3.0019   -0.4272   -1.6964 H   0  0  0  0  0
   -1.3508    2.4439    0.8106 H   0  0  0  0  0
   -0.7309    0.8333    1.1024 H   0  0  0  0  0
    0.4907    1.4015   -3.6547 H   0  0  0  0  0
    0.8057   -0.3264   -3.5483 H   0  0  0  0  0
   -3.4408    1.8075    0.1251 H   0  0  0  0  0
   -3.1100    2.6752   -1.3658 H   0  0  0  0  0
    3.5177    2.0093    2.3545 H   0  0  0  0  0
    4.7142    1.0454    1.5058 H   0  0  0  0  0
    2.7696   -0.5714    0.6600 H   0  0  0  0  0
    2.0438    0.2298    2.0537 H   0  0  0  0  0
    1.0245   -0.5141    0.8353 H   0  0  0  0  0
   -3.3578   -1.1016   -0.6324 H   0  0  0  0  0
   -1.6147   -1.3314   -0.6378 H   0  0  0  0  0
   -2.3999   -0.3678    0.6210 H   0  0  0  0  0
   -1.3682   -0.0474   -4.6462 H   0  0  0  0  0
    5.7236    3.0628    2.5292 H   0  0  0  0  0
    4.6549    4.1101    1.5829 H   0  0  0  0  0
    5.8910    3.1299    0.7697 H   0  0  0  0  0
  1  4  1  0  0  0
  1 25  1  0  0  0
  2  5  1  0  0  0
  2 26  1  0  0  0
  3 12  2  0  0  0
  4  5  1  0  0  0
  4 13  1  0  0  0
  4 27  1  0  0  0
  5 14  1  0  0  0
  5 28  1  0  0  0
  6  7  1  0  0  0
  6 11  1  0  0  0
  6 15  1  0  0  0
  6 21  1  0  0  0
  7  8  1  0  0  0
  7 16  1  0  0  0
  7 29  1  0  0  0
  8  9  1  0  0  0
  8 18  1  0  0  0
  8 30  1  0  0  0
  9 10  1  0  0  0
  9 17  1  0  0  0
  9 31  1  0  0  0
 10 13  1  0  0  0
 10 19  1  0  0  0
 10 22  1  0  0  0
 11 12  1  0  0  0
 11 20  1  0  0  0
 11 32  1  0  0  0
 12 16  1  0  0  0
 13 23  2  0  0  0
 14 19  1  0  0  0
 14 33  1  0  0  0
 14 34  1  0  0  0
 15 17  1  0  0  0
 15 35  1  0  0  0
 15 36  1  0  0  0
 16 37  1  0  0  0
 16 38  1  0  0  0
 17 39  1  0  0  0
 17 40  1  0  0  0
 18 23  1  0  0  0
 18 41  1  0  0  0
 18 42  1  0  0  0
 19 43  1  0  0  0
 19 44  1  0  0  0
 20 24  1  0  0  0
 20 45  1  0  0  0
 20 46  1  0  0  0
 21 47  1  0  0  0
 21 48  1  0  0  0
 21 49  1  0  0  0
 22 50  1  0  0  0
 22 51  1  0  0  0
 22 52  1  0  0  0
 23 53  1  0  0  0
 24 54  1  0  0  0
 24 55  1  0  0  0
 24 56  1  0  0  0
M  END
> <Tumorigenic>
none

> <Score>
43.03251

> <Active/Decoy>
active

> <InChI>
InChI=1S/C21H32O3/c1-4-13-18(23)11-16-12-5-6-15-19(24)17(22)8-10-21(15,3)14(12)7-9-20(13,16)2/h6,12-14,16-17,19,22,24H,4-5,7-11H2,1-3H3/t12-,13+,14+,16+,17+,19-,20-,21-/m1/s1

> <Matching Features>
H:14924486185440016873|HBA:149238150533300697|HBA:14924321692640012300|HBA:14924486112070016868

> <Mol. Index>
351

> <Pharmacophore Match>
Model -1

> <# Confs.>
4

> <Source Database>
Pharm-Screening-input-EANPDB_After_DataWarror.ldb

> <Pharmacophore-Fit Score>
43.03

> <formula>
C21H32O3

> <Mutagenic>
none

> <Reproductive Effective>
none

> <Irritant>
none

$$$$
abyssinin I
XX    ILIB03122411353D

 47 50  0  0  1  0              1 V2000
   -1.6762    1.6616   -1.8556 O   0  0  0  0  0
    3.9399    0.3871    0.6590 O   0  0  0  0  0
    3.3502    1.2419   -1.7475 O   0  0  0  0  0
   -6.1571    0.0134   -2.8808 O   0  0  0  0  0
   -4.9534    4.5391   -3.6407 O   0  0  0  0  0
   -4.1540   -1.5922   -1.9583 O   0  0  0  0  0
   -2.9675    1.7912   -2.3035 C   0  0  0  0  0
    2.6112    0.4192    0.3254 C   0  0  0  0  0
    2.2929    0.8779   -0.9623 C   0  0  0  0  0
   -5.1868    0.9745   -2.8088 C   0  0  0  0  0
   -4.6230    3.2833   -3.2161 C   0  0  0  0  0
   -0.0801    0.5439   -0.4960 C   0  0  0  0  0
   -3.8870    0.7328   -2.3435 C   0  0  0  0  0
    1.5996    0.0290    1.2052 C   0  0  0  0  0
   -3.3297    3.0614   -2.7568 C   0  0  0  0  0
   -5.5573    2.2503   -3.2401 C   0  0  0  0  0
    0.9530    0.9188   -1.3662 C   0  0  0  0  0
    0.2628    0.0895    0.7952 C   0  0  0  0  0
   -1.5228    0.5804   -0.9041 C   0  0  2  0  0
   -3.4200   -0.6134   -1.9254 C   0  0  0  0  0
    4.3380   -0.0731    1.9662 C   0  0  0  0  0
    3.0107    1.6998   -3.0537 C   0  0  0  0  0
    1.9344   -0.4371    2.5401 C   0  0  0  0  0
   -1.9718   -0.7256   -1.5243 C   0  0  0  0  0
    3.2188   -0.4835    2.8909 C   0  0  0  0  0
    5.1225    1.0778    2.6056 C   0  0  0  0  0
    5.2687   -1.2694    1.7363 C   0  0  0  0  0
   -5.7981   -0.8292   -2.5571 H   0  0  0  0  0
   -5.8849    4.5350   -3.9245 H   0  0  0  0  0
   -2.6092    3.8752   -2.7400 H   0  0  0  0  0
   -6.5670    2.4320   -3.5985 H   0  0  0  0  0
    0.6781    1.2676   -2.3576 H   0  0  0  0  0
   -0.5269   -0.2127    1.4813 H   0  0  0  0  0
   -2.1304    0.8389   -0.0282 H   0  0  0  0  0
    3.9416    1.9559   -3.5671 H   0  0  0  0  0
    2.5213    0.9044   -3.6360 H   0  0  0  0  0
    2.3890    2.5936   -3.0093 H   0  0  0  0  0
    1.1495   -0.7369    3.2242 H   0  0  0  0  0
   -1.4006   -0.9790   -2.4250 H   0  0  0  0  0
   -1.8682   -1.5405   -0.7989 H   0  0  0  0  0
    3.4777   -0.8316    3.8881 H   0  0  0  0  0
    4.4828    1.9580    2.7412 H   0  0  0  0  0
    5.9493    1.3948    1.9585 H   0  0  0  0  0
    5.5372    0.8011    3.5816 H   0  0  0  0  0
    6.1039   -0.9947    1.0821 H   0  0  0  0  0
    5.6797   -1.6570    2.6742 H   0  0  0  0  0
    4.7381   -2.0849    1.2311 H   0  0  0  0  0
  1  7  1  0  0  0
  1 19  1  0  0  0
  2  8  1  0  0  0
  2 21  1  0  0  0
  3  9  1  0  0  0
  3 22  1  0  0  0
  4 10  1  0  0  0
  4 28  1  0  0  0
  5 11  1  0  0  0
  5 29  1  0  0  0
  6 20  2  0  0  0
  7 13  2  0  0  0
  7 15  1  0  0  0
  8  9  2  0  0  0
  8 14  1  0  0  0
  9 17  1  0  0  0
 10 13  1  0  0  0
 10 16  2  0  0  0
 11 15  2  0  0  0
 11 16  1  0  0  0
 12 17  2  0  0  0
 12 18  1  0  0  0
 12 19  1  0  0  0
 13 20  1  0  0  0
 14 18  2  0  0  0
 14 23  1  0  0  0
 15 30  1  0  0  0
 16 31  1  0  0  0
 17 32  1  0  0  0
 18 33  1  0  0  0
 19 24  1  0  0  0
 19 34  1  0  0  0
 20 24  1  0  0  0
 21 25  1  0  0  0
 21 26  1  0  0  0
 21 27  1  0  0  0
 22 35  1  0  0  0
 22 36  1  0  0  0
 22 37  1  0  0  0
 23 25  2  0  0  0
 23 38  1  0  0  0
 24 39  1  0  0  0
 24 40  1  0  0  0
 25 41  1  0  0  0
 26 42  1  0  0  0
 26 43  1  0  0  0
 26 44  1  0  0  0
 27 45  1  0  0  0
 27 46  1  0  0  0
 27 47  1  0  0  0
M  END
> <Tumorigenic>
none

> <Score>
43.031433

> <Active/Decoy>
active

> <InChI>
InChI=1S/C21H20O6/c1-21(2)5-4-11-6-12(7-18(25-3)20(11)27-21)16-10-15(24)19-14(23)8-13(22)9-17(19)26-16/h4-9,16,22-23H,10H2,1-3H3/t16-/m0/s1

> <Matching Features>
H:14924486185440016873|HBA:149238150533300697|HBA:14924321692640012300|HBA:14924486112070016868

> <Mol. Index>
268

> <Pharmacophore Match>
Model -1

> <# Confs.>
11

> <Source Database>
Pharm-Screening-input-EANPDB_After_DataWarror.ldb

> <Pharmacophore-Fit Score>
43.03

> <formula>
C21H20O6

> <Mutagenic>
none

> <Reproductive Effective>
none

> <Irritant>
none

$$$$
piscidinol A
XX    ILIB03122411353D

 84 87  0  0  1  0              1 V2000
   -6.0432   -0.9457   -2.3375 O   0  0  0  0  0
   -6.3390    1.5561   -3.5806 O   0  0  0  0  0
    5.7236    1.3670   -1.7962 O   0  0  0  0  0
   -8.7326   -1.4408   -1.7060 O   0  0  0  0  0
   -6.8579    0.0749   -1.7478 C   0  0  1  0  0
   -6.3131    1.4572   -2.1439 C   0  0  1  0  0
   -2.0430    0.9977   -0.2599 C   0  0  2  0  0
    1.9948   -0.4729   -1.3257 C   0  0  2  0  0
   -3.2057    1.8844    0.2606 C   0  0  1  0  0
   -0.8689    1.4493    0.6802 C   0  0  2  0  0
    0.8288    0.5610   -1.0582 C   0  0  2  0  0
    3.0514   -0.4611   -0.1608 C   0  0  1  0  0
   -4.6655    1.6144   -0.1482 C   0  0  2  0  0
    4.5545    1.0609   -1.5553 C   0  0  0  0  0
   -8.3164   -0.1525   -2.1663 C   0  0  0  0  0
    0.3667    0.5976    0.4069 C   0  0  0  0  0
   -4.8850    1.6983   -1.6615 C   0  0  0  0  0
    4.0605    0.7495   -0.1322 C   0  0  0  0  0
   -1.6195    1.2270   -1.7215 C   0  0  0  0  0
    2.7242   -0.1897   -2.6630 C   0  0  0  0  0
   -3.0006    1.8838    1.8017 C   0  0  0  0  0
   -1.5650    1.3806    2.0582 C   0  0  0  0  0
   -0.3498    0.4275   -2.0703 C   0  0  0  0  0
    2.3516   -0.7372    1.1904 C   0  0  0  0  0
   -2.4017   -0.5098   -0.0871 C   0  0  0  0  0
    1.4261   -1.9194   -1.4416 C   0  0  0  0  0
   -0.4054    2.9327    0.5133 C   0  0  0  0  0
   -5.6361    2.5119    0.6393 C   0  0  0  0  0
    1.0564   -0.0124    1.3858 C   0  0  0  0  0
    3.5299    1.0947   -2.6599 C   0  0  0  0  0
   -8.5006   -0.1332   -3.6863 C   0  0  0  0  0
   -9.2355    0.8964   -1.5308 C   0  0  0  0  0
    5.2990    0.3475    0.7099 C   0  0  0  0  0
    3.5192    2.0599    0.4597 C   0  0  0  0  0
   -6.1616   -0.9108   -3.3015 H   0  0  0  0  0
   -5.7042    0.9327   -3.9509 H   0  0  0  0  0
   -8.6357   -1.4604   -0.7391 H   0  0  0  0  0
   -6.7518   -0.0475   -0.6626 H   0  0  0  0  0
   -6.9835    2.2294   -1.7737 H   0  0  0  0  0
   -3.0113    2.9156   -0.0881 H   0  0  0  0  0
    1.2339    1.5573   -1.2511 H   0  0  0  0  0
    3.6943   -1.3376   -0.3390 H   0  0  0  0  0
   -4.8777    0.5850    0.1480 H   0  0  0  0  0
   -4.2094    0.9935   -2.1673 H   0  0  0  0  0
   -4.5833    2.7079   -2.0138 H   0  0  0  0  0
   -1.4522    2.2899   -1.9240 H   0  0  0  0  0
   -2.4147    0.9181   -2.4095 H   0  0  0  0  0
    3.4091   -1.0214   -2.8776 H   0  0  0  0  0
    2.0137   -0.1666   -3.4975 H   0  0  0  0  0
   -3.7127    1.2376    2.3252 H   0  0  0  0  0
   -3.1335    2.8961    2.1993 H   0  0  0  0  0
   -1.6055    0.3552    2.4437 H   0  0  0  0  0
   -1.0652    1.9854    2.8235 H   0  0  0  0  0
   -0.0123    0.7493   -3.0626 H   0  0  0  0  0
   -0.6489   -0.6183   -2.1852 H   0  0  0  0  0
    2.1491   -1.8117    1.2838 H   0  0  0  0  0
    3.0117   -0.4947    2.0265 H   0  0  0  0  0
   -3.1275   -0.8247   -0.8455 H   0  0  0  0  0
   -1.5356   -1.1686   -0.1939 H   0  0  0  0  0
   -2.8330   -0.7339    0.8923 H   0  0  0  0  0
    0.8969   -2.0749   -2.3891 H   0  0  0  0  0
    0.7321   -2.1619   -0.6308 H   0  0  0  0  0
    2.2301   -2.6644   -1.4183 H   0  0  0  0  0
   -0.0709    3.1712   -0.4998 H   0  0  0  0  0
   -1.1833    3.6587    0.7684 H   0  0  0  0  0
    0.4378    3.1444    1.1840 H   0  0  0  0  0
   -5.4848    2.3856    1.7166 H   0  0  0  0  0
   -6.6761    2.2486    0.4216 H   0  0  0  0  0
   -5.5026    3.5725    0.4055 H   0  0  0  0  0
    0.7102    0.0423    2.4137 H   0  0  0  0  0
    2.9072    1.9862   -2.5491 H   0  0  0  0  0
    4.0556    1.1874   -3.6166 H   0  0  0  0  0
   -8.2073    0.8269   -4.1222 H   0  0  0  0  0
   -9.5482   -0.3234   -3.9511 H   0  0  0  0  0
   -7.9183   -0.9274   -4.1671 H   0  0  0  0  0
  -10.2862    0.6839   -1.7623 H   0  0  0  0  0
   -9.0046    1.9081   -1.8780 H   0  0  0  0  0
   -9.1518    0.8773   -0.4388 H   0  0  0  0  0
    5.0434    0.1465    1.7543 H   0  0  0  0  0
    5.7830   -0.5475    0.3008 H   0  0  0  0  0
    6.0532    1.1422    0.7174 H   0  0  0  0  0
    3.1787    1.9353    1.4918 H   0  0  0  0  0
    4.3045    2.8260    0.4770 H   0  0  0  0  0
    2.7081    2.4883   -0.1268 H   0  0  0  0  0
  1  5  1  0  0  0
  1 35  1  0  0  0
  2  6  1  0  0  0
  2 36  1  0  0  0
  3 14  2  0  0  0
  4 15  1  0  0  0
  4 37  1  0  0  0
  5  6  1  0  0  0
  5 15  1  0  0  0
  5 38  1  0  0  0
  6 17  1  0  0  0
  6 39  1  0  0  0
  7  9  1  0  0  0
  7 10  1  0  0  0
  7 19  1  0  0  0
  7 25  1  0  0  0
  8 11  1  0  0  0
  8 12  1  0  0  0
  8 20  1  0  0  0
  8 26  1  0  0  0
  9 13  1  0  0  0
  9 21  1  0  0  0
  9 40  1  0  0  0
 10 16  1  0  0  0
 10 22  1  0  0  0
 10 27  1  0  0  0
 11 16  1  0  0  0
 11 23  1  0  0  0
 11 41  1  0  0  0
 12 18  1  0  0  0
 12 24  1  0  0  0
 12 42  1  0  0  0
 13 17  1  0  0  0
 13 28  1  0  0  0
 13 43  1  0  0  0
 14 18  1  0  0  0
 14 30  1  0  0  0
 15 31  1  0  0  0
 15 32  1  0  0  0
 16 29  2  0  0  0
 17 44  1  0  0  0
 17 45  1  0  0  0
 18 33  1  0  0  0
 18 34  1  0  0  0
 19 23  1  0  0  0
 19 46  1  0  0  0
 19 47  1  0  0  0
 20 30  1  0  0  0
 20 48  1  0  0  0
 20 49  1  0  0  0
 21 22  1  0  0  0
 21 50  1  0  0  0
 21 51  1  0  0  0
 22 52  1  0  0  0
 22 53  1  0  0  0
 23 54  1  0  0  0
 23 55  1  0  0  0
 24 29  1  0  0  0
 24 56  1  0  0  0
 24 57  1  0  0  0
 25 58  1  0  0  0
 25 59  1  0  0  0
 25 60  1  0  0  0
 26 61  1  0  0  0
 26 62  1  0  0  0
 26 63  1  0  0  0
 27 64  1  0  0  0
 27 65  1  0  0  0
 27 66  1  0  0  0
 28 67  1  0  0  0
 28 68  1  0  0  0
 28 69  1  0  0  0
 29 70  1  0  0  0
 30 71  1  0  0  0
 30 72  1  0  0  0
 31 73  1  0  0  0
 31 74  1  0  0  0
 31 75  1  0  0  0
 32 76  1  0  0  0
 32 77  1  0  0  0
 32 78  1  0  0  0
 33 79  1  0  0  0
 33 80  1  0  0  0
 33 81  1  0  0  0
 34 82  1  0  0  0
 34 83  1  0  0  0
 34 84  1  0  0  0
M  END
> <Tumorigenic>
none

> <Score>
43.01198

> <Active/Decoy>
active

> <InChI>
InChI=1S/C30H50O4/c1-18(17-22(31)25(33)27(4,5)34)19-11-15-30(8)21-9-10-23-26(2,3)24(32)13-14-28(23,6)20(21)12-16-29(19,30)7/h9,18-20,22-23,25,31,33-34H,10-17H2,1-8H3/t18-,19-,20-,22+,23+,25-,28+,29+,30-/m0/s1

> <Matching Features>
H:14924486185440016873|HBA:149238150533300697|HBA:14924321692640012300|HBA:14924486112070016868

> <Mol. Index>
372

> <Pharmacophore Match>
Model -1

> <# Confs.>
22

> <Source Database>
Pharm-Screening-input-EANPDB_After_DataWarror.ldb

> <Pharmacophore-Fit Score>
43.01

> <formula>
C30H50O4

> <Mutagenic>
none

> <Reproductive Effective>
none

> <Irritant>
none

$$$$
chlorogenic acid
XX    ILIB03122411353D

 43 44  0  0  1  0              1 V2000
    4.0523    0.9154   -1.3174 O   0  0  0  0  0
    4.2816    2.1867    1.2643 O   0  0  0  0  0
   -6.5031   -0.8129   -3.0541 O   0  0  0  0  0
   -3.5483   -1.1827    0.2949 O   0  0  0  0  0
   -7.0084   -2.1441    0.9975 O   0  0  0  0  0
   -7.2506    0.6090    1.4352 O   0  0  0  0  0
   -3.4566    0.0895   -2.2719 O   0  0  0  0  0
   -2.3208   -3.0683   -0.2083 O   0  0  0  0  0
   -5.1382    1.4926   -2.8943 O   0  0  0  0  0
    3.1608    0.7124   -0.3023 C   0  0  0  0  0
    3.2822    1.3120    0.9476 C   0  0  0  0  0
    1.1424   -0.4392    0.4251 C   0  0  0  0  0
    2.0949   -0.1534   -0.5659 C   0  0  0  0  0
    2.3491    1.0338    1.9431 C   0  0  0  0  0
    1.2865    0.1650    1.6830 C   0  0  0  0  0
   -5.7516   -0.5338   -1.8593 C   0  0  2  0  0
   -5.8451   -1.3173    1.0249 C   0  0  1  0  0
   -4.7741   -1.9198    0.1145 C   0  0  1  0  0
   -6.2255    0.0980    0.5846 C   0  0  1  0  0
   -4.6484    0.3487   -2.3595 C   0  0  0  0  0
   -2.4198   -1.8930    0.0828 C   0  0  0  0  0
    0.0063   -1.3390    0.1999 C   0  0  0  0  0
   -5.2158   -1.8887   -1.3658 C   0  0  0  0  0
   -6.7045    0.1454   -0.8673 C   0  0  0  0  0
   -1.2803   -0.9744    0.3075 C   0  0  0  0  0
    4.8353    1.3772   -0.9795 H   0  0  0  0  0
    4.7633    2.4412    0.4616 H   0  0  0  0  0
   -6.9394    0.0099   -3.3341 H   0  0  0  0  0
   -6.7467   -3.0267    1.3099 H   0  0  0  0  0
   -8.0138    0.0099    1.3704 H   0  0  0  0  0
   -4.4232    2.0838   -3.2134 H   0  0  0  0  0
    2.0230   -0.6062   -1.5527 H   0  0  0  0  0
    2.4355    1.4929    2.9243 H   0  0  0  0  0
    0.5698   -0.0305    2.4781 H   0  0  0  0  0
   -5.4931   -1.2833    2.0625 H   0  0  0  0  0
   -4.6097   -2.9659    0.3936 H   0  0  0  0  0
   -5.3660    0.7620    0.7140 H   0  0  0  0  0
    0.2732   -2.3592   -0.0655 H   0  0  0  0  0
   -4.3838   -2.2054   -2.0078 H   0  0  0  0  0
   -5.9991   -2.6458   -1.5036 H   0  0  0  0  0
   -7.6983   -0.3187   -0.9368 H   0  0  0  0  0
   -6.8791    1.1900   -1.1560 H   0  0  0  0  0
   -1.5623    0.0402    0.5755 H   0  0  0  0  0
  1 10  1  0  0  0
  1 26  1  0  0  0
  2 11  1  0  0  0
  2 27  1  0  0  0
  3 16  1  0  0  0
  3 28  1  0  0  0
  4 18  1  0  0  0
  4 21  1  0  0  0
  5 17  1  0  0  0
  5 29  1  0  0  0
  6 19  1  0  0  0
  6 30  1  0  0  0
  7 20  2  0  0  0
  8 21  2  0  0  0
  9 20  1  0  0  0
  9 31  1  0  0  0
 10 11  2  0  0  0
 10 13  1  0  0  0
 11 14  1  0  0  0
 12 13  2  0  0  0
 12 15  1  0  0  0
 12 22  1  0  0  0
 13 32  1  0  0  0
 14 15  2  0  0  0
 14 33  1  0  0  0
 15 34  1  0  0  0
 16 20  1  0  0  0
 16 23  1  0  0  0
 16 24  1  0  0  0
 17 18  1  0  0  0
 17 19  1  0  0  0
 17 35  1  0  0  0
 18 23  1  0  0  0
 18 36  1  0  0  0
 19 24  1  0  0  0
 19 37  1  0  0  0
 21 25  1  0  0  0
 22 25  2  0  0  0
 22 38  1  0  0  0
 23 39  1  0  0  0
 23 40  1  0  0  0
 24 41  1  0  0  0
 24 42  1  0  0  0
 25 43  1  0  0  0
M  END
> <Tumorigenic>
none

> <Score>
42.968155

> <Active/Decoy>
active

> <InChI>
InChI=1S/C16H18O9/c17-9-3-1-8(5-10(9)18)2-4-13(20)25-12-7-16(24,15(22)23)6-11(19)14(12)21/h1-5,11-12,14,17-19,21,24H,6-7H2,(H,22,23)/b4-2+/t11-,12-,14-,16+/m1/s1

> <Matching Features>
H:14924486185440016873|HBA:149238150533300697|HBA:14924321692640012300|HBA:14924486112070016868

> <Mol. Index>
503

> <Pharmacophore Match>
Model -1

> <# Confs.>
25

> <Source Database>
Pharm-Screening-input-EANPDB_After_DataWarror.ldb

> <Pharmacophore-Fit Score>
42.97

> <formula>
C16H18O9

> <Mutagenic>
none

> <Reproductive Effective>
none

> <Irritant>
none

$$$$
toonapubesin F
XX    ILIB03122411353D

 85 88  0  0  1  0              1 V2000
   -6.5863   -0.4780   -1.9242 O   0  0  0  0  0
   -6.4230    1.0594   -4.2072 O   0  0  0  0  0
    6.3991    3.3641    1.1157 O   0  0  0  0  0
   -8.2754    2.7577   -1.7315 O   0  0  0  0  0
    5.7566    1.3920   -1.1175 O   0  0  0  0  0
   -6.6963    0.9480   -1.8309 C   0  0  1  0  0
   -5.8662    1.5522   -2.9819 C   0  0  1  0  0
   -1.2213    1.7378   -0.5017 C   0  0  1  0  0
    2.3777    2.6183    1.9327 C   0  0  2  0  0
    3.4524    1.4676    1.9867 C   0  0  2  0  0
   -2.1456    1.3450   -1.6929 C   0  0  2  0  0
    0.0607    0.8843   -0.8182 C   0  0  1  0  0
    4.7058    1.6174    1.0365 C   0  0  2  0  0
    1.4593    2.4912    0.6502 C   0  0  1  0  0
   -3.6491    1.6890   -1.6992 C   0  0  2  0  0
    5.2016    3.0740    1.0706 C   0  0  0  0  0
   -8.1847    1.3310   -1.8252 C   0  0  0  0  0
    4.5168    1.2626   -0.4291 C   0  0  0  0  0
    1.0748    1.0422    0.3114 C   0  0  0  0  0
   -4.3814    1.2233   -2.9484 C   0  0  0  0  0
   -0.8269    3.2156   -0.4151 C   0  0  0  0  0
    3.0983    3.9886    1.9912 C   0  0  0  0  0
   -1.8799   -0.1826   -1.8603 C   0  0  0  0  0
    2.7476    0.0929    1.9326 C   0  0  0  0  0
   -0.5729   -0.4965   -1.1014 C   0  0  0  0  0
    0.2331    3.4558    0.6773 C   0  0  0  0  0
   -1.8844    1.3258    0.8542 C   0  0  0  0  0
    1.5170    2.5317    3.2308 C   0  0  0  0  0
    0.8165    1.2790   -2.1271 C   0  0  0  0  0
    5.8527    0.7336    1.5999 C   0  0  0  0  0
   -3.8532    3.2054   -1.5557 C   0  0  0  0  0
    1.6522   -0.0082    0.9194 C   0  0  0  0  0
    4.1710    4.1632    0.9339 C   0  0  0  0  0
   -8.8776    0.9081   -3.1244 C   0  0  0  0  0
   -8.9384    0.7624   -0.6201 C   0  0  0  0  0
   -7.0015   -0.7498   -2.7609 H   0  0  0  0  0
   -6.2989    0.0835   -4.2141 H   0  0  0  0  0
   -7.8342    3.1383   -2.5101 H   0  0  0  0  0
    6.0524    2.3116   -1.0129 H   0  0  0  0  0
   -6.2453    1.2246   -0.8696 H   0  0  0  0  0
   -6.0013    2.6309   -3.0009 H   0  0  0  0  0
    3.8842    1.5267    2.9982 H   0  0  0  0  0
   -1.7529    1.8406   -2.5842 H   0  0  0  0  0
    2.0513    2.8363   -0.2005 H   0  0  0  0  0
   -4.1249    1.2183   -0.8116 H   0  0  0  0  0
    3.7943    1.9225   -0.9171 H   0  0  0  0  0
    4.1845    0.2264   -0.5424 H   0  0  0  0  0
   -3.9066    1.7139   -3.8032 H   0  0  0  0  0
   -4.2166    0.1365   -3.0865 H   0  0  0  0  0
   -0.4531    3.5802   -1.3777 H   0  0  0  0  0
   -1.6988    3.8373   -0.1837 H   0  0  0  0  0
    2.3791    4.8116    1.9136 H   0  0  0  0  0
    3.5740    4.0987    2.9773 H   0  0  0  0  0
   -2.6887   -0.8053   -1.4670 H   0  0  0  0  0
   -1.7770   -0.4248   -2.9241 H   0  0  0  0  0
    2.3129   -0.1346    2.9140 H   0  0  0  0  0
    3.4698   -0.7081    1.7515 H   0  0  0  0  0
    0.0759   -1.1549   -1.6885 H   0  0  0  0  0
   -0.8117   -1.0343   -0.1770 H   0  0  0  0  0
   -0.2812    3.4037    1.6407 H   0  0  0  0  0
    0.5839    4.4902    0.5840 H   0  0  0  0  0
   -1.1825    1.3420    1.6926 H   0  0  0  0  0
   -2.3075    0.3177    0.8334 H   0  0  0  0  0
   -2.6945    2.0167    1.1117 H   0  0  0  0  0
    0.9383    3.4468    3.3956 H   0  0  0  0  0
    2.1504    2.4087    4.1171 H   0  0  0  0  0
    0.8142    1.6926    3.2083 H   0  0  0  0  0
    1.1468    2.3208   -2.1416 H   0  0  0  0  0
    0.2219    1.1241   -3.0326 H   0  0  0  0  0
    1.7150    0.6583   -2.2487 H   0  0  0  0  0
    5.5846   -0.3259    1.6410 H   0  0  0  0  0
    6.1325    1.0474    2.6121 H   0  0  0  0  0
    6.7543    0.8117    0.9803 H   0  0  0  0  0
   -4.9185    3.4602   -1.5682 H   0  0  0  0  0
   -3.3681    3.7404   -2.3791 H   0  0  0  0  0
   -3.4442    3.5844   -0.6143 H   0  0  0  0  0
    1.3632   -1.0198    0.6514 H   0  0  0  0  0
    4.6658    5.1299    1.0796 H   0  0  0  0  0
    3.7697    4.1572   -0.0819 H   0  0  0  0  0
   -8.3619    1.3269   -3.9958 H   0  0  0  0  0
   -9.9041    1.2927   -3.1604 H   0  0  0  0  0
   -8.9159   -0.1803   -3.2338 H   0  0  0  0  0
   -9.9851    1.0897   -0.6300 H   0  0  0  0  0
   -8.5180    1.1294    0.3225 H   0  0  0  0  0
   -8.9215   -0.3323   -0.6072 H   0  0  0  0  0
  1  6  1  0  0  0
  1 36  1  0  0  0
  2  7  1  0  0  0
  2 37  1  0  0  0
  3 16  2  0  0  0
  4 17  1  0  0  0
  4 38  1  0  0  0
  5 18  1  0  0  0
  5 39  1  0  0  0
  6  7  1  0  0  0
  6 17  1  0  0  0
  6 40  1  0  0  0
  7 20  1  0  0  0
  7 41  1  0  0  0
  8 11  1  0  0  0
  8 12  1  0  0  0
  8 21  1  0  0  0
  8 27  1  0  0  0
  9 10  1  0  0  0
  9 14  1  0  0  0
  9 22  1  0  0  0
  9 28  1  0  0  0
 10 13  1  0  0  0
 10 24  1  0  0  0
 10 42  1  0  0  0
 11 15  1  0  0  0
 11 23  1  0  0  0
 11 43  1  0  0  0
 12 19  1  0  0  0
 12 25  1  0  0  0
 12 29  1  0  0  0
 13 16  1  0  0  0
 13 18  1  0  0  0
 13 30  1  0  0  0
 14 19  1  0  0  0
 14 26  1  0  0  0
 14 44  1  0  0  0
 15 20  1  0  0  0
 15 31  1  0  0  0
 15 45  1  0  0  0
 16 33  1  0  0  0
 17 34  1  0  0  0
 17 35  1  0  0  0
 18 46  1  0  0  0
 18 47  1  0  0  0
 19 32  2  0  0  0
 20 48  1  0  0  0
 20 49  1  0  0  0
 21 26  1  0  0  0
 21 50  1  0  0  0
 21 51  1  0  0  0
 22 33  1  0  0  0
 22 52  1  0  0  0
 22 53  1  0  0  0
 23 25  1  0  0  0
 23 54  1  0  0  0
 23 55  1  0  0  0
 24 32  1  0  0  0
 24 56  1  0  0  0
 24 57  1  0  0  0
 25 58  1  0  0  0
 25 59  1  0  0  0
 26 60  1  0  0  0
 26 61  1  0  0  0
 27 62  1  0  0  0
 27 63  1  0  0  0
 27 64  1  0  0  0
 28 65  1  0  0  0
 28 66  1  0  0  0
 28 67  1  0  0  0
 29 68  1  0  0  0
 29 69  1  0  0  0
 29 70  1  0  0  0
 30 71  1  0  0  0
 30 72  1  0  0  0
 30 73  1  0  0  0
 31 74  1  0  0  0
 31 75  1  0  0  0
 31 76  1  0  0  0
 32 77  1  0  0  0
 33 78  1  0  0  0
 33 79  1  0  0  0
 34 80  1  0  0  0
 34 81  1  0  0  0
 34 82  1  0  0  0
 35 83  1  0  0  0
 35 84  1  0  0  0
 35 85  1  0  0  0
M  END
> <Tumorigenic>
none

> <Score>
42.926033

> <Active/Decoy>
active

> <InChI>
InChI=1S/C30H50O5/c1-18(16-22(32)25(34)26(2,3)35)19-10-14-30(7)21-8-9-23-27(4,20(21)11-15-29(19,30)6)13-12-24(33)28(23,5)17-31/h8,18-20,22-23,25,31-32,34-35H,9-17H2,1-7H3/t18-,19-,20+,22+,23+,25-,27-,28+,29-,30+/m0/s1

> <Matching Features>
H:14924486185440016873|HBA:149238150533300697|HBA:14924321692640012300|HBA:14924486112070016868

> <Mol. Index>
373

> <Pharmacophore Match>
Model -1

> <# Confs.>
12

> <Source Database>
Pharm-Screening-input-EANPDB_After_DataWarror.ldb

> <Pharmacophore-Fit Score>
42.93

> <formula>
C30H50O5

> <Mutagenic>
none

> <Reproductive Effective>
none

> <Irritant>
none

$$$$
aloenin
XX    ILIB03122411353D

 51 53  0  0  1  0              1 V2000
    2.0334    0.3569   -0.7067 O   0  0  0  0  0
    3.2382    1.4220   -2.3087 O   0  0  0  0  0
   -1.0562   -0.9936   -0.5205 O   0  0  0  0  0
    3.5614   -3.3243   -1.8766 O   0  0  0  0  0
   -2.0354   -0.3275    4.1334 O   0  0  0  0  0
   -3.3698   -1.3348   -0.7171 O   0  0  0  0  0
   -1.2081    0.9531   -2.5959 O   0  0  0  0  0
   -3.4154    0.4774   -4.4092 O   0  0  0  0  0
   -5.8935    0.0858   -2.9574 O   0  0  0  0  0
   -5.6798   -2.0609    0.6997 O   0  0  0  0  0
    2.9162    0.3788   -1.7491 C   0  0  0  0  0
    1.6686   -0.8546   -0.0751 C   0  0  0  0  0
   -0.6723   -0.7721    0.7634 C   0  0  0  0  0
    3.1228   -2.0579   -1.5770 C   0  0  0  0  0
   -1.1180   -0.4508    3.1261 C   0  0  0  0  0
    0.7122   -0.7087    1.0303 C   0  0  0  0  0
    1.1754   -0.5234    2.3545 C   0  0  0  0  0
    3.4781   -0.9155   -2.1860 C   0  0  0  0  0
    2.1848   -2.0285   -0.4827 C   0  0  0  0  0
   -1.5868   -0.6450    1.8300 C   0  0  0  0  0
    0.2459   -0.3856    3.3948 C   0  0  0  0  0
   -2.2958   -0.4120   -0.9247 C   0  0  2  0  0
   -2.1773   -0.0792   -2.4154 C   0  0  1  0  0
   -3.5072    0.4085   -2.9853 C   0  0  2  0  0
   -4.6566   -0.5234   -2.6000 C   0  0  1  0  0
   -4.6424   -0.7990   -1.0941 C   0  0  1  0  0
   -5.7036   -1.8184   -0.6998 C   0  0  0  0  0
    4.4920   -3.4220   -2.9516 C   0  0  0  0  0
    2.6435   -0.4523    2.6820 C   0  0  0  0  0
   -1.5595   -0.2051    4.9730 H   0  0  0  0  0
   -0.3790    0.6449   -2.1920 H   0  0  0  0  0
   -3.2350   -0.4178   -4.7428 H   0  0  0  0  0
   -5.8657    0.2570   -3.9152 H   0  0  0  0  0
   -4.8256   -2.4720    0.9148 H   0  0  0  0  0
    4.1797   -0.8784   -3.0107 H   0  0  0  0  0
    1.9271   -2.9726   -0.0140 H   0  0  0  0  0
   -2.6604   -0.6916    1.6708 H   0  0  0  0  0
    0.5882   -0.2333    4.4153 H   0  0  0  0  0
   -2.4731    0.5105   -0.3510 H   0  0  0  0  0
   -1.8235   -0.9520   -2.9791 H   0  0  0  0  0
   -3.7165    1.4307   -2.6509 H   0  0  0  0  0
   -4.5740   -1.4641   -3.1574 H   0  0  0  0  0
   -4.8213    0.1224   -0.5240 H   0  0  0  0  0
   -6.6992   -1.4448   -0.9568 H   0  0  0  0  0
   -5.5751   -2.7700   -1.2296 H   0  0  0  0  0
    4.7519   -4.4779   -3.0745 H   0  0  0  0  0
    4.0483   -3.0720   -3.8886 H   0  0  0  0  0
    5.4109   -2.8722   -2.7246 H   0  0  0  0  0
    3.1381   -1.3879    2.4299 H   0  0  0  0  0
    3.1176    0.3767    2.1344 H   0  0  0  0  0
    2.8093   -0.2634    3.7489 H   0  0  0  0  0
  1 11  1  0  0  0
  1 12  1  0  0  0
  2 11  2  0  0  0
  3 13  1  0  0  0
  3 22  1  0  0  0
  4 14  1  0  0  0
  4 28  1  0  0  0
  5 15  1  0  0  0
  5 30  1  0  0  0
  6 22  1  0  0  0
  6 26  1  0  0  0
  7 23  1  0  0  0
  7 31  1  0  0  0
  8 24  1  0  0  0
  8 32  1  0  0  0
  9 25  1  0  0  0
  9 33  1  0  0  0
 10 27  1  0  0  0
 10 34  1  0  0  0
 11 18  1  0  0  0
 12 16  1  0  0  0
 12 19  2  0  0  0
 13 16  2  0  0  0
 13 20  1  0  0  0
 14 18  2  0  0  0
 14 19  1  0  0  0
 15 20  2  0  0  0
 15 21  1  0  0  0
 16 17  1  0  0  0
 17 21  2  0  0  0
 17 29  1  0  0  0
 18 35  1  0  0  0
 19 36  1  0  0  0
 20 37  1  0  0  0
 21 38  1  0  0  0
 22 23  1  0  0  0
 22 39  1  0  0  0
 23 24  1  0  0  0
 23 40  1  0  0  0
 24 25  1  0  0  0
 24 41  1  0  0  0
 25 26  1  0  0  0
 25 42  1  0  0  0
 26 27  1  0  0  0
 26 43  1  0  0  0
 27 44  1  0  0  0
 27 45  1  0  0  0
 28 46  1  0  0  0
 28 47  1  0  0  0
 28 48  1  0  0  0
 29 49  1  0  0  0
 29 50  1  0  0  0
 29 51  1  0  0  0
M  END
> <Tumorigenic>
none

> <Score>
42.91365

> <Active/Decoy>
active

> <InChI>
InChI=1S/C19H22O10/c1-8-3-9(21)4-11(15(8)12-5-10(26-2)6-14(22)27-12)28-19-18(25)17(24)16(23)13(7-20)29-19/h3-6,13,16-21,23-25H,7H2,1-2H3/t13-,16-,17+,18-,19-/m1/s1

> <Matching Features>
H:14924486185440016873|HBA:149238150533300697|HBA:14924321692640012300|HBA:14924486112070016868

> <Mol. Index>
89

> <Pharmacophore Match>
Model -1

> <# Confs.>
25

> <Source Database>
Pharm-Screening-input-EANPDB_After_DataWarror.ldb

> <Pharmacophore-Fit Score>
42.91

> <formula>
C19H22O10

> <Mutagenic>
none

> <Reproductive Effective>
none

> <Irritant>
none

$$$$
columbamine
XX    ILIB03122411353D

 45 48  0  0  1  0              1 V2000
    4.1329    1.0785   -1.1259 O   0  0  0  0  0
    4.6749    0.1743    1.3396 O   0  0  0  0  0
   -6.0491    1.2323   -4.0840 O   0  0  0  0  0
   -5.5664   -0.4418   -2.0071 O   0  0  0  0  0
    0.2007    1.2418   -2.5959 N   0  3  0  0  0
    3.1031    0.7131   -0.3186 C   0  0  0  0  0
    3.3623    0.2084    0.9634 C   0  0  0  0  0
   -4.7706    1.1782   -3.6023 C   0  0  0  0  0
   -4.5487    0.3108   -2.5321 C   0  0  0  0  0
   -0.8449    0.8206   -1.8297 C   0  0  0  0  0
    1.4696    1.2013   -2.1281 C   0  0  0  0  0
    1.7762    0.7492   -0.8399 C   0  0  0  0  0
    0.7175    0.3221   -0.0259 C   0  0  0  0  0
   -2.1888    0.9111   -2.4327 C   0  0  0  0  0
   -2.4140    1.7674   -3.5281 C   0  0  0  0  0
   -3.2846    0.1762   -1.9532 C   0  0  0  0  0
   -3.6921    1.9122   -4.0962 C   0  0  0  0  0
    2.2944   -0.1990    1.7626 C   0  0  0  0  0
   -0.5873    0.3639   -0.5273 C   0  0  0  0  0
    0.9872   -0.1423    1.2718 C   0  0  0  0  0
    5.4274    0.9386   -0.5635 C   0  0  0  0  0
    4.9214   -0.3270    2.6520 C   0  0  0  0  0
   -6.2517    2.1235   -5.1745 C   0  0  0  0  0
   -0.0057    1.7047   -3.9913 C   0  0  0  0  0
   -1.2563    2.5589   -4.0689 C   0  0  0  0  0
   -6.3770   -0.2443   -2.5104 H   0  0  0  0  0
    2.2365    1.5379   -2.8175 H   0  0  0  0  0
   -3.1706   -0.5199   -1.1239 H   0  0  0  0  0
   -3.8124    2.6020   -4.9274 H   0  0  0  0  0
    2.4406   -0.5799    2.7693 H   0  0  0  0  0
   -1.4073    0.0465    0.1135 H   0  0  0  0  0
    0.1823   -0.4795    1.9225 H   0  0  0  0  0
    5.6437   -0.1028   -0.3308 H   0  0  0  0  0
    5.5422    1.5750    0.3283 H   0  0  0  0  0
    6.1547    1.2755   -1.3072 H   0  0  0  0  0
    6.0026   -0.3134    2.8152 H   0  0  0  0  0
    4.4589    0.3126    3.4112 H   0  0  0  0  0
    4.5808   -1.3637    2.7492 H   0  0  0  0  0
   -7.3063    2.0617   -5.4634 H   0  0  0  0  0
   -6.0445    3.1585   -4.8832 H   0  0  0  0  0
   -5.6519    1.8302   -6.0430 H   0  0  0  0  0
    0.8637    2.2875   -4.3120 H   0  0  0  0  0
   -0.0763    0.7992   -4.6067 H   0  0  0  0  0
   -1.1426    3.4722   -3.4736 H   0  0  0  0  0
   -1.4370    2.8472   -5.1054 H   0  0  0  0  0
  1  6  1  0  0  0
  1 21  1  0  0  0
  2  7  1  0  0  0
  2 22  1  0  0  0
  3  8  1  0  0  0
  3 23  1  0  0  0
  4  9  1  0  0  0
  4 26  1  0  0  0
  5 10  2  0  0  0
  5 11  1  0  0  0
  5 24  1  0  0  0
  6  7  2  0  0  0
  6 12  1  0  0  0
  7 18  1  0  0  0
  8  9  1  0  0  0
  8 17  2  0  0  0
  9 16  2  0  0  0
 10 14  1  0  0  0
 10 19  1  0  0  0
 11 12  2  0  0  0
 11 27  1  0  0  0
 12 13  1  0  0  0
 13 19  2  0  0  0
 13 20  1  0  0  0
 14 15  2  0  0  0
 14 16  1  0  0  0
 15 17  1  0  0  0
 15 25  1  0  0  0
 16 28  1  0  0  0
 17 29  1  0  0  0
 18 20  2  0  0  0
 18 30  1  0  0  0
 19 31  1  0  0  0
 20 32  1  0  0  0
 21 33  1  0  0  0
 21 34  1  0  0  0
 21 35  1  0  0  0
 22 36  1  0  0  0
 22 37  1  0  0  0
 22 38  1  0  0  0
 23 39  1  0  0  0
 23 40  1  0  0  0
 23 41  1  0  0  0
 24 25  1  0  0  0
 24 42  1  0  0  0
 24 43  1  0  0  0
 25 44  1  0  0  0
 25 45  1  0  0  0
M  END
> <Tumorigenic>
none

> <Score>
42.901165

> <Active/Decoy>
active

> <InChI>
InChI=1S/C20H19NO4/c1-23-18-5-4-12-8-16-14-10-17(22)19(24-2)9-13(14)6-7-21(16)11-15(12)20(18)25-3/h4-5,8-11H,6-7H2,1-3H3/p+1

> <Matching Features>
H:14924486185440016873|HBA:149238150533300697|HBA:14924321692640012300|HBA:14924486112070016868

> <Mol. Index>
551

> <Pharmacophore Match>
Model -1

> <# Confs.>
3

> <Source Database>
Pharm-Screening-input-EANPDB_After_DataWarror.ldb

> <Pharmacophore-Fit Score>
42.9

> <formula>
C20H20NO4+

> <Mutagenic>
none

> <Reproductive Effective>
none

> <Irritant>
none

$$$$
5,7-dihydroxy-4'-methoxy-3'-(2,3-dihydroxy-3-methylbutyl)isoflavone
XX    ILIB03122411353D

 50 52  0  0  1  0              1 V2000
   -3.6094    3.8497   -4.9359 O   0  0  0  0  0
   -3.1031    0.5871   -2.5479 O   0  0  0  0  0
    3.2228    1.3229   -2.0371 O   0  0  0  0  0
   -5.6664    0.0542   -2.7588 O   0  0  0  0  0
   -8.2870    3.0926   -5.2986 O   0  0  0  0  0
   -0.2690    0.1322    0.6944 O   0  0  0  0  0
    1.1955    1.1588    2.8423 O   0  0  0  0  0
   -4.6871    3.0673   -4.6085 C   0  0  0  0  0
   -2.3763    3.4651   -4.4757 C   0  0  0  0  0
   -3.2457    1.5483   -3.2937 C   0  0  0  0  0
    1.9595    1.5807   -2.5051 C   0  0  0  0  0
   -5.7361    1.1810   -3.5314 C   0  0  0  0  0
   -7.0627    2.7239   -4.8234 C   0  0  0  0  0
   -4.5814    1.9235   -3.8139 C   0  0  0  0  0
   -2.0918    2.4060   -3.7023 C   0  0  0  0  0
   -0.7088    2.1189   -3.3008 C   0  0  0  0  0
    0.9736    1.7880   -1.5278 C   0  0  0  0  0
   -5.9249    3.4725   -5.1142 C   0  0  0  0  0
   -6.9771    1.5789   -4.0356 C   0  0  0  0  0
    1.6122    1.6132   -3.8588 C   0  0  0  0  0
   -0.3523    2.0738   -1.9443 C   0  0  0  0  0
    0.2956    1.8816   -4.2488 C   0  0  0  0  0
    1.1256    0.3944    0.5676 C   0  0  2  0  0
    1.7985    0.2227    1.9411 C   0  0  0  0  0
    4.1094    1.1176   -3.1379 C   0  0  0  0  0
    1.2867    1.7665   -0.0670 C   0  0  0  0  0
    1.5654   -1.1813    2.5068 C   0  0  0  0  0
    3.2972    0.5371    1.9191 C   0  0  0  0  0
   -6.5578   -0.3229   -2.6691 H   0  0  0  0  0
   -8.1878    3.9089   -5.8173 H   0  0  0  0  0
   -0.6310    0.7829    1.3205 H   0  0  0  0  0
    0.2475    0.9517    2.9006 H   0  0  0  0  0
   -1.6366    4.1638   -4.8488 H   0  0  0  0  0
   -5.9965    4.3647   -5.7310 H   0  0  0  0  0
   -7.8730    1.0040   -3.8180 H   0  0  0  0  0
    2.3444    1.4479   -4.6435 H   0  0  0  0  0
   -1.1038    2.2564   -1.1778 H   0  0  0  0  0
    0.0785    1.9019   -5.3147 H   0  0  0  0  0
    1.5225   -0.3686   -0.1230 H   0  0  0  0  0
    4.1547    2.0028   -3.7824 H   0  0  0  0  0
    5.1115    0.9484   -2.7336 H   0  0  0  0  0
    3.8178    0.2361   -3.7192 H   0  0  0  0  0
    0.6422    2.4938    0.4649 H   0  0  0  0  0
    2.3099    2.1296    0.0745 H   0  0  0  0  0
    0.4952   -1.4126    2.5520 H   0  0  0  0  0
    1.9372   -1.2514    3.5368 H   0  0  0  0  0
    2.0627   -1.9521    1.9114 H   0  0  0  0  0
    3.7256    0.4436    2.9226 H   0  0  0  0  0
    3.4833    1.5707    1.6067 H   0  0  0  0  0
    3.8450   -0.1330    1.2494 H   0  0  0  0  0
  1  8  1  0  0  0
  1  9  1  0  0  0
  2 10  2  0  0  0
  3 11  1  0  0  0
  3 25  1  0  0  0
  4 12  1  0  0  0
  4 29  1  0  0  0
  5 13  1  0  0  0
  5 30  1  0  0  0
  6 23  1  0  0  0
  6 31  1  0  0  0
  7 24  1  0  0  0
  7 32  1  0  0  0
  8 14  2  0  0  0
  8 18  1  0  0  0
  9 15  2  0  0  0
  9 33  1  0  0  0
 10 14  1  0  0  0
 10 15  1  0  0  0
 11 17  2  0  0  0
 11 20  1  0  0  0
 12 14  1  0  0  0
 12 19  2  0  0  0
 13 18  2  0  0  0
 13 19  1  0  0  0
 15 16  1  0  0  0
 16 21  2  0  0  0
 16 22  1  0  0  0
 17 21  1  0  0  0
 17 26  1  0  0  0
 18 34  1  0  0  0
 19 35  1  0  0  0
 20 22  2  0  0  0
 20 36  1  0  0  0
 21 37  1  0  0  0
 22 38  1  0  0  0
 23 24  1  0  0  0
 23 26  1  0  0  0
 23 39  1  0  0  0
 24 27  1  0  0  0
 24 28  1  0  0  0
 25 40  1  0  0  0
 25 41  1  0  0  0
 25 42  1  0  0  0
 26 43  1  0  0  0
 26 44  1  0  0  0
 27 45  1  0  0  0
 27 46  1  0  0  0
 27 47  1  0  0  0
 28 48  1  0  0  0
 28 49  1  0  0  0
 28 50  1  0  0  0
M  END
> <Tumorigenic>
none

> <Score>
42.887527

> <Active/Decoy>
active

> <InChI>
InChI=1S/C21H22O7/c1-21(2,26)18(24)7-12-6-11(4-5-16(12)27-3)14-10-28-17-9-13(22)8-15(23)19(17)20(14)25/h4-6,8-10,18,22-24,26H,7H2,1-3H3/t18-/m0/s1

> <Matching Features>
H:14924486185440016873|HBA:149238150533300697|HBA:14924321692640012300|HBA:14924486112070016868

> <Mol. Index>
277

> <Pharmacophore Match>
Model -1

> <# Confs.>
25

> <Source Database>
Pharm-Screening-input-EANPDB_After_DataWarror.ldb

> <Pharmacophore-Fit Score>
42.89

> <formula>
C21H22O7

> <Mutagenic>
none

> <Reproductive Effective>
none

> <Irritant>
none

$$$$
ent-3,13E-clerodadien-15-ol
XX    ILIB03122411353D

 56 57  0  0  1  0              1 V2000
    3.4294    1.5369   -2.5400 O   0  0  0  0  0
   -5.6324    0.0708   -2.7892 O   0  0  0  0  0
    0.9469   -0.4829   -0.3814 C   0  0  2  0  0
    0.2929   -0.0365    1.0010 C   0  0  2  0  0
    1.2723    0.5167    2.1090 C   0  0  2  0  0
    1.8719    0.6836   -0.8868 C   0  0  2  0  0
    2.6294    0.4188   -2.1810 C   0  0  0  0  0
   -4.5034   -0.7038   -3.1708 C   0  0  0  0  0
    0.4338    1.0799    3.2799 C   0  0  0  0  0
   -0.1679   -0.7290   -1.4015 C   0  0  0  0  0
   -0.6864   -1.0507    1.6260 C   0  0  0  0  0
    2.1394    1.6209    1.4626 C   0  0  0  0  0
    2.8547    1.1679    0.1935 C   0  0  0  0  0
    1.6999   -1.8270   -0.2669 C   0  0  0  0  0
    2.1909   -0.5514    2.7469 C   0  0  0  0  0
   -2.1372    0.1301   -2.7111 C   0  0  0  0  0
   -3.3223   -0.3540   -2.3263 C   0  0  0  0  0
   -0.8157    0.6428    3.5259 C   0  0  0  0  0
   -1.0751    0.4546   -1.6879 C   0  0  0  0  0
   -1.5328   -0.3946    2.7203 C   0  0  0  0  0
    1.0474    2.1184    4.1859 C   0  0  0  0  0
   -1.7390    0.4188   -4.1436 C   0  0  0  0  0
    2.8322    2.2795   -2.7313 H   0  0  0  0  0
   -5.4120    1.0075   -2.9378 H   0  0  0  0  0
   -0.3307    0.8318    0.7300 H   0  0  0  0  0
    1.2159    1.5388   -1.1035 H   0  0  0  0  0
    3.2961   -0.4413   -2.0591 H   0  0  0  0  0
    1.9547    0.1821   -3.0116 H   0  0  0  0  0
   -4.7581   -1.7609   -3.0425 H   0  0  0  0  0
   -4.3152   -0.5346   -4.2363 H   0  0  0  0  0
    0.3111   -1.0697   -2.3452 H   0  0  0  0  0
   -0.7690   -1.5788   -1.0505 H   0  0  0  0  0
   -0.1476   -1.9058    2.0477 H   0  0  0  0  0
   -1.3746   -1.4651    0.8847 H   0  0  0  0  0
    1.5128    2.4891    1.2179 H   0  0  0  0  0
    2.8980    1.9797    2.1691 H   0  0  0  0  0
    3.5934    0.3954    0.4292 H   0  0  0  0  0
    3.4255    2.0199   -0.1967 H   0  0  0  0  0
    1.8887   -2.2555   -1.2582 H   0  0  0  0  0
    2.6745   -1.7314    0.2087 H   0  0  0  0  0
    1.1243   -2.5774    0.2825 H   0  0  0  0  0
    2.8973   -0.9889    2.0457 H   0  0  0  0  0
    2.8075   -0.1165    3.5445 H   0  0  0  0  0
    1.6261   -1.3687    3.2044 H   0  0  0  0  0
   -3.4781   -0.5130   -1.2596 H   0  0  0  0  0
   -1.3753    1.0590    4.3582 H   0  0  0  0  0
   -1.5661    0.7773   -0.7760 H   0  0  0  0  0
   -0.4603    1.2918   -2.0422 H   0  0  0  0  0
   -2.4016    0.0875    2.2554 H   0  0  0  0  0
   -1.9232   -1.1715    3.3869 H   0  0  0  0  0
    1.2092    3.0548    3.6445 H   0  0  0  0  0
    0.4047    2.3473    5.0434 H   0  0  0  0  0
    2.0041    1.7727    4.5862 H   0  0  0  0  0
   -2.5256    0.1975   -4.8677 H   0  0  0  0  0
   -0.8663   -0.1790   -4.4250 H   0  0  0  0  0
   -1.4809    1.4775   -4.2557 H   0  0  0  0  0
  1  7  1  0  0  0
  1 23  1  0  0  0
  2  8  1  0  0  0
  2 24  1  0  0  0
  3  4  1  0  0  0
  3  6  1  0  0  0
  3 10  1  0  0  0
  3 14  1  0  0  0
  4  5  1  0  0  0
  4 11  1  0  0  0
  4 25  1  0  0  0
  5  9  1  0  0  0
  5 12  1  0  0  0
  5 15  1  0  0  0
  6  7  1  0  0  0
  6 13  1  0  0  0
  6 26  1  0  0  0
  7 27  1  0  0  0
  7 28  1  0  0  0
  8 17  1  0  0  0
  8 29  1  0  0  0
  8 30  1  0  0  0
  9 18  2  0  0  0
  9 21  1  0  0  0
 10 19  1  0  0  0
 10 31  1  0  0  0
 10 32  1  0  0  0
 11 20  1  0  0  0
 11 33  1  0  0  0
 11 34  1  0  0  0
 12 13  1  0  0  0
 12 35  1  0  0  0
 12 36  1  0  0  0
 13 37  1  0  0  0
 13 38  1  0  0  0
 14 39  1  0  0  0
 14 40  1  0  0  0
 14 41  1  0  0  0
 15 42  1  0  0  0
 15 43  1  0  0  0
 15 44  1  0  0  0
 16 17  2  0  0  0
 16 19  1  0  0  0
 16 22  1  0  0  0
 17 45  1  0  0  0
 18 20  1  0  0  0
 18 46  1  0  0  0
 19 47  1  0  0  0
 19 48  1  0  0  0
 20 49  1  0  0  0
 20 50  1  0  0  0
 21 51  1  0  0  0
 21 52  1  0  0  0
 21 53  1  0  0  0
 22 54  1  0  0  0
 22 55  1  0  0  0
 22 56  1  0  0  0
M  END
> <Tumorigenic>
none

> <Score>
42.891037

> <Active/Decoy>
active

> <InChI>
InChI=1S/C20H34O2/c1-15(10-13-21)8-11-20(4)17(14-22)9-12-19(3)16(2)6-5-7-18(19)20/h6,10,17-18,21-22H,5,7-9,11-14H2,1-4H3/b15-10+/t17-,18-,19-,20-/m0/s1

> <Matching Features>
H:14924486185440016873|HBA:149238150533300697|HBA:14924321692640012300|HBA:14924486112070016868

> <Mol. Index>
205

> <Pharmacophore Match>
Model -1

> <# Confs.>
18

> <Source Database>
Pharm-Screening-input-EANPDB_After_DataWarror.ldb

> <Pharmacophore-Fit Score>
42.89

> <formula>
C20H34O2

> <Mutagenic>
none

> <Reproductive Effective>
none

> <Irritant>
none

$$$$
N1,N8-dibenzoylspermidine
XX    ILIB03122411353D

 53 54  0  0  1  0              1 V2000
   -6.4359    0.0104   -3.0071 O   0  0  0  0  0
    3.3525    1.2110   -1.6595 O   0  0  0  0  0
   -6.4543   -0.3058   -5.2948 N   0  0  0  0  0
    1.1144    0.7292   -1.3548 N   0  0  0  0  0
   -2.1554   -0.3795   -4.4407 N   0  0  0  0  0
   -7.6666   -1.8096   -3.8219 C   0  0  0  0  0
    2.7178    0.3727    0.4338 C   0  0  0  0  0
   -8.4900   -1.8973   -2.7001 C   0  0  0  0  0
   -7.6262   -2.8288   -4.7742 C   0  0  0  0  0
    3.8242    0.8982    1.1016 C   0  0  0  0  0
    1.8864   -0.5704    1.0380 C   0  0  0  0  0
   -9.2920   -3.0247   -2.5337 C   0  0  0  0  0
   -8.4346   -3.9519   -4.5995 C   0  0  0  0  0
    4.0978    0.4712    2.4020 C   0  0  0  0  0
    2.1673   -0.9898    2.3384 C   0  0  0  0  0
   -9.2654   -4.0501   -3.4816 C   0  0  0  0  0
    3.2708   -0.4695    3.0188 C   0  0  0  0  0
   -6.7989   -0.6206   -3.9968 C   0  0  0  0  0
    2.4311    0.8097   -0.9518 C   0  0  0  0  0
   -5.6056    0.8395   -5.6226 C   0  0  0  0  0
    0.6796    1.1179   -2.6831 C   0  0  0  0  0
   -3.5804   -0.0576   -4.3264 C   0  0  0  0  0
   -1.6368   -0.8857   -3.1851 C   0  0  0  0  0
   -4.1208    0.4806   -5.6497 C   0  0  0  0  0
    0.7244   -0.0409   -3.6786 C   0  0  0  0  0
   -0.1565   -1.2222   -3.2969 C   0  0  0  0  0
   -6.8438   -0.8491   -6.0599 H   0  0  0  0  0
    0.4048    0.4389   -0.6871 H   0  0  0  0  0
   -2.0225   -1.0764   -5.1760 H   0  0  0  0  0
   -8.5143   -1.1035   -1.9587 H   0  0  0  0  0
   -6.9808   -2.7584   -5.6444 H   0  0  0  0  0
    4.4720    1.6296    0.6256 H   0  0  0  0  0
    1.0287   -0.9800    0.5126 H   0  0  0  0  0
   -9.9392   -3.1079   -1.6645 H   0  0  0  0  0
   -8.4161   -4.7512   -5.3333 H   0  0  0  0  0
    4.9562    0.8707    2.9343 H   0  0  0  0  0
    1.5276   -1.7210    2.8224 H   0  0  0  0  0
   -9.8923   -4.9273   -3.3482 H   0  0  0  0  0
    3.4861   -0.7989    4.0285 H   0  0  0  0  0
   -5.9236    1.2375   -6.5915 H   0  0  0  0  0
   -5.7666    1.5965   -4.8571 H   0  0  0  0  0
   -0.3340    1.5307   -2.6174 H   0  0  0  0  0
    1.3543    1.9080   -3.0347 H   0  0  0  0  0
   -3.7380    0.6960   -3.5540 H   0  0  0  0  0
   -4.1493   -0.9582   -4.0409 H   0  0  0  0  0
   -2.1847   -1.8020   -2.8830 H   0  0  0  0  0
   -1.7806   -0.1494   -2.3848 H   0  0  0  0  0
   -3.9925   -0.3179   -6.4084 H   0  0  0  0  0
   -3.5348    1.3295   -5.9908 H   0  0  0  0  0
    1.7595   -0.4020   -3.7237 H   0  0  0  0  0
    0.4691    0.3075   -4.6871 H   0  0  0  0  0
    0.1771   -1.5952   -2.3202 H   0  0  0  0  0
   -0.0179   -2.0549   -4.0079 H   0  0  0  0  0
  1 18  2  0  0  0
  2 19  2  0  0  0
  3 18  1  0  0  0
  3 20  1  0  0  0
  3 27  1  0  0  0
  4 19  1  0  0  0
  4 21  1  0  0  0
  4 28  1  0  0  0
  5 22  1  0  0  0
  5 23  1  0  0  0
  5 29  1  0  0  0
  6  8  2  0  0  0
  6  9  1  0  0  0
  6 18  1  0  0  0
  7 10  2  0  0  0
  7 11  1  0  0  0
  7 19  1  0  0  0
  8 12  1  0  0  0
  8 30  1  0  0  0
  9 13  2  0  0  0
  9 31  1  0  0  0
 10 14  1  0  0  0
 10 32  1  0  0  0
 11 15  2  0  0  0
 11 33  1  0  0  0
 12 16  2  0  0  0
 12 34  1  0  0  0
 13 16  1  0  0  0
 13 35  1  0  0  0
 14 17  2  0  0  0
 14 36  1  0  0  0
 15 17  1  0  0  0
 15 37  1  0  0  0
 16 38  1  0  0  0
 17 39  1  0  0  0
 20 24  1  0  0  0
 20 40  1  0  0  0
 20 41  1  0  0  0
 21 25  1  0  0  0
 21 42  1  0  0  0
 21 43  1  0  0  0
 22 24  1  0  0  0
 22 44  1  0  0  0
 22 45  1  0  0  0
 23 26  1  0  0  0
 23 46  1  0  0  0
 23 47  1  0  0  0
 24 48  1  0  0  0
 24 49  1  0  0  0
 25 26  1  0  0  0
 25 50  1  0  0  0
 25 51  1  0  0  0
 26 52  1  0  0  0
 26 53  1  0  0  0
M  END
> <Tumorigenic>
none

> <Score>
42.831512

> <Active/Decoy>
active

> <InChI>
InChI=1S/C21H27N3O2/c25-20(18-10-3-1-4-11-18)23-16-8-7-14-22-15-9-17-24-21(26)19-12-5-2-6-13-19/h1-6,10-13,22H,7-9,14-17H2,(H,23,25)(H,24,26)

> <Matching Features>
H:14924486185440016873|HBA:149238150533300697|HBA:14924321692640012300|HBA:14924486112070016868

> <Mol. Index>
254

> <Pharmacophore Match>
Model -1

> <# Confs.>
25

> <Source Database>
Pharm-Screening-input-EANPDB_After_DataWarror.ldb

> <Pharmacophore-Fit Score>
42.83

> <formula>
C21H27N3O2

> <Mutagenic>
none

> <Reproductive Effective>
none

> <Irritant>
none

$$$$
amorphaquinone
XX    ILIB03122411353D

 43 45  0  0  1  0              1 V2000
    1.4575    0.5160   -2.0579 O   0  0  0  0  0
    4.0182    0.8429   -1.3866 O   0  0  0  0  0
    4.8257    0.7360    1.2944 O   0  0  0  0  0
   -1.9258   -2.1325   -1.6132 O   0  0  0  0  0
   -5.4287    1.6631   -2.8343 O   0  0  0  0  0
   -4.2841   -2.9891   -2.4434 O   0  0  0  0  0
   -6.2402   -0.9420   -3.1976 O   0  0  0  0  0
    3.1141    0.6736   -0.3765 C   0  0  0  0  0
    1.7709    0.4748   -0.7221 C   0  0  0  0  0
    3.5024    0.6143    0.9643 C   0  0  0  0  0
    0.8076    0.2922    0.2796 C   0  0  0  0  0
    2.5531    0.4057    1.9637 C   0  0  0  0  0
    1.2114    0.2493    1.6211 C   0  0  0  0  0
   -0.9368    0.5590   -1.5136 C   0  0  2  0  0
   -2.7177   -1.2551   -1.9529 C   0  0  0  0  0
   -4.6088    0.7718   -2.6340 C   0  0  0  0  0
    0.1716   -0.0111   -2.3997 C   0  0  0  0  0
   -4.0872   -1.6306   -2.4216 C   0  0  0  0  0
   -4.9625   -0.6670   -2.7747 C   0  0  0  0  0
    5.1424    1.6607   -1.0684 C   0  0  0  0  0
   -5.5693   -3.4236   -2.8805 C   0  0  0  0  0
   -6.8034   -0.0137   -4.1202 C   0  0  0  0  0
   -0.6475    0.1166   -0.0596 C   0  0  0  0  0
   -2.3279    0.1836   -1.9238 C   0  0  0  0  0
   -3.2337    1.1114   -2.2368 C   0  0  0  0  0
    4.9140    0.6632    2.2600 H   0  0  0  0  0
    2.8465    0.3589    3.0090 H   0  0  0  0  0
    0.4790    0.0917    2.4087 H   0  0  0  0  0
   -0.8442    1.6544   -1.5441 H   0  0  0  0  0
    0.2202   -1.1161   -2.3351 H   0  0  0  0  0
   -0.0086    0.2405   -3.4417 H   0  0  0  0  0
    5.7832    1.7039   -1.9544 H   0  0  0  0  0
    4.8316    2.6832   -0.8290 H   0  0  0  0  0
    5.7280    1.2253   -0.2520 H   0  0  0  0  0
   -5.5825   -4.5169   -2.8480 H   0  0  0  0  0
   -6.3569   -3.0571   -2.2138 H   0  0  0  0  0
   -5.7583   -3.1144   -3.9136 H   0  0  0  0  0
   -7.8135   -0.3569   -4.3681 H   0  0  0  0  0
   -6.8861    0.9829   -3.6747 H   0  0  0  0  0
   -6.2216    0.0200   -5.0470 H   0  0  0  0  0
   -1.2609    0.7049    0.6342 H   0  0  0  0  0
   -0.9071   -0.9413    0.0790 H   0  0  0  0  0
   -2.9888    2.1681   -2.2066 H   0  0  0  0  0
  1  9  1  0  0  0
  1 17  1  0  0  0
  2  8  1  0  0  0
  2 20  1  0  0  0
  3 10  1  0  0  0
  3 26  1  0  0  0
  4 15  2  0  0  0
  5 16  2  0  0  0
  6 18  1  0  0  0
  6 21  1  0  0  0
  7 19  1  0  0  0
  7 22  1  0  0  0
  8  9  1  0  0  0
  8 10  2  0  0  0
  9 11  2  0  0  0
 10 12  1  0  0  0
 11 13  1  0  0  0
 11 23  1  0  0  0
 12 13  2  0  0  0
 12 27  1  0  0  0
 13 28  1  0  0  0
 14 17  1  0  0  0
 14 23  1  0  0  0
 14 24  1  0  0  0
 14 29  1  0  0  0
 15 18  1  0  0  0
 15 24  1  0  0  0
 16 19  1  0  0  0
 16 25  1  0  0  0
 17 30  1  0  0  0
 17 31  1  0  0  0
 18 19  2  0  0  0
 20 32  1  0  0  0
 20 33  1  0  0  0
 20 34  1  0  0  0
 21 35  1  0  0  0
 21 36  1  0  0  0
 21 37  1  0  0  0
 22 38  1  0  0  0
 22 39  1  0  0  0
 22 40  1  0  0  0
 23 41  1  0  0  0
 23 42  1  0  0  0
 24 25  2  0  0  0
 25 43  1  0  0  0
M  END
> <Tumorigenic>
none

> <Score>
42.82468

> <Active/Decoy>
active

> <InChI>
InChI=1S/C18H18O7/c1-22-16-12(19)5-4-9-6-10(8-25-15(9)16)11-7-13(20)17(23-2)18(24-3)14(11)21/h4-5,7,10,19H,6,8H2,1-3H3/t10-/m0/s1

> <Matching Features>
H:14924486185440016873|HBA:149238150533300697|HBA:14924321692640012300|HBA:14924486112070016868

> <Mol. Index>
327

> <Pharmacophore Match>
Model -1

> <# Confs.>
25

> <Source Database>
Pharm-Screening-input-EANPDB_After_DataWarror.ldb

> <Pharmacophore-Fit Score>
42.82

> <formula>
C18H18O7

> <Mutagenic>
none

> <Reproductive Effective>
none

> <Irritant>
none

$$$$
13,17-dihydroxy-labda-8,14-diene-17-O-xylopyranoside
XX    ILIB03122411353D

 73 75  0  0  1  0              1 V2000
    3.3195    1.4116   -2.2404 O   0  0  0  0  0
   -0.8545   -1.9213    0.0284 O   0  0  0  0  0
   -4.7295   -0.2299    0.0910 O   0  0  0  0  0
   -2.6147    1.8040   -0.8447 O   0  0  0  0  0
   -3.7092    1.0446   -3.6849 O   0  0  0  0  0
   -6.3451    0.0754   -3.1463 O   0  0  0  0  0
    2.3847    1.9986   -1.3336 C   0  0  1  0  0
   -1.0042   -0.6240    0.6159 C   0  0  1  0  0
   -3.0222    0.5670   -1.4356 C   0  0  2  0  0
   -4.2100    0.8641   -2.3601 C   0  0  2  0  0
   -3.3815   -0.4535   -0.3387 C   0  0  1  0  0
   -5.2235   -0.2741   -2.3426 C   0  0  1  0  0
    1.8133    0.4974    3.1509 C   0  0  1  0  0
    1.0924   -0.0367    4.4444 C   0  0  1  0  0
   -5.6895   -0.5673   -0.9154 C   0  0  0  0  0
    1.1365    2.4435   -2.0724 C   0  0  0  0  0
    2.1061    0.9847   -0.2224 C   0  0  0  0  0
   -2.4892   -0.3980    0.9001 C   0  0  0  0  0
   -0.0967   -0.4866    1.8130 C   0  0  0  0  0
    0.8745    0.4578    1.9066 C   0  0  0  0  0
    0.1327    0.9883    5.1731 C   0  0  0  0  0
    2.4438    1.8774    3.4906 C   0  0  0  0  0
    0.4769   -1.4173    4.1714 C   0  0  0  0  0
    3.0131   -0.4319    2.8026 C   0  0  0  0  0
    0.6487    3.6891   -2.1327 C   0  0  0  0  0
    1.0963    1.4674    0.8302 C   0  0  0  0  0
   -0.3775   -1.4968    2.9114 C   0  0  0  0  0
    0.8664    2.3377    5.3667 C   0  0  0  0  0
    1.4633    2.8807    4.0778 C   0  0  0  0  0
   -0.2175    0.4618    6.5877 C   0  0  0  0  0
   -1.2054    1.2567    4.4577 C   0  0  0  0  0
    3.6063    2.1106   -2.8572 H   0  0  0  0  0
   -1.3240   -2.5607    0.5918 H   0  0  0  0  0
   -2.3665    2.4042   -1.5680 H   0  0  0  0  0
   -4.4740    1.2067   -4.2631 H   0  0  0  0  0
   -6.9772   -0.6643   -3.1049 H   0  0  0  0  0
    2.8528    2.8830   -0.9062 H   0  0  0  0  0
   -0.6692    0.0872   -0.1492 H   0  0  0  0  0
   -2.1561    0.1970   -1.9977 H   0  0  0  0  0
   -4.6979    1.8080   -2.0853 H   0  0  0  0  0
   -3.3256   -1.4691   -0.7547 H   0  0  0  0  0
   -4.7764   -1.1687   -2.7920 H   0  0  0  0  0
    1.8942   -0.2227    5.1768 H   0  0  0  0  0
   -5.9347   -1.6311   -0.8150 H   0  0  0  0  0
   -6.6087   -0.0191   -0.6814 H   0  0  0  0  0
    0.5843    1.6712   -2.6069 H   0  0  0  0  0
    3.0674    0.8114    0.2996 H   0  0  0  0  0
    1.7961    0.0250   -0.6295 H   0  0  0  0  0
   -2.5968    0.6032    1.3368 H   0  0  0  0  0
   -2.8497   -1.1093    1.6533 H   0  0  0  0  0
    2.9477    2.3152    2.6221 H   0  0  0  0  0
    3.2466    1.7277    4.2281 H   0  0  0  0  0
   -0.0997   -1.7818    5.0269 H   0  0  0  0  0
    1.2929   -2.1455    4.0713 H   0  0  0  0  0
    2.6937   -1.4136    2.4364 H   0  0  0  0  0
    3.6466    0.0085    2.0241 H   0  0  0  0  0
    3.6510   -0.5992    3.6778 H   0  0  0  0  0
    1.1250    4.5245   -1.6344 H   0  0  0  0  0
   -0.2579    3.8911   -2.6939 H   0  0  0  0  0
    1.4506    2.4048    1.2869 H   0  0  0  0  0
    0.1626    1.6938    0.3243 H   0  0  0  0  0
   -0.2629   -2.5091    2.5035 H   0  0  0  0  0
   -1.4309   -1.4165    3.2040 H   0  0  0  0  0
    1.6758    2.2133    6.0998 H   0  0  0  0  0
    0.1877    3.0873    5.7909 H   0  0  0  0  0
    1.9930    3.8152    4.2949 H   0  0  0  0  0
    0.6764    3.1308    3.3596 H   0  0  0  0  0
   -0.8534   -0.4276    6.5490 H   0  0  0  0  0
   -0.7615    1.2191    7.1653 H   0  0  0  0  0
    0.6861    0.2054    7.1530 H   0  0  0  0  0
   -1.8317    0.3618    4.4187 H   0  0  0  0  0
   -1.0751    1.6351    3.4423 H   0  0  0  0  0
   -1.7871    2.0115    4.9986 H   0  0  0  0  0
  1  7  1  0  0  0
  1 32  1  0  0  0
  2  8  1  0  0  0
  2 33  1  0  0  0
  3 11  1  0  0  0
  3 15  1  0  0  0
  4  9  1  0  0  0
  4 34  1  0  0  0
  5 10  1  0  0  0
  5 35  1  0  0  0
  6 12  1  0  0  0
  6 36  1  0  0  0
  7 16  1  0  0  0
  7 17  1  0  0  0
  7 37  1  0  0  0
  8 18  1  0  0  0
  8 19  1  0  0  0
  8 38  1  0  0  0
  9 10  1  0  0  0
  9 11  1  0  0  0
  9 39  1  0  0  0
 10 12  1  0  0  0
 10 40  1  0  0  0
 11 18  1  0  0  0
 11 41  1  0  0  0
 12 15  1  0  0  0
 12 42  1  0  0  0
 13 14  1  0  0  0
 13 20  1  0  0  0
 13 22  1  0  0  0
 13 24  1  0  0  0
 14 21  1  0  0  0
 14 23  1  0  0  0
 14 43  1  0  0  0
 15 44  1  0  0  0
 15 45  1  0  0  0
 16 25  2  0  0  0
 16 46  1  0  0  0
 17 26  1  0  0  0
 17 47  1  0  0  0
 17 48  1  0  0  0
 18 49  1  0  0  0
 18 50  1  0  0  0
 19 20  2  0  0  0
 19 27  1  0  0  0
 20 26  1  0  0  0
 21 28  1  0  0  0
 21 30  1  0  0  0
 21 31  1  0  0  0
 22 29  1  0  0  0
 22 51  1  0  0  0
 22 52  1  0  0  0
 23 27  1  0  0  0
 23 53  1  0  0  0
 23 54  1  0  0  0
 24 55  1  0  0  0
 24 56  1  0  0  0
 24 57  1  0  0  0
 25 58  1  0  0  0
 25 59  1  0  0  0
 26 60  1  0  0  0
 26 61  1  0  0  0
 27 62  1  0  0  0
 27 63  1  0  0  0
 28 29  1  0  0  0
 28 64  1  0  0  0
 28 65  1  0  0  0
 29 66  1  0  0  0
 29 67  1  0  0  0
 30 68  1  0  0  0
 30 69  1  0  0  0
 30 70  1  0  0  0
 31 71  1  0  0  0
 31 72  1  0  0  0
 31 73  1  0  0  0
M  END
> <Tumorigenic>
none

> <Score>
42.812798

> <Active/Decoy>
active

> <InChI>
InChI=1S/C25H42O6/c1-5-15(26)7-9-17-16(8-10-21-24(2,3)11-6-12-25(17,21)4)18(27)13-20-23(30)22(29)19(28)14-31-20/h5,15,18-23,26-30H,1,6-14H2,2-4H3/t15-,18-,19+,20+,21+,22-,23-,25+/m0/s1

> <Matching Features>
H:14924486185440016873|HBA:149238150533300697|HBA:14924321692640012300|HBA:14924486112070016868

> <Mol. Index>
471

> <Pharmacophore Match>
Model -1

> <# Confs.>
25

> <Source Database>
Pharm-Screening-input-EANPDB_After_DataWarror.ldb

> <Pharmacophore-Fit Score>
42.81

> <formula>
C25H42O6

> <Mutagenic>
none

> <Reproductive Effective>
none

> <Irritant>
none

$$$$
hispidol B
XX    ILIB03122411353D

 86 89  0  0  1  0              1 V2000
    5.5741    1.2464   -1.7525 O   0  0  0  0  0
   -5.8277   -0.9979   -2.5742 O   0  0  0  0  0
   -6.4570    1.6264   -3.3390 O   0  0  0  0  0
   -8.4233   -1.9450   -2.0817 O   0  0  0  0  0
    4.5729    2.1135   -1.2091 C   0  0  2  0  0
   -6.7616   -0.2181   -1.8173 C   0  0  1  0  0
   -6.4003    1.2795   -1.9599 C   0  0  1  0  0
   -2.0920    1.0283   -0.1202 C   0  0  2  0  0
    2.1099    0.3454   -1.3889 C   0  0  1  0  0
   -3.3597    1.6605    0.5437 C   0  0  1  0  0
   -0.9761    1.4352    0.9066 C   0  0  2  0  0
    3.1475    0.2214   -0.2095 C   0  0  1  0  0
    0.8091    1.1293   -0.9403 C   0  0  2  0  0
   -4.7705    1.2697    0.0683 C   0  0  2  0  0
   -8.1826   -0.5509   -2.2904 C   0  0  0  0  0
    4.0090    1.5097    0.1092 C   0  0  0  0  0
    3.5016    2.3312   -2.2738 C   0  0  0  0  0
    0.3537    0.8100    0.4922 C   0  0  0  0  0
   -5.0150    1.6027   -1.4058 C   0  0  0  0  0
    2.7816    1.0290   -2.6097 C   0  0  0  0  0
   -1.7132    1.5841   -1.5043 C   0  0  0  0  0
   -3.1343    1.3893    2.0571 C   0  0  0  0  0
   -1.6466    1.0198    2.2344 C   0  0  0  0  0
   -0.3537    1.0352   -1.9771 C   0  0  0  0  0
    2.4759   -0.4277    1.0224 C   0  0  0  0  0
   -2.2564   -0.5175   -0.2435 C   0  0  0  0  0
    1.7407   -1.0966   -1.8498 C   0  0  0  0  0
   -0.7037    2.9694    1.0337 C   0  0  0  0  0
   -5.8407    1.8730    0.9943 C   0  0  0  0  0
    1.1086    0.0900    1.3370 C   0  0  0  0  0
   -8.3839   -0.2750   -3.7831 C   0  0  0  0  0
   -9.2232    0.2345   -1.4846 C   0  0  0  0  0
    3.2620    2.6127    0.8872 C   0  0  0  0  0
    5.2183    1.1061    1.0056 C   0  0  0  0  0
    5.9425    1.6809   -2.5408 H   0  0  0  0  0
   -5.9599   -0.8010   -3.5167 H   0  0  0  0  0
   -5.7523    1.1742   -3.8081 H   0  0  0  0  0
   -8.3144   -2.1303   -1.1338 H   0  0  0  0  0
    5.0705    3.0684   -0.9975 H   0  0  0  0  0
   -6.6290   -0.5243   -0.7720 H   0  0  0  0  0
   -7.1658    1.8694   -1.4465 H   0  0  0  0  0
   -3.2978    2.7401    0.3895 H   0  0  0  0  0
    3.8932   -0.5165   -0.5453 H   0  0  0  0  0
    1.0685    2.1907   -0.9302 H   0  0  0  0  0
   -4.8441    0.1847    0.1664 H   0  0  0  0  0
    2.7908    3.0996   -1.9588 H   0  0  0  0  0
    3.9730    2.7022   -3.1915 H   0  0  0  0  0
   -4.8179    2.6873   -1.5506 H   0  0  0  0  0
   -4.2488    1.0808   -1.9951 H   0  0  0  0  0
    2.0484    1.2215   -3.4000 H   0  0  0  0  0
    3.5109    0.3377   -3.0543 H   0  0  0  0  0
   -1.6839    2.6792   -1.4973 H   0  0  0  0  0
   -2.4668    1.3144   -2.2513 H   0  0  0  0  0
   -3.3794    2.2909    2.6297 H   0  0  0  0  0
   -3.7617    0.5817    2.4491 H   0  0  0  0  0
   -1.2179    1.5204    3.1090 H   0  0  0  0  0
   -1.5615   -0.0583    2.4166 H   0  0  0  0  0
   -0.5163   -0.0017   -2.2860 H   0  0  0  0  0
   -0.0740    1.5752   -2.8893 H   0  0  0  0  0
    3.1030   -0.3147    1.9116 H   0  0  0  0  0
    2.3933   -1.5102    0.8654 H   0  0  0  0  0
   -2.9480   -0.7706   -1.0549 H   0  0  0  0  0
   -1.3159   -1.0287   -0.4648 H   0  0  0  0  0
   -2.6425   -0.9762    0.6714 H   0  0  0  0  0
    2.6388   -1.7146   -1.9692 H   0  0  0  0  0
    1.2413   -1.0950   -2.8246 H   0  0  0  0  0
    1.0849   -1.6054   -1.1380 H   0  0  0  0  0
    0.1077    3.1521    1.7489 H   0  0  0  0  0
   -0.4085    3.4381    0.0916 H   0  0  0  0  0
   -1.5680    3.5295    1.4060 H   0  0  0  0  0
   -5.6629    1.5703    2.0317 H   0  0  0  0  0
   -6.8401    1.5222    0.7176 H   0  0  0  0  0
   -5.8485    2.9666    0.9627 H   0  0  0  0  0
    0.7591   -0.1151    2.3436 H   0  0  0  0  0
   -8.2223    0.7790   -4.0300 H   0  0  0  0  0
   -9.4007   -0.5469   -4.0927 H   0  0  0  0  0
   -7.7087   -0.8845   -4.3943 H   0  0  0  0  0
  -10.2398   -0.0657   -1.7657 H   0  0  0  0  0
   -9.1291    1.3141   -1.6359 H   0  0  0  0  0
   -9.1261    0.0247   -0.4139 H   0  0  0  0  0
    2.4461    3.0612    0.3212 H   0  0  0  0  0
    3.9452    3.4346    1.1382 H   0  0  0  0  0
    2.8582    2.2431    1.8345 H   0  0  0  0  0
    5.9316    1.9318    1.0895 H   0  0  0  0  0
    5.7558    0.2433    0.5992 H   0  0  0  0  0
    4.9052    0.8509    2.0226 H   0  0  0  0  0
  1  5  1  0  0  0
  1 35  1  0  0  0
  2  6  1  0  0  0
  2 36  1  0  0  0
  3  7  1  0  0  0
  3 37  1  0  0  0
  4 15  1  0  0  0
  4 38  1  0  0  0
  5 16  1  0  0  0
  5 17  1  0  0  0
  5 39  1  0  0  0
  6  7  1  0  0  0
  6 15  1  0  0  0
  6 40  1  0  0  0
  7 19  1  0  0  0
  7 41  1  0  0  0
  8 10  1  0  0  0
  8 11  1  0  0  0
  8 21  1  0  0  0
  8 26  1  0  0  0
  9 12  1  0  0  0
  9 13  1  0  0  0
  9 20  1  0  0  0
  9 27  1  0  0  0
 10 14  1  0  0  0
 10 22  1  0  0  0
 10 42  1  0  0  0
 11 18  1  0  0  0
 11 23  1  0  0  0
 11 28  1  0  0  0
 12 16  1  0  0  0
 12 25  1  0  0  0
 12 43  1  0  0  0
 13 18  1  0  0  0
 13 24  1  0  0  0
 13 44  1  0  0  0
 14 19  1  0  0  0
 14 29  1  0  0  0
 14 45  1  0  0  0
 15 31  1  0  0  0
 15 32  1  0  0  0
 16 33  1  0  0  0
 16 34  1  0  0  0
 17 20  1  0  0  0
 17 46  1  0  0  0
 17 47  1  0  0  0
 18 30  2  0  0  0
 19 48  1  0  0  0
 19 49  1  0  0  0
 20 50  1  0  0  0
 20 51  1  0  0  0
 21 24  1  0  0  0
 21 52  1  0  0  0
 21 53  1  0  0  0
 22 23  1  0  0  0
 22 54  1  0  0  0
 22 55  1  0  0  0
 23 56  1  0  0  0
 23 57  1  0  0  0
 24 58  1  0  0  0
 24 59  1  0  0  0
 25 30  1  0  0  0
 25 60  1  0  0  0
 25 61  1  0  0  0
 26 62  1  0  0  0
 26 63  1  0  0  0
 26 64  1  0  0  0
 27 65  1  0  0  0
 27 66  1  0  0  0
 27 67  1  0  0  0
 28 68  1  0  0  0
 28 69  1  0  0  0
 28 70  1  0  0  0
 29 71  1  0  0  0
 29 72  1  0  0  0
 29 73  1  0  0  0
 30 74  1  0  0  0
 31 75  1  0  0  0
 31 76  1  0  0  0
 31 77  1  0  0  0
 32 78  1  0  0  0
 32 79  1  0  0  0
 32 80  1  0  0  0
 33 81  1  0  0  0
 33 82  1  0  0  0
 33 83  1  0  0  0
 34 84  1  0  0  0
 34 85  1  0  0  0
 34 86  1  0  0  0
M  END
> <Tumorigenic>
none

> <Score>
42.810978

> <Active/Decoy>
active

> <InChI>
InChI=1S/C30H52O4/c1-18(17-22(31)25(33)27(4,5)34)19-11-15-30(8)21-9-10-23-26(2,3)24(32)13-14-28(23,6)20(21)12-16-29(19,30)7/h9,18-20,22-25,31-34H,10-17H2,1-8H3/t18-,19-,20-,22+,23+,24-,25-,28+,29+,30-/m0/s1

> <Matching Features>
H:14924486185440016873|HBA:149238150533300697|HBA:14924321692640012300|HBA:14924486112070016868

> <Mol. Index>
370

> <Pharmacophore Match>
Model -1

> <# Confs.>
15

> <Source Database>
Pharm-Screening-input-EANPDB_After_DataWarror.ldb

> <Pharmacophore-Fit Score>
42.81

> <formula>
C30H52O4

> <Mutagenic>
none

> <Reproductive Effective>
none

> <Irritant>
none

$$$$
jatrorrhizine
XX    ILIB03122411353D

 45 48  0  0  1  0              1 V2000
    4.1013    1.3266   -1.0326 O   0  0  0  0  0
    4.6341    0.1589    1.5259 O   0  0  0  0  0
   -5.7906    0.2317   -1.7091 O   0  0  0  0  0
   -5.8597    0.5389   -4.3993 O   0  0  0  0  0
    0.1925    1.2644   -2.5365 N   0  3  0  0  0
    3.1279    0.7168   -0.3072 C   0  0  0  0  0
    3.3898    0.1542    0.9483 C   0  0  0  0  0
   -4.5951    0.4269   -2.3508 C   0  0  0  0  0
   -4.6667    0.5963   -3.7306 C   0  0  0  0  0
   -0.8171    0.6762   -1.8354 C   0  0  0  0  0
    1.4616    1.2998   -2.0564 C   0  0  0  0  0
    1.7993    0.7169   -0.8255 C   0  0  0  0  0
    0.7799    0.0912   -0.0893 C   0  0  0  0  0
   -2.1529    0.6754   -2.4639 C   0  0  0  0  0
   -2.2722    0.8648   -3.8565 C   0  0  0  0  0
   -3.3392    0.4731   -1.7269 C   0  0  0  0  0
   -3.5171    0.8029   -4.4895 C   0  0  0  0  0
    2.3757   -0.4833    1.6567 C   0  0  0  0  0
   -0.5209    0.0760   -0.6010 C   0  0  0  0  0
    1.0810   -0.5143    1.1419 C   0  0  0  0  0
    5.1951    0.4820   -1.3918 C   0  0  0  0  0
    4.7941    1.3441    2.3152 C   0  0  0  0  0
   -6.3404    1.4926   -1.3253 C   0  0  0  0  0
   -0.0666    1.9382   -3.8333 C   0  0  0  0  0
   -1.0263    1.1028   -4.6601 C   0  0  0  0  0
   -6.5615    0.3796   -3.7438 H   0  0  0  0  0
    2.1851    1.8022   -2.6740 H   0  0  0  0  0
   -3.2722    0.3554   -0.6481 H   0  0  0  0  0
   -3.5895    0.9296   -5.5662 H   0  0  0  0  0
    2.5809   -0.9484    2.6170 H   0  0  0  0  0
   -1.3029   -0.4271   -0.0354 H   0  0  0  0  0
    0.3025   -1.0113    1.7173 H   0  0  0  0  0
    5.7198    0.1261   -0.4989 H   0  0  0  0  0
    4.8675   -0.3563   -2.0158 H   0  0  0  0  0
    5.8994    1.0802   -1.9782 H   0  0  0  0  0
    4.0488    1.3925    3.1174 H   0  0  0  0  0
    5.7853    1.3056    2.7769 H   0  0  0  0  0
    4.7436    2.2436    1.6914 H   0  0  0  0  0
   -6.5230    2.1280   -2.1965 H   0  0  0  0  0
   -7.3009    1.3042   -0.8356 H   0  0  0  0  0
   -5.6876    2.0052   -0.6097 H   0  0  0  0  0
   -0.4737    2.9272   -3.5891 H   0  0  0  0  0
    0.8769    2.0653   -4.3732 H   0  0  0  0  0
   -0.5782    0.1352   -4.9171 H   0  0  0  0  0
   -1.2562    1.6320   -5.5906 H   0  0  0  0  0
  1  6  1  0  0  0
  1 21  1  0  0  0
  2  7  1  0  0  0
  2 22  1  0  0  0
  3  8  1  0  0  0
  3 23  1  0  0  0
  4  9  1  0  0  0
  4 26  1  0  0  0
  5 10  2  0  0  0
  5 11  1  0  0  0
  5 24  1  0  0  0
  6  7  2  0  0  0
  6 12  1  0  0  0
  7 18  1  0  0  0
  8  9  1  0  0  0
  8 16  2  0  0  0
  9 17  2  0  0  0
 10 14  1  0  0  0
 10 19  1  0  0  0
 11 12  2  0  0  0
 11 27  1  0  0  0
 12 13  1  0  0  0
 13 19  2  0  0  0
 13 20  1  0  0  0
 14 15  2  0  0  0
 14 16  1  0  0  0
 15 17  1  0  0  0
 15 25  1  0  0  0
 16 28  1  0  0  0
 17 29  1  0  0  0
 18 20  2  0  0  0
 18 30  1  0  0  0
 19 31  1  0  0  0
 20 32  1  0  0  0
 21 33  1  0  0  0
 21 34  1  0  0  0
 21 35  1  0  0  0
 22 36  1  0  0  0
 22 37  1  0  0  0
 22 38  1  0  0  0
 23 39  1  0  0  0
 23 40  1  0  0  0
 23 41  1  0  0  0
 24 25  1  0  0  0
 24 42  1  0  0  0
 24 43  1  0  0  0
 25 44  1  0  0  0
 25 45  1  0  0  0
M  END
> <Tumorigenic>
none

> <Score>
42.790607

> <Active/Decoy>
active

> <InChI>
InChI=1S/C20H19NO4/c1-23-18-5-4-12-8-16-14-10-19(24-2)17(22)9-13(14)6-7-21(16)11-15(12)20(18)25-3/h4-5,8-11H,6-7H2,1-3H3/p+1

> <Matching Features>
H:14924486185440016873|HBA:149238150533300697|HBA:14924321692640012300|HBA:14924486112070016868

> <Mol. Index>
550

> <Pharmacophore Match>
Model -1

> <# Confs.>
11

> <Source Database>
Pharm-Screening-input-EANPDB_After_DataWarror.ldb

> <Pharmacophore-Fit Score>
42.79

> <formula>
C20H20NO4+

> <Mutagenic>
none

> <Reproductive Effective>
none

> <Irritant>
none

$$$$
laudanine
XX    ILIB03122411353D

 50 52  0  0  1  0              1 V2000
   -4.2055    0.7796   -3.6707 O   0  0  0  0  0
   -6.6699    0.0546   -2.2704 O   0  0  0  0  0
    4.6489    0.7406    1.0341 O   0  0  0  0  0
    3.5002    0.9950   -1.3644 O   0  0  0  0  0
   -1.9759    1.1649    2.0215 N   0  0  0  0  0
   -4.2976    0.6351   -2.3099 C   0  0  0  0  0
   -5.4758    0.2906   -1.6401 C   0  0  0  0  0
    3.3067    0.4703    0.9541 C   0  0  0  0  0
    2.7202    0.6080   -0.3086 C   0  0  0  0  0
   -3.1059    0.7039   -0.1850 C   0  0  0  0  0
   -4.3042    0.4096    0.4877 C   0  0  0  0  0
    0.5569   -0.0372    0.5710 C   0  0  0  0  0
   -3.1152    0.8114   -1.5854 C   0  0  0  0  0
   -5.4840    0.2159   -0.2452 C   0  0  0  0  0
    1.3597    0.3567   -0.5053 C   0  0  0  0  0
    2.5038    0.0744    2.0278 C   0  0  0  0  0
    1.1413   -0.1792    1.8354 C   0  0  0  0  0
   -1.7932    0.8844    0.5645 C   0  0  2  0  0
   -4.4883    2.1324   -4.0291 C   0  0  0  0  0
   -6.7708   -1.3307   -2.6033 C   0  0  0  0  0
    4.8418    2.1239    1.3315 C   0  0  0  0  0
   -2.9688    0.2749    2.6338 C   0  0  0  0  0
   -2.2640    2.5757    2.2813 C   0  0  0  0  0
   -0.8974   -0.3245    0.3517 C   0  0  0  0  0
   -4.3584    0.3628    1.9822 C   0  0  0  0  0
    2.9468    1.0404   -2.1627 H   0  0  0  0  0
   -2.1906    1.0451   -2.1149 H   0  0  0  0  0
   -6.4121   -0.0088    0.2764 H   0  0  0  0  0
    0.9219    0.4662   -1.4944 H   0  0  0  0  0
    2.9038   -0.0470    3.0303 H   0  0  0  0  0
    0.5390   -0.4903    2.6852 H   0  0  0  0  0
   -1.2741    1.7490    0.1388 H   0  0  0  0  0
   -3.7747    2.8241   -3.5642 H   0  0  0  0  0
   -4.3856    2.2199   -5.1148 H   0  0  0  0  0
   -5.5146    2.4055   -3.7603 H   0  0  0  0  0
   -6.7304   -1.9592   -1.7074 H   0  0  0  0  0
   -7.7403   -1.4898   -3.0846 H   0  0  0  0  0
   -5.9875   -1.6232   -3.3126 H   0  0  0  0  0
    4.3830    2.3925    2.2888 H   0  0  0  0  0
    5.9190    2.3034    1.4087 H   0  0  0  0  0
    4.4487    2.7575    0.5281 H   0  0  0  0  0
   -2.6097   -0.7597    2.5710 H   0  0  0  0  0
   -3.0482    0.4781    3.7092 H   0  0  0  0  0
   -2.3628    2.7555    3.3573 H   0  0  0  0  0
   -3.1756    2.9273    1.7884 H   0  0  0  0  0
   -1.4315    3.2011    1.9399 H   0  0  0  0  0
   -1.2179   -1.1424    1.0335 H   0  0  0  0  0
   -1.0401   -0.7098   -0.6537 H   0  0  0  0  0
   -4.9475   -0.4989    2.3160 H   0  0  0  0  0
   -4.8663    1.2679    2.3443 H   0  0  0  0  0
  1  6  1  0  0  0
  1 19  1  0  0  0
  2  7  1  0  0  0
  2 20  1  0  0  0
  3  8  1  0  0  0
  3 21  1  0  0  0
  4  9  1  0  0  0
  4 26  1  0  0  0
  5 18  1  0  0  0
  5 22  1  0  0  0
  5 23  1  0  0  0
  6  7  2  0  0  0
  6 13  1  0  0  0
  7 14  1  0  0  0
  8  9  2  0  0  0
  8 16  1  0  0  0
  9 15  1  0  0  0
 10 11  1  0  0  0
 10 13  2  0  0  0
 10 18  1  0  0  0
 11 14  2  0  0  0
 11 25  1  0  0  0
 12 15  2  0  0  0
 12 17  1  0  0  0
 12 24  1  0  0  0
 13 27  1  0  0  0
 14 28  1  0  0  0
 15 29  1  0  0  0
 16 17  2  0  0  0
 16 30  1  0  0  0
 17 31  1  0  0  0
 18 24  1  0  0  0
 18 32  1  0  0  0
 19 33  1  0  0  0
 19 34  1  0  0  0
 19 35  1  0  0  0
 20 36  1  0  0  0
 20 37  1  0  0  0
 20 38  1  0  0  0
 21 39  1  0  0  0
 21 40  1  0  0  0
 21 41  1  0  0  0
 22 25  1  0  0  0
 22 42  1  0  0  0
 22 43  1  0  0  0
 23 44  1  0  0  0
 23 45  1  0  0  0
 23 46  1  0  0  0
 24 47  1  0  0  0
 24 48  1  0  0  0
 25 49  1  0  0  0
 25 50  1  0  0  0
M  END
> <Tumorigenic>
none

> <Score>
42.72319

> <Active/Decoy>
active

> <InChI>
InChI=1S/C20H25NO4/c1-21-8-7-14-11-19(24-3)20(25-4)12-15(14)16(21)9-13-5-6-18(23-2)17(22)10-13/h5-6,10-12,16,22H,7-9H2,1-4H3/t16-/m0/s1

> <Matching Features>
H:14924486185440016873|HBA:149238150533300697|HBA:14924321692640012300|HBA:14924486112070016868

> <Mol. Index>
48

> <Pharmacophore Match>
Model -1

> <# Confs.>
25

> <Source Database>
Pharm-Screening-input-EANPDB_After_DataWarror.ldb

> <Pharmacophore-Fit Score>
42.72

> <formula>
C20H25NO4

> <Mutagenic>
none

> <Reproductive Effective>
none

> <Irritant>
none

$$$$
palmatine
XX    ILIB03122411353D

 48 51  0  0  1  0              1 V2000
    4.0913    1.3200   -1.0258 O   0  0  0  0  0
    4.6048    0.0572    1.4850 O   0  0  0  0  0
   -5.6779    0.2522   -1.6968 O   0  0  0  0  0
   -5.9248    0.5238   -4.3965 O   0  0  0  0  0
    0.2113    1.2179   -2.6072 N   0  3  0  0  0
    3.1023    0.7275   -0.3081 C   0  0  0  0  0
    3.3631    0.1014    0.9176 C   0  0  0  0  0
   -4.5736    0.4657   -2.4709 C   0  0  0  0  0
   -4.6715    0.6019   -3.8599 C   0  0  0  0  0
   -0.8114    0.6467   -1.9100 C   0  0  0  0  0
    1.4770    1.2599   -2.1116 C   0  0  0  0  0
    1.7893    0.6922   -0.8627 C   0  0  0  0  0
    0.7558    0.0850   -0.1306 C   0  0  0  0  0
   -2.1395    0.6552   -2.5505 C   0  0  0  0  0
   -2.2512    0.8404   -3.9425 C   0  0  0  0  0
   -3.3288    0.4713   -1.8272 C   0  0  0  0  0
   -3.4976    0.7956   -4.5902 C   0  0  0  0  0
    2.3267   -0.4804    1.6413 C   0  0  0  0  0
   -0.5374    0.0668   -0.6618 C   0  0  0  0  0
    1.0331   -0.4891    1.1215 C   0  0  0  0  0
    4.7429    2.4035   -0.3608 C   0  0  0  0  0
    5.4054   -1.0698    1.1203 C   0  0  0  0  0
   -6.3231    1.4284   -1.2146 C   0  0  0  0  0
   -5.9926    0.6653   -5.8120 C   0  0  0  0  0
   -0.0264    1.8766   -3.9172 C   0  0  0  0  0
   -0.9946    1.0497   -4.7397 C   0  0  0  0  0
    2.2078    1.7485   -2.7208 H   0  0  0  0  0
   -3.3104    0.3431   -0.7483 H   0  0  0  0  0
   -3.5202    0.9171   -5.6703 H   0  0  0  0  0
    2.5176   -0.9406    2.6069 H   0  0  0  0  0
   -1.3310   -0.4183   -0.0975 H   0  0  0  0  0
    0.2406   -0.9559    1.7030 H   0  0  0  0  0
    5.5029    2.8026   -1.0398 H   0  0  0  0  0
    4.0438    3.2135   -0.1265 H   0  0  0  0  0
    5.2531    2.0517    0.5423 H   0  0  0  0  0
    6.3667   -0.9737    1.6350 H   0  0  0  0  0
    4.9424   -2.0067    1.4480 H   0  0  0  0  0
    5.6028   -1.0833    0.0430 H   0  0  0  0  0
   -7.1866    1.1151   -0.6221 H   0  0  0  0  0
   -5.6585    2.0032   -0.5605 H   0  0  0  0  0
   -6.6894    2.0442   -2.0431 H   0  0  0  0  0
   -7.0428    0.5748   -6.1066 H   0  0  0  0  0
   -5.6412    1.6537   -6.1272 H   0  0  0  0  0
   -5.4327   -0.1306   -6.3153 H   0  0  0  0  0
    0.9254    1.9754   -4.4495 H   0  0  0  0  0
   -0.4145    2.8765   -3.6895 H   0  0  0  0  0
   -1.2087    1.5739   -5.6775 H   0  0  0  0  0
   -0.5633    0.0729   -4.9862 H   0  0  0  0  0
  1  6  1  0  0  0
  1 21  1  0  0  0
  2  7  1  0  0  0
  2 22  1  0  0  0
  3  8  1  0  0  0
  3 23  1  0  0  0
  4  9  1  0  0  0
  4 24  1  0  0  0
  5 10  2  0  0  0
  5 11  1  0  0  0
  5 25  1  0  0  0
  6  7  2  0  0  0
  6 12  1  0  0  0
  7 18  1  0  0  0
  8  9  1  0  0  0
  8 16  2  0  0  0
  9 17  2  0  0  0
 10 14  1  0  0  0
 10 19  1  0  0  0
 11 12  2  0  0  0
 11 27  1  0  0  0
 12 13  1  0  0  0
 13 19  2  0  0  0
 13 20  1  0  0  0
 14 15  2  0  0  0
 14 16  1  0  0  0
 15 17  1  0  0  0
 15 26  1  0  0  0
 16 28  1  0  0  0
 17 29  1  0  0  0
 18 20  2  0  0  0
 18 30  1  0  0  0
 19 31  1  0  0  0
 20 32  1  0  0  0
 21 33  1  0  0  0
 21 34  1  0  0  0
 21 35  1  0  0  0
 22 36  1  0  0  0
 22 37  1  0  0  0
 22 38  1  0  0  0
 23 39  1  0  0  0
 23 40  1  0  0  0
 23 41  1  0  0  0
 24 42  1  0  0  0
 24 43  1  0  0  0
 24 44  1  0  0  0
 25 26  1  0  0  0
 25 45  1  0  0  0
 25 46  1  0  0  0
 26 47  1  0  0  0
 26 48  1  0  0  0
M  END
> <Tumorigenic>
none

> <Score>
42.66405

> <Active/Decoy>
active

> <InChI>
InChI=1S/C21H22NO4/c1-23-18-6-5-13-9-17-15-11-20(25-3)19(24-2)10-14(15)7-8-22(17)12-16(13)21(18)26-4/h5-6,9-12H,7-8H2,1-4H3/q+1

> <Matching Features>
H:14924486185440016873|HBA:149238150533300697|HBA:14924321692640012300|HBA:14924486112070016868

> <Mol. Index>
549

> <Pharmacophore Match>
Model -1

> <# Confs.>
13

> <Source Database>
Pharm-Screening-input-EANPDB_After_DataWarror.ldb

> <Pharmacophore-Fit Score>
42.66

> <formula>
C21H22NO4+

> <Mutagenic>
none

> <Reproductive Effective>
none

> <Irritant>
none

$$$$
sigmoidin B 4'-methylether diacetate
XX    ILIB03122411353D

 59 61  0  0  1  0              1 V2000
   -1.3893   -0.3955   -2.5117 O   0  0  0  0  0
    3.5553    1.2224   -2.5301 O   0  0  0  0  0
   -5.8187   -0.0072   -4.4168 O   0  0  0  0  0
    3.8711    1.7370    0.2430 O   0  0  0  0  0
   -4.0277   -4.3087   -3.7497 O   0  0  0  0  0
    3.9717   -0.9931   -3.1286 O   0  0  0  0  0
   -6.0425    0.9410   -2.2982 O   0  0  0  0  0
   -1.4824   -4.4778   -2.7819 O   0  0  0  0  0
   -2.5018   -1.0300   -3.0057 C   0  0  0  0  0
    2.8007    1.0161   -0.2193 C   0  0  0  0  0
    2.6147    0.7760   -1.5879 C   0  0  0  0  0
   -4.7116   -0.7385   -3.9567 C   0  0  0  0  0
   -3.8041   -2.9657   -3.6164 C   0  0  0  0  0
    0.5478   -0.4185   -1.1429 C   0  0  0  0  0
   -2.6204   -2.4213   -3.1062 C   0  0  0  0  0
    1.8365    0.5814    0.7037 C   0  0  0  0  0
   -3.5344   -0.1915   -3.4434 C   0  0  0  0  0
   -4.8428   -2.1282   -4.0338 C   0  0  0  0  0
    1.5217    0.0303   -2.0395 C   0  0  0  0  0
    0.7194   -0.1302    0.2313 C   0  0  0  0  0
   -0.6414   -1.2161   -1.5869 C   0  0  2  0  0
    4.1734    0.2079   -3.2484 C   0  0  0  0  0
   -6.4018    0.8116   -3.4603 C   0  0  0  0  0
   -1.4604   -3.2551   -2.7042 C   0  0  0  0  0
    4.2620    2.6967   -0.7390 C   0  0  0  0  0
    1.9535    0.8791    2.1722 C   0  0  0  0  0
   -0.2262   -2.5133   -2.2628 C   0  0  0  0  0
    2.2622   -0.9552    3.9337 C   0  0  0  0  0
    2.7037   -0.1903    2.9164 C   0  0  0  0  0
    5.1567    0.7998   -4.2117 C   0  0  0  0  0
   -7.5721    1.5308   -4.0602 C   0  0  0  0  0
    3.1558   -2.0041    4.5389 C   0  0  0  0  0
    0.9034   -0.8577    4.5663 C   0  0  0  0  0
   -3.2551   -4.7964   -3.4219 H   0  0  0  0  0
   -3.3970    0.8836   -3.3598 H   0  0  0  0  0
   -5.7589   -2.5634   -4.4308 H   0  0  0  0  0
    1.4018   -0.1563   -3.1041 H   0  0  0  0  0
   -0.0296   -0.4737    0.9426 H   0  0  0  0  0
   -1.2875   -1.4098   -0.7271 H   0  0  0  0  0
    3.4483    3.3985   -0.9557 H   0  0  0  0  0
    5.1020    3.2685   -0.3325 H   0  0  0  0  0
    4.5987    2.2055   -1.6587 H   0  0  0  0  0
    2.4741    1.8330    2.3118 H   0  0  0  0  0
    0.9523    1.0167    2.5943 H   0  0  0  0  0
    0.3308   -3.1412   -1.5583 H   0  0  0  0  0
    0.3913   -2.3444   -3.1524 H   0  0  0  0  0
    3.7199   -0.3557    2.5595 H   0  0  0  0  0
    5.5736    0.0059   -4.8378 H   0  0  0  0  0
    4.6536    1.5207   -4.8606 H   0  0  0  0  0
    5.9690    1.2788   -3.6616 H   0  0  0  0  0
   -7.9722    2.2433   -3.3330 H   0  0  0  0  0
   -7.2535    2.0870   -4.9454 H   0  0  0  0  0
   -8.3539    0.8125   -4.3180 H   0  0  0  0  0
    4.1351   -2.0508    4.0507 H   0  0  0  0  0
    2.6933   -2.9929    4.4476 H   0  0  0  0  0
    3.3245   -1.7955    5.5994 H   0  0  0  0  0
    1.0021   -0.7203    5.6476 H   0  0  0  0  0
    0.3065   -0.0229    4.1935 H   0  0  0  0  0
    0.3400   -1.7791    4.3877 H   0  0  0  0  0
  1  9  1  0  0  0
  1 21  1  0  0  0
  2 11  1  0  0  0
  2 22  1  0  0  0
  3 12  1  0  0  0
  3 23  1  0  0  0
  4 10  1  0  0  0
  4 25  1  0  0  0
  5 13  1  0  0  0
  5 34  1  0  0  0
  6 22  2  0  0  0
  7 23  2  0  0  0
  8 24  2  0  0  0
  9 15  2  0  0  0
  9 17  1  0  0  0
 10 11  2  0  0  0
 10 16  1  0  0  0
 11 19  1  0  0  0
 12 17  2  0  0  0
 12 18  1  0  0  0
 13 15  1  0  0  0
 13 18  2  0  0  0
 14 19  2  0  0  0
 14 20  1  0  0  0
 14 21  1  0  0  0
 15 24  1  0  0  0
 16 20  2  0  0  0
 16 26  1  0  0  0
 17 35  1  0  0  0
 18 36  1  0  0  0
 19 37  1  0  0  0
 20 38  1  0  0  0
 21 27  1  0  0  0
 21 39  1  0  0  0
 22 30  1  0  0  0
 23 31  1  0  0  0
 24 27  1  0  0  0
 25 40  1  0  0  0
 25 41  1  0  0  0
 25 42  1  0  0  0
 26 29  1  0  0  0
 26 43  1  0  0  0
 26 44  1  0  0  0
 27 45  1  0  0  0
 27 46  1  0  0  0
 28 29  2  0  0  0
 28 32  1  0  0  0
 28 33  1  0  0  0
 29 47  1  0  0  0
 30 48  1  0  0  0
 30 49  1  0  0  0
 30 50  1  0  0  0
 31 51  1  0  0  0
 31 52  1  0  0  0
 31 53  1  0  0  0
 32 54  1  0  0  0
 32 55  1  0  0  0
 32 56  1  0  0  0
 33 57  1  0  0  0
 33 58  1  0  0  0
 33 59  1  0  0  0
M  END
> <Tumorigenic>
none

> <Score>
42.66236

> <Active/Decoy>
active

> <InChI>
InChI=1S/C25H26O8/c1-13(2)6-7-16-8-17(9-23(25(16)30-5)32-15(4)27)21-12-20(29)24-19(28)10-18(31-14(3)26)11-22(24)33-21/h6,8-11,21,28H,7,12H2,1-5H3/t21-/m0/s1

> <Matching Features>
H:14924486185440016873|HBA:149238150533300697|HBA:14924321692640012300|HBA:14924486112070016868

> <Mol. Index>
253

> <Pharmacophore Match>
Model -1

> <# Confs.>
25

> <Source Database>
Pharm-Screening-input-EANPDB_After_DataWarror.ldb

> <Pharmacophore-Fit Score>
42.66

> <formula>
C25H26O8

> <Mutagenic>
none

> <Reproductive Effective>
none

> <Irritant>
none

$$$$
abyssinone IV
XX    ILIB03122411353D

 57 59  0  0  1  0              1 V2000
   -2.7640    3.1744   -1.9764 O   0  0  0  0  0
    3.2811    1.4581   -2.3899 O   0  0  0  0  0
   -6.3113    6.1423   -1.0166 O   0  0  0  0  0
   -5.3567    0.0740   -2.6648 O   0  0  0  0  0
   -4.1168    3.3515   -1.8381 C   0  0  0  0  0
    1.9198    1.5773   -2.2684 C   0  0  0  0  0
   -5.9136    4.8767   -1.3488 C   0  0  0  0  0
   -0.8648    1.7362   -1.9370 C   0  0  0  0  0
   -5.0483    2.3277   -2.0331 C   0  0  0  0  0
    1.2889    0.7122   -1.3606 C   0  0  0  0  0
    1.1927    2.5224   -3.0122 C   0  0  0  0  0
   -4.5508    4.6353   -1.5105 C   0  0  0  0  0
   -6.8471    3.8550   -1.5203 C   0  0  0  0  0
   -0.1150    0.8015   -1.2140 C   0  0  0  0  0
   -0.1986    2.5938   -2.8247 C   0  0  0  0  0
   -6.4149    2.5745   -1.8679 C   0  0  0  0  0
   -2.3543    1.8231   -1.7410 C   0  0  2  0  0
   -4.5752    0.9953   -2.4588 C   0  0  0  0  0
    2.0391   -0.3275   -0.5922 C   0  0  0  0  0
    1.8348    3.4685   -3.9879 C   0  0  0  0  0
   -3.0918    0.8652   -2.6909 C   0  0  0  0  0
    2.1772   -0.3018    1.9702 C   0  0  0  0  0
    3.0112    2.6800   -6.1160 C   0  0  0  0  0
    2.4801    0.1757    0.7573 C   0  0  0  0  0
    1.9118    2.9063   -5.3748 C   0  0  0  0  0
    2.7649    0.3225    3.2080 C   0  0  0  0  0
    1.2475   -1.4507    2.2372 C   0  0  0  0  0
    2.8910    2.0737   -7.4887 C   0  0  0  0  0
    4.4196    2.9956   -5.6988 C   0  0  0  0  0
    3.6255    2.1476   -2.9781 H   0  0  0  0  0
   -7.2821    6.1518   -0.9401 H   0  0  0  0  0
   -3.8333    5.4399   -1.3725 H   0  0  0  0  0
   -7.9101    4.0450   -1.3936 H   0  0  0  0  0
   -0.6217    0.1213   -0.5324 H   0  0  0  0  0
   -0.7749    3.3273   -3.3853 H   0  0  0  0  0
   -7.1524    1.7910   -2.0151 H   0  0  0  0  0
   -2.5895    1.5691   -0.7025 H   0  0  0  0  0
    1.3940   -1.2041   -0.4292 H   0  0  0  0  0
    2.8838   -0.6792   -1.1803 H   0  0  0  0  0
    1.2621    4.4050   -4.0168 H   0  0  0  0  0
    2.8319    3.7429   -3.6198 H   0  0  0  0  0
   -2.9038    1.1002   -3.7445 H   0  0  0  0  0
   -2.7912   -0.1705   -2.4989 H   0  0  0  0  0
    3.1705    1.0294    0.6999 H   0  0  0  0  0
    0.9447    2.6422   -5.8032 H   0  0  0  0  0
    3.4407    1.1519    2.9755 H   0  0  0  0  0
    3.3359   -0.4223    3.7720 H   0  0  0  0  0
    1.9694    0.7139    3.8515 H   0  0  0  0  0
    0.4632   -1.1436    2.9383 H   0  0  0  0  0
    0.7440   -1.8230    1.3425 H   0  0  0  0  0
    1.7976   -2.2835    2.6829 H   0  0  0  0  0
    1.8535    1.8516   -7.7583 H   0  0  0  0  0
    3.4536    1.1353   -7.5368 H   0  0  0  0  0
    3.2903    2.7584   -8.2443 H   0  0  0  0  0
    4.9049    3.6244   -6.4558 H   0  0  0  0  0
    4.4855    3.5343   -4.7520 H   0  0  0  0  0
    4.9989    2.0721   -5.6012 H   0  0  0  0  0
  1  5  1  0  0  0
  1 17  1  0  0  0
  2  6  1  0  0  0
  2 30  1  0  0  0
  3  7  1  0  0  0
  3 31  1  0  0  0
  4 18  2  0  0  0
  5  9  2  0  0  0
  5 12  1  0  0  0
  6 10  2  0  0  0
  6 11  1  0  0  0
  7 12  2  0  0  0
  7 13  1  0  0  0
  8 14  2  0  0  0
  8 15  1  0  0  0
  8 17  1  0  0  0
  9 16  1  0  0  0
  9 18  1  0  0  0
 10 14  1  0  0  0
 10 19  1  0  0  0
 11 15  2  0  0  0
 11 20  1  0  0  0
 12 32  1  0  0  0
 13 16  2  0  0  0
 13 33  1  0  0  0
 14 34  1  0  0  0
 15 35  1  0  0  0
 16 36  1  0  0  0
 17 21  1  0  0  0
 17 37  1  0  0  0
 18 21  1  0  0  0
 19 24  1  0  0  0
 19 38  1  0  0  0
 19 39  1  0  0  0
 20 25  1  0  0  0
 20 40  1  0  0  0
 20 41  1  0  0  0
 21 42  1  0  0  0
 21 43  1  0  0  0
 22 24  2  0  0  0
 22 26  1  0  0  0
 22 27  1  0  0  0
 23 25  2  0  0  0
 23 28  1  0  0  0
 23 29  1  0  0  0
 24 44  1  0  0  0
 25 45  1  0  0  0
 26 46  1  0  0  0
 26 47  1  0  0  0
 26 48  1  0  0  0
 27 49  1  0  0  0
 27 50  1  0  0  0
 27 51  1  0  0  0
 28 52  1  0  0  0
 28 53  1  0  0  0
 28 54  1  0  0  0
 29 55  1  0  0  0
 29 56  1  0  0  0
 29 57  1  0  0  0
M  END
> <Tumorigenic>
none

> <Score>
42.61017

> <Active/Decoy>
active

> <InChI>
InChI=1S/C25H28O4/c1-15(2)5-7-17-11-19(12-18(25(17)28)8-6-16(3)4)23-14-22(27)21-10-9-20(26)13-24(21)29-23/h5-6,9-13,23,26,28H,7-8,14H2,1-4H3/t23-/m0/s1

> <Matching Features>
H:14924486185440016873|HBA:149238150533300697|HBA:14924321692640012300|HBA:14924486112070016868

> <Mol. Index>
258

> <Pharmacophore Match>
Model -1

> <# Confs.>
25

> <Source Database>
Pharm-Screening-input-EANPDB_After_DataWarror.ldb

> <Pharmacophore-Fit Score>
42.61

> <formula>
C25H28O4

> <Mutagenic>
none

> <Reproductive Effective>
none

> <Irritant>
none

$$$$
5-deoxyabyssinin II
XX    ILIB03122411353D

 48 50  0  0  1  0              1 V2000
   -2.7542    3.1521   -1.9538 O   0  0  0  0  0
    1.9029    3.2989   -3.8055 O   0  0  0  0  0
    3.2660    1.4577   -2.3959 O   0  0  0  0  0
   -6.2857    6.1446   -1.0104 O   0  0  0  0  0
   -5.3665    0.0775   -2.6794 O   0  0  0  0  0
   -4.1066    3.3391   -1.8255 C   0  0  0  0  0
    1.1747    2.4946   -2.9668 C   0  0  0  0  0
    1.9037    1.5360   -2.2496 C   0  0  0  0  0
   -5.8956    4.8779   -1.3451 C   0  0  0  0  0
   -0.8673    1.6976   -1.9048 C   0  0  0  0  0
   -5.0462    2.3244   -2.0335 C   0  0  0  0  0
    1.2856    0.6489   -1.3614 C   0  0  0  0  0
   -4.5332    4.6258   -1.4962 C   0  0  0  0  0
   -0.2112    2.5656   -2.7916 C   0  0  0  0  0
   -6.8362    3.8642   -1.5286 C   0  0  0  0  0
   -0.1135    0.7524   -1.1924 C   0  0  0  0  0
   -6.4116    2.5825   -1.8792 C   0  0  0  0  0
   -2.3593    1.7895   -1.7291 C   0  0  2  0  0
   -4.5797    0.9896   -2.4614 C   0  0  0  0  0
    1.0311    4.2134   -4.4697 C   0  0  0  0  0
    2.0538   -0.3621   -0.5730 C   0  0  0  0  0
   -3.0954    0.8488   -2.6812 C   0  0  0  0  0
    2.1984   -0.3083    1.9887 C   0  0  0  0  0
    2.5117    0.1685    0.7602 C   0  0  0  0  0
    2.7807    0.3365    3.2184 C   0  0  0  0  0
    1.2852   -1.4671    2.2700 C   0  0  0  0  0
    3.5413    2.1282   -3.0445 H   0  0  0  0  0
   -7.2558    6.1618   -0.9429 H   0  0  0  0  0
   -3.8099    5.4236   -1.3482 H   0  0  0  0  0
   -0.8072    3.2927   -3.3372 H   0  0  0  0  0
   -7.8989    4.0638   -1.4110 H   0  0  0  0  0
   -0.6166    0.0810   -0.4996 H   0  0  0  0  0
   -7.1535    1.8064   -2.0368 H   0  0  0  0  0
   -2.6043    1.5393   -0.6857 H   0  0  0  0  0
    0.5084    4.8553   -3.7518 H   0  0  0  0  0
    1.6426    4.8523   -5.1126 H   0  0  0  0  0
    0.3119    3.6819   -5.1022 H   0  0  0  0  0
    1.4212   -1.2458   -0.3993 H   0  0  0  0  0
    2.9016   -0.7083   -1.1598 H   0  0  0  0  0
   -2.8958    1.0870   -3.7328 H   0  0  0  0  0
   -2.8062   -0.1910   -2.4914 H   0  0  0  0  0
    3.1700    1.0232    0.7021 H   0  0  0  0  0
    3.4445    1.1727    2.9756 H   0  0  0  0  0
    3.3634   -0.3946    3.7883 H   0  0  0  0  0
    1.9816    0.7235    3.8601 H   0  0  0  0  0
    0.4986   -1.1636    2.9701 H   0  0  0  0  0
    0.7845   -1.8553    1.3805 H   0  0  0  0  0
    1.8478   -2.2877    2.7225 H   0  0  0  0  0
  1  6  1  0  0  0
  1 18  1  0  0  0
  2  7  1  0  0  0
  2 20  1  0  0  0
  3  8  1  0  0  0
  3 27  1  0  0  0
  4  9  1  0  0  0
  4 28  1  0  0  0
  5 19  2  0  0  0
  6 11  2  0  0  0
  6 13  1  0  0  0
  7  8  2  0  0  0
  7 14  1  0  0  0
  8 12  1  0  0  0
  9 13  2  0  0  0
  9 15  1  0  0  0
 10 14  2  0  0  0
 10 16  1  0  0  0
 10 18  1  0  0  0
 11 17  1  0  0  0
 11 19  1  0  0  0
 12 16  2  0  0  0
 12 21  1  0  0  0
 13 29  1  0  0  0
 14 30  1  0  0  0
 15 17  2  0  0  0
 15 31  1  0  0  0
 16 32  1  0  0  0
 17 33  1  0  0  0
 18 22  1  0  0  0
 18 34  1  0  0  0
 19 22  1  0  0  0
 20 35  1  0  0  0
 20 36  1  0  0  0
 20 37  1  0  0  0
 21 24  1  0  0  0
 21 38  1  0  0  0
 21 39  1  0  0  0
 22 40  1  0  0  0
 22 41  1  0  0  0
 23 24  2  0  0  0
 23 25  1  0  0  0
 23 26  1  0  0  0
 24 42  1  0  0  0
 25 43  1  0  0  0
 25 44  1  0  0  0
 25 45  1  0  0  0
 26 46  1  0  0  0
 26 47  1  0  0  0
 26 48  1  0  0  0
M  END
> <Tumorigenic>
none

> <Score>
42.61

> <Active/Decoy>
active

> <InChI>
InChI=1S/C21H22O5/c1-12(2)4-5-13-8-14(9-20(25-3)21(13)24)18-11-17(23)16-7-6-15(22)10-19(16)26-18/h4,6-10,18,22,24H,5,11H2,1-3H3/t18-/m0/s1

> <Matching Features>
H:14924486185440016873|HBA:149238150533300697|HBA:14924321692640012300|HBA:14924486112070016868

> <Mol. Index>
256

> <Pharmacophore Match>
Model -1

> <# Confs.>
25

> <Source Database>
Pharm-Screening-input-EANPDB_After_DataWarror.ldb

> <Pharmacophore-Fit Score>
42.61

> <formula>
C21H22O5

> <Mutagenic>
none

> <Reproductive Effective>
none

> <Irritant>
none

$$$$
13,17-dihydroxy-labda-8,14-diene-17-O-xylopyranoside
XX    ILIB03122411353D

 73 75  0  0  1  0              1 V2000
   -1.4357    3.0483   -0.7255 O   0  0  0  0  0
    3.5926    0.7290   -2.6250 O   0  0  0  0  0
   -2.8871    1.5088   -3.6038 O   0  0  0  0  0
   -5.8328    2.3140   -1.5518 O   0  0  0  0  0
   -6.8960    0.4711   -3.5157 O   0  0  0  0  0
   -4.9113   -1.4332   -4.4472 O   0  0  0  0  0
   -1.6463    1.6363   -0.8168 C   0  0  2  0  0
    2.4826   -0.1440   -2.3963 C   0  0  1  0  0
   -5.1210    1.8952   -2.7107 C   0  0  2  0  0
   -5.5311    0.4727   -3.0939 C   0  0  2  0  0
   -3.6092    2.0173   -2.4753 C   0  0  1  0  0
   -4.6541   -0.0506   -4.2300 C   0  0  1  0  0
    0.3371   -0.5214    1.8801 C   0  0  2  0  0
   -0.8654   -0.4609    2.8947 C   0  0  1  0  0
   -3.1755    0.1504   -3.9230 C   0  0  0  0  0
   -3.1240    1.3992   -1.1557 C   0  0  0  0  0
   -1.1173    0.9970    0.4419 C   0  0  0  0  0
    2.9852   -1.5720   -2.3841 C   0  0  0  0  0
    1.7478    0.3439   -1.1398 C   0  0  0  0  0
   -0.1512    0.0553    0.5048 C   0  0  0  0  0
   -0.6984   -1.2042    4.2714 C   0  0  0  0  0
    0.8043   -1.9953    1.7829 C   0  0  0  0  0
   -1.3572    0.9848    3.0230 C   0  0  0  0  0
    1.5492    0.3562    2.2952 C   0  0  0  0  0
    4.2495   -1.9790   -2.5577 C   0  0  0  0  0
   -1.8346    1.5151    1.6750 C   0  0  0  0  0
    0.5138   -0.4739   -0.7395 C   0  0  0  0  0
   -0.1177   -2.6185    4.0358 C   0  0  0  0  0
    1.1078   -2.6339    3.1351 C   0  0  0  0  0
   -2.0951   -1.4020    4.9226 C   0  0  0  0  0
    0.1545   -0.4536    5.3121 C   0  0  0  0  0
   -2.0040    3.3896   -0.0142 H   0  0  0  0  0
    4.1866    0.6636   -1.8419 H   0  0  0  0  0
   -6.7816    2.1967   -1.7338 H   0  0  0  0  0
   -6.9731    1.0618   -4.2857 H   0  0  0  0  0
   -4.6887   -1.9121   -3.6308 H   0  0  0  0  0
   -1.0392    1.2833   -1.6598 H   0  0  0  0  0
    1.8161   -0.0259   -3.2494 H   0  0  0  0  0
   -5.4050    2.5763   -3.5242 H   0  0  0  0  0
   -5.4877   -0.1939   -2.2238 H   0  0  0  0  0
   -3.3709    3.0872   -2.4212 H   0  0  0  0  0
   -4.9100    0.4742   -5.1563 H   0  0  0  0  0
   -1.6805   -1.0130    2.3951 H   0  0  0  0  0
   -2.5795   -0.1206   -4.8019 H   0  0  0  0  0
   -2.8334   -0.5133   -3.1212 H   0  0  0  0  0
   -3.3038    0.3152   -1.1736 H   0  0  0  0  0
   -3.7230    1.8019   -0.3278 H   0  0  0  0  0
    2.2361   -2.3457   -2.2206 H   0  0  0  0  0
    2.4722    0.3499   -0.3005 H   0  0  0  0  0
    1.4562    1.3793   -1.3056 H   0  0  0  0  0
    1.7095   -2.0780    1.1682 H   0  0  0  0  0
    0.0297   -2.5936    1.2840 H   0  0  0  0  0
   -2.1874    1.0682    3.7307 H   0  0  0  0  0
   -0.5665    1.6337    3.4135 H   0  0  0  0  0
    1.9158    0.1350    3.2944 H   0  0  0  0  0
    1.3225    1.4266    2.2596 H   0  0  0  0  0
    2.4033    0.1946    1.6284 H   0  0  0  0  0
    5.0653   -1.2860   -2.7217 H   0  0  0  0  0
    4.4883   -3.0366   -2.5324 H   0  0  0  0  0
   -1.7733    2.6101    1.6992 H   0  0  0  0  0
   -2.8990    1.2641    1.5712 H   0  0  0  0  0
   -0.2012   -0.4796   -1.5514 H   0  0  0  0  0
    0.8312   -1.5192   -0.5799 H   0  0  0  0  0
   -0.8846   -3.2561    3.5745 H   0  0  0  0  0
    0.1342   -3.0928    4.9934 H   0  0  0  0  0
    1.4193   -3.6733    2.9755 H   0  0  0  0  0
    1.9516   -2.1336    3.6200 H   0  0  0  0  0
   -2.5377   -0.4543    5.2438 H   0  0  0  0  0
   -2.0272   -2.0407    5.8109 H   0  0  0  0  0
   -2.7944   -1.8828    4.2294 H   0  0  0  0  0
   -0.1888    0.5753    5.4551 H   0  0  0  0  0
    1.2141   -0.4295    5.0637 H   0  0  0  0  0
    0.0908   -0.9469    6.2899 H   0  0  0  0  0
  1  7  1  0  0  0
  1 32  1  0  0  0
  2  8  1  0  0  0
  2 33  1  0  0  0
  3 11  1  0  0  0
  3 15  1  0  0  0
  4  9  1  0  0  0
  4 34  1  0  0  0
  5 10  1  0  0  0
  5 35  1  0  0  0
  6 12  1  0  0  0
  6 36  1  0  0  0
  7 16  1  0  0  0
  7 17  1  0  0  0
  7 37  1  0  0  0
  8 18  1  0  0  0
  8 19  1  0  0  0
  8 38  1  0  0  0
  9 10  1  0  0  0
  9 11  1  0  0  0
  9 39  1  0  0  0
 10 12  1  0  0  0
 10 40  1  0  0  0
 11 16  1  0  0  0
 11 41  1  0  0  0
 12 15  1  0  0  0
 12 42  1  0  0  0
 13 14  1  0  0  0
 13 20  1  0  0  0
 13 22  1  0  0  0
 13 24  1  0  0  0
 14 21  1  0  0  0
 14 23  1  0  0  0
 14 43  1  0  0  0
 15 44  1  0  0  0
 15 45  1  0  0  0
 16 46  1  0  0  0
 16 47  1  0  0  0
 17 20  2  0  0  0
 17 26  1  0  0  0
 18 25  2  0  0  0
 18 48  1  0  0  0
 19 27  1  0  0  0
 19 49  1  0  0  0
 19 50  1  0  0  0
 20 27  1  0  0  0
 21 28  1  0  0  0
 21 30  1  0  0  0
 21 31  1  0  0  0
 22 29  1  0  0  0
 22 51  1  0  0  0
 22 52  1  0  0  0
 23 26  1  0  0  0
 23 53  1  0  0  0
 23 54  1  0  0  0
 24 55  1  0  0  0
 24 56  1  0  0  0
 24 57  1  0  0  0
 25 58  1  0  0  0
 25 59  1  0  0  0
 26 60  1  0  0  0
 26 61  1  0  0  0
 27 62  1  0  0  0
 27 63  1  0  0  0
 28 29  1  0  0  0
 28 64  1  0  0  0
 28 65  1  0  0  0
 29 66  1  0  0  0
 29 67  1  0  0  0
 30 68  1  0  0  0
 30 69  1  0  0  0
 30 70  1  0  0  0
 31 71  1  0  0  0
 31 72  1  0  0  0
 31 73  1  0  0  0
M  END
> <Tumorigenic>
none

> <Score>
42.599426

> <Active/Decoy>
active

> <InChI>
InChI=1S/C25H42O6/c1-5-15(26)7-9-17-16(8-10-21-24(2,3)11-6-12-25(17,21)4)18(27)13-20-23(30)22(29)19(28)14-31-20/h5,15,18-23,26-30H,1,6-14H2,2-4H3/t15-,18+,19+,20+,21+,22-,23-,25-/m0/s1

> <Matching Features>
H:14924486185440016873|HBA:149238150533300697|HBA:14924321692640012300|HBA:14924486112070016868

> <Mol. Index>
469

> <Pharmacophore Match>
Model -1

> <# Confs.>
25

> <Source Database>
Pharm-Screening-input-EANPDB_After_DataWarror.ldb

> <Pharmacophore-Fit Score>
42.6

> <formula>
C25H42O6

> <Mutagenic>
none

> <Reproductive Effective>
none

> <Irritant>
none

$$$$
abyssinin II
XX    ILIB03122411353D

 49 51  0  0  1  0              1 V2000
   -2.7850    3.1948   -1.9905 O   0  0  0  0  0
    1.8931    3.2865   -3.8184 O   0  0  0  0  0
    3.2372    1.4512   -2.3914 O   0  0  0  0  0
   -7.3885    1.6834   -2.1478 O   0  0  0  0  0
   -6.2920    6.2410   -1.1837 O   0  0  0  0  0
   -5.3550    0.0817   -2.6858 O   0  0  0  0  0
   -4.1409    3.3827   -1.8917 C   0  0  0  0  0
    1.1588    2.5069   -2.9703 C   0  0  0  0  0
    1.8766    1.5502   -2.2408 C   0  0  0  0  0
   -6.4469    2.6591   -1.9629 C   0  0  0  0  0
   -5.9154    4.9601   -1.4783 C   0  0  0  0  0
   -0.8938    1.7410   -1.9047 C   0  0  0  0  0
   -5.0836    2.3657   -2.0932 C   0  0  0  0  0
    1.2498    0.6842   -1.3383 C   0  0  0  0  0
   -4.5569    4.6837   -1.5999 C   0  0  0  0  0
   -6.8661    3.9560   -1.6508 C   0  0  0  0  0
   -0.2267    2.5951   -2.7971 C   0  0  0  0  0
   -0.1505    0.7927   -1.1848 C   0  0  0  0  0
   -2.3869    1.8393   -1.7453 C   0  0  2  0  0
   -4.5937    1.0211   -2.4873 C   0  0  0  0  0
    1.1504    4.2495   -4.5598 C   0  0  0  0  0
    2.0052   -0.3420   -0.5560 C   0  0  0  0  0
   -3.1075    0.8928   -2.6992 C   0  0  0  0  0
    2.2063   -0.3054    1.9896 C   0  0  0  0  0
    2.5075    0.1631    0.7540 C   0  0  0  0  0
    2.7747    0.3659    3.2104 C   0  0  0  0  0
    1.3353   -1.4940    2.2827 C   0  0  0  0  0
    3.5202    2.1168   -3.0423 H   0  0  0  0  0
   -8.2723    2.0671   -2.0157 H   0  0  0  0  0
   -7.2610    6.2724   -1.1315 H   0  0  0  0  0
   -3.8248    5.4741   -1.4598 H   0  0  0  0  0
   -7.9242    4.1824   -1.5524 H   0  0  0  0  0
   -0.8138    3.3236   -3.3503 H   0  0  0  0  0
   -0.6631    0.1192   -0.5012 H   0  0  0  0  0
   -2.6416    1.6016   -0.7011 H   0  0  0  0  0
    1.8557    4.8053   -5.1860 H   0  0  0  0  0
    0.4252    3.7653   -5.2227 H   0  0  0  0  0
    0.6579    4.9672   -3.8943 H   0  0  0  0  0
    1.3558   -1.2305   -0.4212 H   0  0  0  0  0
    2.8522   -0.6957   -1.1517 H   0  0  0  0  0
   -2.8105   -0.1444   -2.5070 H   0  0  0  0  0
   -2.9020    1.1313   -3.7494 H   0  0  0  0  0
    3.1538    1.0261    0.6853 H   0  0  0  0  0
    1.9666    0.7065    3.8661 H   0  0  0  0  0
    3.3881    1.2380    2.9609 H   0  0  0  0  0
    3.4043   -0.3335    3.7690 H   0  0  0  0  0
    1.8726   -2.2047    2.9181 H   0  0  0  0  0
    0.4303   -1.1770    2.8118 H   0  0  0  0  0
    1.0263   -2.0395    1.3887 H   0  0  0  0  0
  1  7  1  0  0  0
  1 19  1  0  0  0
  2  8  1  0  0  0
  2 21  1  0  0  0
  3  9  1  0  0  0
  3 28  1  0  0  0
  4 10  1  0  0  0
  4 29  1  0  0  0
  5 11  1  0  0  0
  5 30  1  0  0  0
  6 20  2  0  0  0
  7 13  2  0  0  0
  7 15  1  0  0  0
  8  9  2  0  0  0
  8 17  1  0  0  0
  9 14  1  0  0  0
 10 13  1  0  0  0
 10 16  2  0  0  0
 11 15  2  0  0  0
 11 16  1  0  0  0
 12 17  2  0  0  0
 12 18  1  0  0  0
 12 19  1  0  0  0
 13 20  1  0  0  0
 14 18  2  0  0  0
 14 22  1  0  0  0
 15 31  1  0  0  0
 16 32  1  0  0  0
 17 33  1  0  0  0
 18 34  1  0  0  0
 19 23  1  0  0  0
 19 35  1  0  0  0
 20 23  1  0  0  0
 21 36  1  0  0  0
 21 37  1  0  0  0
 21 38  1  0  0  0
 22 25  1  0  0  0
 22 39  1  0  0  0
 22 40  1  0  0  0
 23 41  1  0  0  0
 23 42  1  0  0  0
 24 25  2  0  0  0
 24 26  1  0  0  0
 24 27  1  0  0  0
 25 43  1  0  0  0
 26 44  1  0  0  0
 26 45  1  0  0  0
 26 46  1  0  0  0
 27 47  1  0  0  0
 27 48  1  0  0  0
 27 49  1  0  0  0
M  END
> <Tumorigenic>
none

> <Score>
42.579147

> <Active/Decoy>
active

> <InChI>
InChI=1S/C21H22O6/c1-11(2)4-5-12-6-13(7-19(26-3)21(12)25)17-10-16(24)20-15(23)8-14(22)9-18(20)27-17/h4,6-9,17,22-23,25H,5,10H2,1-3H3/t17-/m0/s1

> <Matching Features>
H:14924486185440016873|HBA:149238150533300697|HBA:14924321692640012300|HBA:14924486112070016868

> <Mol. Index>
266

> <Pharmacophore Match>
Model -1

> <# Confs.>
25

> <Source Database>
Pharm-Screening-input-EANPDB_After_DataWarror.ldb

> <Pharmacophore-Fit Score>
42.58

> <formula>
C21H22O6

> <Mutagenic>
none

> <Reproductive Effective>
none

> <Irritant>
none

$$$$
3beta-acetoxyfuerstione
XX    ILIB03122411353D

 55 57  0  0  1  0              1 V2000
    2.9747    0.5909   -0.5083 O   0  0  0  0  0
    3.3741    2.1333   -2.1817 O   0  0  0  0  0
   -5.5193   -0.3338   -3.2922 O   0  0  0  0  0
   -2.9337   -1.1015   -3.0654 O   0  0  0  0  0
   -7.3789    1.6963   -2.4587 O   0  0  0  0  0
    1.5748    0.7952   -0.6653 C   0  0  2  0  0
   -1.2969   -0.2853   -0.6932 C   0  0  2  0  0
    3.7594    1.3273   -1.3456 C   0  0  0  0  0
   -4.9529   -0.0171   -2.2486 C   0  0  0  0  0
   -3.5001   -0.3363   -2.0671 C   0  0  0  0  0
   -7.1768    0.8832   -1.2971 C   0  0  0  0  0
   -2.8075    0.0648   -0.9746 C   0  0  0  0  0
   -0.6852    0.5246    0.4944 C   0  0  0  0  0
    0.8556    0.5354    0.7005 C   0  0  0  0  0
    1.0623   -0.1356   -1.7634 C   0  0  0  0  0
   -0.4427   -0.0042   -1.9602 C   0  0  0  0  0
   -1.2808   -1.7935   -0.3427 C   0  0  0  0  0
   -5.6934    0.6635   -1.1386 C   0  0  0  0  0
   -3.5459    0.8197    0.0432 C   0  0  0  0  0
   -1.4976    1.2310    1.3021 C   0  0  0  0  0
   -4.9795    1.0349   -0.0643 C   0  0  0  0  0
   -2.9145    1.3202    1.1159 C   0  0  0  0  0
    5.2020    1.0076   -1.0928 C   0  0  0  0  0
   -8.0005   -0.3974   -1.4762 C   0  0  0  0  0
   -7.7080    1.6747   -0.0997 C   0  0  0  0  0
    1.3336    1.6878    1.6475 C   0  0  0  0  0
    1.3361   -0.7625    1.3779 C   0  0  0  0  0
   -3.6232   -1.2871   -3.7256 H   0  0  0  0  0
   -7.0585    1.1999   -3.2321 H   0  0  0  0  0
    1.3799    1.8268   -0.9703 H   0  0  0  0  0
    1.5681    0.1136   -2.7053 H   0  0  0  0  0
    1.3451   -1.1747   -1.5628 H   0  0  0  0  0
   -0.6584    1.0079   -2.3292 H   0  0  0  0  0
   -0.6986   -0.6918   -2.7717 H   0  0  0  0  0
   -0.2782   -2.2202   -0.3468 H   0  0  0  0  0
   -1.7185   -1.9768    0.6464 H   0  0  0  0  0
   -1.8520   -2.3916   -1.0618 H   0  0  0  0  0
   -1.1280    1.8036    2.1446 H   0  0  0  0  0
   -5.4703    1.5329    0.7682 H   0  0  0  0  0
   -3.4540    1.8738    1.8812 H   0  0  0  0  0
    5.8308    1.6712   -1.6928 H   0  0  0  0  0
    5.4399    1.1704   -0.0386 H   0  0  0  0  0
    5.4059   -0.0266   -1.3782 H   0  0  0  0  0
   -9.0557   -0.1578   -1.6436 H   0  0  0  0  0
   -7.6745   -0.9596   -2.3591 H   0  0  0  0  0
   -7.9332   -1.0532   -0.6011 H   0  0  0  0  0
   -7.1883    2.6341    0.0039 H   0  0  0  0  0
   -7.5969    1.1189    0.8373 H   0  0  0  0  0
   -8.7688    1.9283   -0.2311 H   0  0  0  0  0
    0.9808    1.5406    2.6757 H   0  0  0  0  0
    2.4273    1.7361    1.7024 H   0  0  0  0  0
    0.9857    2.6671    1.2992 H   0  0  0  0  0
    1.3758   -1.6096    0.6923 H   0  0  0  0  0
    2.3507   -0.6558    1.7806 H   0  0  0  0  0
    0.6860   -1.0367    2.2177 H   0  0  0  0  0
  1  6  1  0  0  0
  1  8  1  0  0  0
  2  8  2  0  0  0
  3  9  2  0  0  0
  4 10  1  0  0  0
  4 28  1  0  0  0
  5 11  1  0  0  0
  5 29  1  0  0  0
  6 14  1  0  0  0
  6 15  1  0  0  0
  6 30  1  0  0  0
  7 12  1  0  0  0
  7 13  1  0  0  0
  7 16  1  0  0  0
  7 17  1  0  0  0
  8 23  1  0  0  0
  9 10  1  0  0  0
  9 18  1  0  0  0
 10 12  2  0  0  0
 11 18  1  0  0  0
 11 24  1  0  0  0
 11 25  1  0  0  0
 12 19  1  0  0  0
 13 14  1  0  0  0
 13 20  2  0  0  0
 14 26  1  0  0  0
 14 27  1  0  0  0
 15 16  1  0  0  0
 15 31  1  0  0  0
 15 32  1  0  0  0
 16 33  1  0  0  0
 16 34  1  0  0  0
 17 35  1  0  0  0
 17 36  1  0  0  0
 17 37  1  0  0  0
 18 21  2  0  0  0
 19 21  1  0  0  0
 19 22  2  0  0  0
 20 22  1  0  0  0
 20 38  1  0  0  0
 21 39  1  0  0  0
 22 40  1  0  0  0
 23 41  1  0  0  0
 23 42  1  0  0  0
 23 43  1  0  0  0
 24 44  1  0  0  0
 24 45  1  0  0  0
 24 46  1  0  0  0
 25 47  1  0  0  0
 25 48  1  0  0  0
 25 49  1  0  0  0
 26 50  1  0  0  0
 26 51  1  0  0  0
 26 52  1  0  0  0
 27 53  1  0  0  0
 27 54  1  0  0  0
 27 55  1  0  0  0
M  END
> <Tumorigenic>
none

> <Score>
42.390827

> <Active/Decoy>
active

> <InChI>
InChI=1S/C22H28O5/c1-12(23)27-16-9-10-22(6)15(20(16,2)3)8-7-13-11-14(21(4,5)26)18(24)19(25)17(13)22/h7-8,11,16,25-26H,9-10H2,1-6H3/t16-,22-/m0/s1

> <Matching Features>
H:14924486185440016873|HBA:149238150533300697|HBA:14924321692640012300|HBA:14924486112070016868

> <Mol. Index>
493

> <Pharmacophore Match>
Model -1

> <# Confs.>
17

> <Source Database>
Pharm-Screening-input-EANPDB_After_DataWarror.ldb

> <Pharmacophore-Fit Score>
42.39

> <formula>
C22H28O5

> <Mutagenic>
none

> <Reproductive Effective>
none

> <Irritant>
none

$$$$
18-hydroxyoctadeca-9,11,13,15-tetraynoic acid
XX    ILIB03122411353D

 41 40  0  0  1  0              1 V2000
    4.7082    1.6077   -2.1176 O   0  0  0  0  0
    4.3422   -0.6397   -2.0393 O   0  0  0  0  0
   -5.5392    0.9081   -3.7217 O   0  0  0  0  0
    4.8703    0.5217   -1.5813 C   0  0  0  0  0
   -5.4466   -0.3874   -4.2985 C   0  0  0  0  0
   -0.5950   -0.4937   -0.7975 C   0  0  0  0  0
    0.3114   -0.4490    0.2414 C   0  0  0  0  0
   -1.3821   -0.5345   -1.7048 C   0  0  0  0  0
    1.0982   -0.4130    1.1465 C   0  0  0  0  0
   -2.2834   -0.5827   -2.7489 C   0  0  0  0  0
    2.0019   -0.3753    2.1892 C   0  0  0  0  0
   -3.0688   -0.6243   -3.6555 C   0  0  0  0  0
    2.7893   -0.3407    3.0941 C   0  0  0  0  0
    5.6569    0.2972   -0.3238 C   0  0  0  0  0
   -4.0231   -0.6802   -4.7600 C   0  0  0  0  0
    3.7478   -0.2962    4.1838 C   0  0  0  0  0
    6.2454    1.5858    0.2346 C   0  0  0  0  0
    4.3334    1.0878    4.3884 C   0  0  0  0  0
    7.0723    1.4262    1.5241 C   0  0  0  0  0
    5.0931    1.6696    3.1933 C   0  0  0  0  0
    6.3126    0.8516    2.7279 C   0  0  0  0  0
    3.8250   -0.5070   -2.8618 H   0  0  0  0  0
   -4.9921    0.9104   -2.9159 H   0  0  0  0  0
   -6.1363   -0.4192   -5.1511 H   0  0  0  0  0
   -5.8058   -1.1266   -3.5749 H   0  0  0  0  0
    4.9783   -0.1366    0.4175 H   0  0  0  0  0
    6.4574   -0.4226   -0.5323 H   0  0  0  0  0
   -3.7370    0.0604   -5.5176 H   0  0  0  0  0
   -3.9796   -1.6625   -5.2440 H   0  0  0  0  0
    3.2490   -0.6075    5.1268 H   0  0  0  0  0
    4.5573   -1.0255    4.0256 H   0  0  0  0  0
    5.4462    2.3047    0.4268 H   0  0  0  0  0
    6.9063    2.0371   -0.5203 H   0  0  0  0  0
    3.5231    1.7739    4.6741 H   0  0  0  0  0
    5.0157    1.0486    5.2644 H   0  0  0  0  0
    7.4871    2.4019    1.8132 H   0  0  0  0  0
    7.9289    0.7680    1.3288 H   0  0  0  0  0
    4.3916    1.7775    2.3627 H   0  0  0  0  0
    5.4282    2.6798    3.4640 H   0  0  0  0  0
    7.0030    0.7428    3.5763 H   0  0  0  0  0
    5.9587   -0.1585    2.4814 H   0  0  0  0  0
  1  4  2  0  0  0
  2  4  1  0  0  0
  2 22  1  0  0  0
  3  5  1  0  0  0
  3 23  1  0  0  0
  4 14  1  0  0  0
  5 15  1  0  0  0
  5 24  1  0  0  0
  5 25  1  0  0  0
  6  7  1  0  0  0
  6  8  3  0  0  0
  7  9  3  0  0  0
  8 10  1  0  0  0
  9 11  1  0  0  0
 10 12  3  0  0  0
 11 13  3  0  0  0
 12 15  1  0  0  0
 13 16  1  0  0  0
 14 17  1  0  0  0
 14 26  1  0  0  0
 14 27  1  0  0  0
 15 28  1  0  0  0
 15 29  1  0  0  0
 16 18  1  0  0  0
 16 30  1  0  0  0
 16 31  1  0  0  0
 17 19  1  0  0  0
 17 32  1  0  0  0
 17 33  1  0  0  0
 18 20  1  0  0  0
 18 34  1  0  0  0
 18 35  1  0  0  0
 19 21  1  0  0  0
 19 36  1  0  0  0
 19 37  1  0  0  0
 20 21  1  0  0  0
 20 38  1  0  0  0
 20 39  1  0  0  0
 21 40  1  0  0  0
 21 41  1  0  0  0
M  END
> <Tumorigenic>
none

> <Score>
37.38833

> <Active/Decoy>
active

> <InChI>
InChI=1S/C18H20O3/c19-17-15-13-11-9-7-5-3-1-2-4-6-8-10-12-14-16-18(20)21/h19H,4,6,8,10,12,14-17H2,(H,20,21)

> <Matching Features>
H:14924486185440016873||HBA:14924321692640012300|HBA:14924486112070016868

> <Mol. Index>
21

> <Pharmacophore Match>
Model -1

> <# Confs.>
25

> <Source Database>
Pharm-Screening-input-EANPDB_After_DataWarror.ldb

> <Pharmacophore-Fit Score>
37.39

> <formula>
C18H20O3

> <Mutagenic>
none

> <Reproductive Effective>
none

> <Irritant>
none

$$$$
swietenolide
XX    ILIB03122411353D

 69 73  0  0  1  0              1 V2000
   -2.3138   -4.7208   -5.6036 O   0  0  0  0  0
   -4.2616   -0.8585   -4.1281 O   0  0  0  0  0
    4.4653    0.5299    0.8947 O   0  0  0  0  0
   -0.4887    1.1055    2.7486 O   0  0  0  0  0
    4.7566    1.6552   -2.2256 O   0  0  0  0  0
   -5.5897    0.9202   -3.7704 O   0  0  0  0  0
    0.7597    3.6413   -0.6382 O   0  0  0  0  0
    4.3067   -0.5383   -1.6704 O   0  0  0  0  0
   -2.3089   -3.9454   -4.4891 C   0  0  0  0  0
   -2.9089   -3.9919   -6.5818 C   0  0  0  0  0
   -2.8962   -2.7203   -4.7327 C   0  0  0  0  0
   -3.2844   -2.7597   -6.1024 C   0  0  0  0  0
   -3.0735   -1.6030   -3.7706 C   0  0  1  0  0
    3.6723    1.1298   -0.1308 C   0  0  2  0  0
    0.0252    0.8910    1.4275 C   0  0  1  0  0
    1.2573    1.3092   -1.1317 C   0  0  1  0  0
    2.2055    0.6749   -0.0291 C   0  0  2  0  0
   -1.8561   -0.6444   -3.6497 C   0  0  1  0  0
   -0.5309    2.0013    0.5155 C   0  0  1  0  0
    0.1777    0.2055   -1.5733 C   0  0  1  0  0
    4.3012    0.8086   -1.4667 C   0  0  0  0  0
   -4.5647    0.2987   -3.5015 C   0  0  0  0  0
    0.5289    2.4514   -0.4449 C   0  0  0  0  0
    4.9076   -0.9707   -2.8952 C   0  0  0  0  0
    1.5941    0.8174    1.4653 C   0  0  0  0  0
   -2.1837    0.3169   -2.5088 C   0  0  0  0  0
   -1.2786    0.6825   -1.5648 C   0  0  0  0  0
   -0.5766   -1.4549   -3.3183 C   0  0  0  0  0
   -1.6946    1.5351   -0.3675 C   0  0  0  0  0
    0.5594   -0.5501   -2.8612 C   0  0  0  0  0
    1.9691    1.9190   -2.3584 C   0  0  0  0  0
   -1.6343    0.1859   -4.9386 C   0  0  0  0  0
   -3.6222    0.7727   -2.4196 C   0  0  0  0  0
    1.9655   -0.4359    2.3004 C   0  0  0  0  0
    2.1487    2.0517    2.2267 C   0  0  0  0  0
    4.4307   -0.4256    0.7923 H   0  0  0  0  0
   -1.4592    1.1058    2.6881 H   0  0  0  0  0
   -1.8610   -4.3945   -3.6143 H   0  0  0  0  0
   -2.9909   -4.4775   -7.5426 H   0  0  0  0  0
   -3.7781   -1.9810   -6.6662 H   0  0  0  0  0
   -3.2844   -2.0587   -2.7910 H   0  0  0  0  0
    3.7413    2.2168    0.0211 H   0  0  0  0  0
   -0.3688   -0.0879    1.1357 H   0  0  0  0  0
    2.2445   -0.4018   -0.2248 H   0  0  0  0  0
   -0.8543    2.8584    1.1180 H   0  0  0  0  0
    0.1850   -0.5840   -0.8101 H   0  0  0  0  0
    5.9643   -0.6888   -2.9160 H   0  0  0  0  0
    4.8341   -2.0597   -2.9438 H   0  0  0  0  0
    4.3752   -0.5455   -3.7508 H   0  0  0  0  0
   -0.2404   -2.0213   -4.1950 H   0  0  0  0  0
   -0.7834   -2.1913   -2.5301 H   0  0  0  0  0
   -2.4146    0.9842    0.2486 H   0  0  0  0  0
   -2.2013    2.4343   -0.7416 H   0  0  0  0  0
    0.8046    0.1300   -3.6797 H   0  0  0  0  0
    1.4559   -1.1544   -2.6763 H   0  0  0  0  0
    1.2374    2.3509   -3.0536 H   0  0  0  0  0
    2.6396    2.7392   -2.0784 H   0  0  0  0  0
    2.5607    1.1882   -2.9151 H   0  0  0  0  0
   -0.9212    1.0020   -4.7779 H   0  0  0  0  0
   -1.2368   -0.4372   -5.7464 H   0  0  0  0  0
   -2.5541    0.6481   -5.3057 H   0  0  0  0  0
   -4.0591    0.4442   -1.4702 H   0  0  0  0  0
   -3.6395    1.8689   -2.4652 H   0  0  0  0  0
    1.5421   -0.3845    3.3096 H   0  0  0  0  0
    3.0448   -0.5553    2.4188 H   0  0  0  0  0
    1.5816   -1.3472    1.8285 H   0  0  0  0  0
    1.6605    2.1790    3.1993 H   0  0  0  0  0
    3.2165    1.9580    2.4444 H   0  0  0  0  0
    2.0108    2.9762    1.6753 H   0  0  0  0  0
  1  9  1  0  0  0
  1 10  1  0  0  0
  2 13  1  0  0  0
  2 22  1  0  0  0
  3 14  1  0  0  0
  3 36  1  0  0  0
  4 15  1  0  0  0
  4 37  1  0  0  0
  5 21  2  0  0  0
  6 22  2  0  0  0
  7 23  2  0  0  0
  8 21  1  0  0  0
  8 24  1  0  0  0
  9 11  2  0  0  0
  9 38  1  0  0  0
 10 12  2  0  0  0
 10 39  1  0  0  0
 11 12  1  0  0  0
 11 13  1  0  0  0
 12 40  1  0  0  0
 13 18  1  0  0  0
 13 41  1  0  0  0
 14 17  1  0  0  0
 14 21  1  0  0  0
 14 42  1  0  0  0
 15 19  1  0  0  0
 15 25  1  0  0  0
 15 43  1  0  0  0
 16 17  1  0  0  0
 16 20  1  0  0  0
 16 23  1  0  0  0
 16 31  1  0  0  0
 17 25  1  0  0  0
 17 44  1  0  0  0
 18 26  1  0  0  0
 18 28  1  0  0  0
 18 32  1  0  0  0
 19 23  1  0  0  0
 19 29  1  0  0  0
 19 45  1  0  0  0
 20 27  1  0  0  0
 20 30  1  0  0  0
 20 46  1  0  0  0
 22 33  1  0  0  0
 24 47  1  0  0  0
 24 48  1  0  0  0
 24 49  1  0  0  0
 25 34  1  0  0  0
 25 35  1  0  0  0
 26 27  2  0  0  0
 26 33  1  0  0  0
 27 29  1  0  0  0
 28 30  1  0  0  0
 28 50  1  0  0  0
 28 51  1  0  0  0
 29 52  1  0  0  0
 29 53  1  0  0  0
 30 54  1  0  0  0
 30 55  1  0  0  0
 31 56  1  0  0  0
 31 57  1  0  0  0
 31 58  1  0  0  0
 32 59  1  0  0  0
 32 60  1  0  0  0
 32 61  1  0  0  0
 33 62  1  0  0  0
 33 63  1  0  0  0
 34 64  1  0  0  0
 34 65  1  0  0  0
 34 66  1  0  0  0
 35 67  1  0  0  0
 35 68  1  0  0  0
 35 69  1  0  0  0
M  END
> <Tumorigenic>
none

> <Score>
37.067993

> <Active/Decoy>
active

> <InChI>
InChI=1S/C27H34O8/c1-25(2)20(19(29)24(32)33-5)27(4)16-6-8-26(3)17(14(16)10-15(21(25)30)22(27)31)11-18(28)35-23(26)13-7-9-34-12-13/h7,9,12,15-16,19-21,23,29-30H,6,8,10-11H2,1-5H3/t15-,16+,19+,20-,21-,23-,26+,27+/m0/s1

> <Matching Features>
H:14924486185440016873||HBA:14924321692640012300|HBA:14924486112070016868

> <Mol. Index>
360

> <Pharmacophore Match>
Model -1

> <# Confs.>
14

> <Source Database>
Pharm-Screening-input-EANPDB_After_DataWarror.ldb

> <Pharmacophore-Fit Score>
37.07

> <formula>
C27H34O8

> <Mutagenic>
none

> <Reproductive Effective>
none

> <Irritant>
none

$$$$
homonataloin
XX    ILIB03122411353D

 55 58  0  0  1  0              1 V2000
   -3.9716   -1.2414   -3.5304 O   0  0  0  0  0
   -5.6446    0.9486   -3.8630 O   0  0  0  0  0
   -0.2986   -3.1840   -0.9135 O   0  0  0  0  0
    1.8365    2.2947   -2.3397 O   0  0  0  0  0
   -1.2018    2.9138   -4.3155 O   0  0  0  0  0
    0.7236    4.7512   -5.4495 O   0  0  0  0  0
    3.4126    3.7336   -5.3426 O   0  0  0  0  0
   -1.4529   -1.9885   -3.0173 O   0  0  0  0  0
    4.4348    1.4699   -1.8494 O   0  0  0  0  0
   -3.5379    0.0208   -3.2139 C   0  0  0  0  0
   -4.3834    1.1258   -3.3630 C   0  0  0  0  0
    0.1159   -1.9235   -0.5828 C   0  0  0  0  0
    0.0426    0.4832   -0.9165 C   0  0  0  0  0
   -1.8353    1.4757   -2.2544 C   0  0  0  0  0
   -2.2714    0.1956   -2.6339 C   0  0  0  0  0
   -0.3728   -0.8132   -1.2805 C   0  0  0  0  0
    1.4230   -0.4723    0.8517 C   0  0  0  0  0
    1.0073   -1.7544    0.4788 C   0  0  0  0  0
   -3.9639    2.3978   -2.9794 C   0  0  0  0  0
    0.9254    0.6369    0.1557 C   0  0  0  0  0
   -2.6939    2.5712   -2.4317 C   0  0  0  0  0
    0.5481    2.0113   -2.8598 C   0  0  2  0  0
    0.0622    3.2033   -3.7249 C   0  0  1  0  0
    1.0734    3.5135   -4.8292 C   0  0  2  0  0
    2.4876    3.6397   -4.2614 C   0  0  1  0  0
    2.8314    2.4474   -3.3565 C   0  0  1  0  0
   -0.4159    1.6890   -1.7086 C   0  0  2  0  0
   -1.3683   -0.9535   -2.3705 C   0  0  0  0  0
    4.1640    2.6181   -2.6476 C   0  0  0  0  0
   -4.8502   -1.1775   -4.6533 C   0  0  0  0  0
    2.3440   -0.2799    2.0179 C   0  0  0  0  0
   -6.0963    1.8098   -3.8856 H   0  0  0  0  0
    0.1350   -3.8222   -0.3230 H   0  0  0  0  0
   -1.1038    2.1101   -4.8538 H   0  0  0  0  0
   -0.1851    4.6615   -5.7831 H   0  0  0  0  0
    3.3751    2.8995   -5.8410 H   0  0  0  0  0
    3.7050    1.3811   -1.2127 H   0  0  0  0  0
    1.3728   -2.6202    1.0250 H   0  0  0  0  0
   -4.6163    3.2587   -3.0969 H   0  0  0  0  0
    1.2408    1.6358    0.4492 H   0  0  0  0  0
   -2.3762    3.5704   -2.1441 H   0  0  0  0  0
    0.6019    1.1218   -3.5059 H   0  0  0  0  0
   -0.0680    4.1004   -3.1084 H   0  0  0  0  0
    1.0401    2.7515   -5.6170 H   0  0  0  0  0
    2.5627    4.5759   -3.6951 H   0  0  0  0  0
    2.8849    1.5304   -3.9586 H   0  0  0  0  0
   -0.4805    2.5445   -1.0210 H   0  0  0  0  0
    4.1640    3.4915   -1.9873 H   0  0  0  0  0
    4.9808    2.7179   -3.3674 H   0  0  0  0  0
   -4.3448   -0.7632   -5.5327 H   0  0  0  0  0
   -5.1614   -2.1996   -4.8937 H   0  0  0  0  0
   -5.7488   -0.5958   -4.4189 H   0  0  0  0  0
    3.0256    0.5587    1.8408 H   0  0  0  0  0
    1.7641   -0.0821    2.9239 H   0  0  0  0  0
    2.9612   -1.1694    2.1845 H   0  0  0  0  0
  1 10  1  0  0  0
  1 30  1  0  0  0
  2 11  1  0  0  0
  2 32  1  0  0  0
  3 12  1  0  0  0
  3 33  1  0  0  0
  4 22  1  0  0  0
  4 26  1  0  0  0
  5 23  1  0  0  0
  5 34  1  0  0  0
  6 24  1  0  0  0
  6 35  1  0  0  0
  7 25  1  0  0  0
  7 36  1  0  0  0
  8 28  2  0  0  0
  9 29  1  0  0  0
  9 37  1  0  0  0
 10 11  1  0  0  0
 10 15  2  0  0  0
 11 19  2  0  0  0
 12 16  2  0  0  0
 12 18  1  0  0  0
 13 16  1  0  0  0
 13 20  2  0  0  0
 13 27  1  0  0  0
 14 15  1  0  0  0
 14 21  2  0  0  0
 14 27  1  0  0  0
 15 28  1  0  0  0
 16 28  1  0  0  0
 17 18  2  0  0  0
 17 20  1  0  0  0
 17 31  1  0  0  0
 18 38  1  0  0  0
 19 21  1  0  0  0
 19 39  1  0  0  0
 20 40  1  0  0  0
 21 41  1  0  0  0
 22 23  1  0  0  0
 22 27  1  0  0  0
 22 42  1  0  0  0
 23 24  1  0  0  0
 23 43  1  0  0  0
 24 25  1  0  0  0
 24 44  1  0  0  0
 25 26  1  0  0  0
 25 45  1  0  0  0
 26 29  1  0  0  0
 26 46  1  0  0  0
 27 47  1  0  0  0
 29 48  1  0  0  0
 29 49  1  0  0  0
 30 50  1  0  0  0
 30 51  1  0  0  0
 30 52  1  0  0  0
 31 53  1  0  0  0
 31 54  1  0  0  0
 31 55  1  0  0  0
M  END
> <Tumorigenic>
none

> <Score>
36.85875

> <Active/Decoy>
active

> <InChI>
InChI=1S/C22H24O9/c1-8-5-10-14(22-20(29)19(28)17(26)13(7-23)31-22)9-3-4-11(24)21(30-2)16(9)18(27)15(10)12(25)6-8/h3-6,13-14,17,19-20,22-26,28-29H,7H2,1-2H3/t13-,14+,17-,19+,20-,22+/m1/s1

> <Matching Features>
H:14924486185440016873||HBA:14924321692640012300|HBA:14924486112070016868

> <Mol. Index>
76

> <Pharmacophore Match>
Model -1

> <# Confs.>
4

> <Source Database>
Pharm-Screening-input-EANPDB_After_DataWarror.ldb

> <Pharmacophore-Fit Score>
36.86

> <formula>
C22H24O9

> <Mutagenic>
none

> <Reproductive Effective>
none

> <Irritant>
none

$$$$
norcaesalpin D
XX    ILIB03122411353D

 63 66  0  0  1  0              1 V2000
   -2.0268   -1.7463   -2.8613 O   0  0  0  0  0
   -4.3018   -0.5726   -3.9718 O   0  0  0  0  0
   -2.3868   -2.3442   -0.2755 O   0  0  0  0  0
   -1.7281   -1.1725   -5.0776 O   0  0  0  0  0
   -6.0661    0.9160   -3.9189 O   0  0  0  0  0
    5.0013    1.5896   -1.9723 O   0  0  0  0  0
    2.8199    0.9779   -2.3721 O   0  0  0  0  0
   -2.3600   -0.3865   -2.5025 C   0  0  1  0  0
   -2.7117   -0.9561   -0.0013 C   0  0  1  0  0
   -3.8849   -0.2251   -2.6469 C   0  0  2  0  0
   -1.8567   -0.0938   -1.0399 C   0  0  1  0  0
   -0.3281   -0.5121   -0.8555 C   0  0  2  0  0
    0.1639   -0.2517    0.6161 C   0  0  2  0  0
    1.6725   -0.6343    0.7811 C   0  0  1  0  0
   -1.7353   -1.9917   -4.1687 C   0  0  0  0  0
   -5.4014    0.0531   -4.4758 C   0  0  0  0  0
    3.9496    1.0893   -1.6029 C   0  0  0  0  0
    1.9040    0.3764   -1.5310 C   0  0  0  0  0
    2.4866    0.0721   -0.2711 C   0  0  0  0  0
    0.6326    0.1156   -1.8529 C   0  0  0  0  0
   -4.2847   -0.8540   -0.1693 C   0  0  0  0  0
   -2.2261   -0.6899    1.4401 C   0  0  0  0  0
   -4.6638   -1.0882   -1.6553 C   0  0  0  0  0
   -0.7334   -0.9768    1.6301 C   0  0  0  0  0
   -1.9582    1.4436   -0.8180 C   0  0  0  0  0
    2.1972   -0.3660    2.1956 C   0  0  0  0  0
    3.7375    0.5168   -0.2696 C   0  0  0  0  0
   -1.4354   -3.4489   -4.3527 C   0  0  0  0  0
   -5.6975   -0.4770   -5.8467 C   0  0  0  0  0
   -5.0233   -1.9596    0.6404 C   0  0  0  0  0
   -4.8891    0.4768    0.3266 C   0  0  0  0  0
   -2.6026   -2.8762    0.5089 H   0  0  0  0  0
   -1.8766    0.2918   -3.2077 H   0  0  0  0  0
   -4.1720    0.8315   -2.4776 H   0  0  0  0  0
   -0.2478   -1.5924   -1.0391 H   0  0  0  0  0
    0.0864    0.8249    0.8263 H   0  0  0  0  0
    1.7665   -1.7139    0.5940 H   0  0  0  0  0
    0.2934    0.3463   -2.8559 H   0  0  0  0  0
   -2.7578   -1.3344    2.1496 H   0  0  0  0  0
   -2.4352    0.3394    1.7478 H   0  0  0  0  0
   -5.7398   -0.9207   -1.8037 H   0  0  0  0  0
   -4.5117   -2.1425   -1.9239 H   0  0  0  0  0
   -0.5560   -2.0578    1.5695 H   0  0  0  0  0
   -0.4710   -0.6769    2.6505 H   0  0  0  0  0
   -2.8918    1.8730   -1.1770 H   0  0  0  0  0
   -1.1789    1.9751   -1.3756 H   0  0  0  0  0
   -1.8516    1.7340    0.2283 H   0  0  0  0  0
    3.2610   -0.6114    2.2815 H   0  0  0  0  0
    1.6818   -0.9836    2.9370 H   0  0  0  0  0
    2.0668    0.6850    2.4764 H   0  0  0  0  0
    4.4776    0.4675    0.5095 H   0  0  0  0  0
   -0.6935   -3.7724   -3.6186 H   0  0  0  0  0
   -2.3547   -4.0298   -4.2505 H   0  0  0  0  0
   -1.0179   -3.6108   -5.3498 H   0  0  0  0  0
   -4.7917   -0.4585   -6.4584 H   0  0  0  0  0
   -6.0891   -1.4943   -5.7724 H   0  0  0  0  0
   -6.4447    0.1601   -6.3293 H   0  0  0  0  0
   -4.7347   -2.9683    0.3270 H   0  0  0  0  0
   -6.1083   -1.8901    0.4962 H   0  0  0  0  0
   -4.8376   -1.8705    1.7144 H   0  0  0  0  0
   -5.9835    0.4553    0.2506 H   0  0  0  0  0
   -4.6519    0.6611    1.3789 H   0  0  0  0  0
   -4.5725    1.3440   -0.2472 H   0  0  0  0  0
  1  8  1  0  0  0
  1 15  1  0  0  0
  2 10  1  0  0  0
  2 16  1  0  0  0
  3  9  1  0  0  0
  3 32  1  0  0  0
  4 15  2  0  0  0
  5 16  2  0  0  0
  6 17  2  0  0  0
  7 17  1  0  0  0
  7 18  1  0  0  0
  8 10  1  0  0  0
  8 11  1  0  0  0
  8 33  1  0  0  0
  9 11  1  0  0  0
  9 21  1  0  0  0
  9 22  1  0  0  0
 10 23  1  0  0  0
 10 34  1  0  0  0
 11 12  1  0  0  0
 11 25  1  0  0  0
 12 13  1  0  0  0
 12 20  1  0  0  0
 12 35  1  0  0  0
 13 14  1  0  0  0
 13 24  1  0  0  0
 13 36  1  0  0  0
 14 19  1  0  0  0
 14 26  1  0  0  0
 14 37  1  0  0  0
 15 28  1  0  0  0
 16 29  1  0  0  0
 17 27  1  0  0  0
 18 19  1  0  0  0
 18 20  2  0  0  0
 19 27  2  0  0  0
 20 38  1  0  0  0
 21 23  1  0  0  0
 21 30  1  0  0  0
 21 31  1  0  0  0
 22 24  1  0  0  0
 22 39  1  0  0  0
 22 40  1  0  0  0
 23 41  1  0  0  0
 23 42  1  0  0  0
 24 43  1  0  0  0
 24 44  1  0  0  0
 25 45  1  0  0  0
 25 46  1  0  0  0
 25 47  1  0  0  0
 26 48  1  0  0  0
 26 49  1  0  0  0
 26 50  1  0  0  0
 27 51  1  0  0  0
 28 52  1  0  0  0
 28 53  1  0  0  0
 28 54  1  0  0  0
 29 55  1  0  0  0
 29 56  1  0  0  0
 29 57  1  0  0  0
 30 58  1  0  0  0
 30 59  1  0  0  0
 30 60  1  0  0  0
 31 61  1  0  0  0
 31 62  1  0  0  0
 31 63  1  0  0  0
M  END
> <Tumorigenic>
none

> <Score>
36.56711

> <Active/Decoy>
active

> <InChI>
InChI=1S/C24H32O7/c1-12-15-7-8-24(28)22(4,5)11-19(29-13(2)25)21(30-14(3)26)23(24,6)17(15)10-18-16(12)9-20(27)31-18/h9-10,12,15,17,19,21,28H,7-8,11H2,1-6H3/t12-,15-,17-,19-,21-,23-,24+/m0/s1

> <Matching Features>
H:14924486185440016873||HBA:14924321692640012300|HBA:14924486112070016868

> <Mol. Index>
124

> <Pharmacophore Match>
Model -1

> <# Confs.>
3

> <Source Database>
Pharm-Screening-input-EANPDB_After_DataWarror.ldb

> <Pharmacophore-Fit Score>
36.57

> <formula>
C24H32O7

> <Mutagenic>
none

> <Reproductive Effective>
none

> <Irritant>
none

$$$$
microdontin B
XX    ILIB03122411353D

 70 74  0  0  1  0              1 V2000
    3.9804    5.9671    0.9392 O   0  0  0  0  0
    0.4010    2.4075    1.4395 O   0  0  0  0  0
   -5.7530    0.8899   -3.7459 O   0  0  0  0  0
    4.6738    1.4211   -1.6421 O   0  0  0  0  0
    5.9665   -1.6354   -0.0569 O   0  0  0  0  0
    4.9538   -2.5723   -2.6005 O   0  0  0  0  0
    5.1972   -0.5981   -4.6780 O   0  0  0  0  0
    2.2351    3.9613    0.3270 O   0  0  0  0  0
    2.8374    1.8923   -3.6196 O   0  0  0  0  0
    9.2446    4.8309   -0.0279 O   0  0  0  0  0
    4.8727    4.9303    0.9512 C   0  0  0  0  0
    1.3831    1.4550    1.4553 C   0  0  0  0  0
   -4.4368    1.1320   -4.0107 C   0  0  0  0  0
    5.4794    2.5841    0.8887 C   0  0  0  0  0
    3.7017    0.8046    1.1451 C   0  0  0  0  0
    4.4965    3.5835    0.8548 C   0  0  0  0  0
    2.7008    1.7871    1.1107 C   0  0  0  0  0
    7.2053    4.2966    1.1333 C   0  0  0  0  0
   -1.7497    1.6756   -4.5967 C   0  0  0  0  0
    6.2173    5.2830    1.0836 C   0  0  0  0  0
    1.0584    0.1535    1.8399 C   0  0  0  0  0
   -4.1206    2.1319   -4.9233 C   0  0  0  0  0
   -3.4328    0.3976   -3.3871 C   0  0  0  0  0
    6.8287    2.9535    1.0284 C   0  0  0  0  0
    3.3620   -0.4976    1.5448 C   0  0  0  0  0
   -2.7814    2.4014   -5.2147 C   0  0  0  0  0
   -2.0942    0.6687   -3.6806 C   0  0  0  0  0
    2.0499   -0.8211    1.8896 C   0  0  0  0  0
    5.4410    0.6472   -0.7114 C   0  0  2  0  0
    5.1585   -0.8470   -0.9295 C   0  0  1  0  0
    5.4435   -1.2498   -2.3763 C   0  0  2  0  0
    4.7483   -0.3046   -3.3576 C   0  0  1  0  0
    5.0255    1.1592   -3.0100 C   0  0  1  0  0
    5.1268    1.1174    0.7250 C   0  0  1  0  0
    3.0777    3.1703    0.7299 C   0  0  0  0  0
    8.6501    4.6696    1.2519 C   0  0  0  0  0
    4.2121    2.1312   -3.8674 C   0  0  0  0  0
    1.9908    2.7461   -4.3971 C   0  0  0  0  0
   -0.3600    1.9954   -4.9440 C   0  0  0  0  0
    0.5720    2.4218   -4.0641 C   0  0  0  0  0
    3.0775    5.6143    0.8887 H   0  0  0  0  0
   -0.4377    1.9999    1.7119 H   0  0  0  0  0
   -5.8109    0.1710   -3.0931 H   0  0  0  0  0
    6.8978   -1.4233   -0.2394 H   0  0  0  0  0
    5.3871   -3.1546   -1.9541 H   0  0  0  0  0
    6.1498   -0.4067   -4.7184 H   0  0  0  0  0
    8.6599    5.3934   -0.5648 H   0  0  0  0  0
    6.4931    6.3327    1.1553 H   0  0  0  0  0
    0.0401   -0.1085    2.1124 H   0  0  0  0  0
   -4.9021    2.7059   -5.4119 H   0  0  0  0  0
   -3.6747   -0.3854   -2.6750 H   0  0  0  0  0
    7.5960    2.1823    1.0457 H   0  0  0  0  0
    4.1217   -1.2754    1.5877 H   0  0  0  0  0
   -2.5527    3.1875   -5.9308 H   0  0  0  0  0
   -1.3301    0.0770   -3.1820 H   0  0  0  0  0
    1.8030   -1.8331    2.1959 H   0  0  0  0  0
    6.5083    0.8405   -0.8958 H   0  0  0  0  0
    4.1129   -1.0838   -0.7005 H   0  0  0  0  0
    6.5221   -1.2815   -2.5703 H   0  0  0  0  0
    3.6689   -0.4989   -3.3363 H   0  0  0  0  0
    6.0907    1.3856   -3.1564 H   0  0  0  0  0
    5.7716    0.5598    1.4217 H   0  0  0  0  0
    9.2067    3.9005    1.7979 H   0  0  0  0  0
    8.7658    5.6062    1.8105 H   0  0  0  0  0
    4.4399    1.9750   -4.9202 H   0  0  0  0  0
    4.4501    3.1696   -3.5861 H   0  0  0  0  0
    2.1702    2.5941   -5.4585 H   0  0  0  0  0
    2.2166    3.7984   -4.1439 H   0  0  0  0  0
   -0.1036    1.8692   -5.9924 H   0  0  0  0  0
    0.3034    2.5409   -3.0243 H   0  0  0  0  0
  1 11  1  0  0  0
  1 41  1  0  0  0
  2 12  1  0  0  0
  2 42  1  0  0  0
  3 13  1  0  0  0
  3 43  1  0  0  0
  4 29  1  0  0  0
  4 33  1  0  0  0
  5 30  1  0  0  0
  5 44  1  0  0  0
  6 31  1  0  0  0
  6 45  1  0  0  0
  7 32  1  0  0  0
  7 46  1  0  0  0
  8 35  2  0  0  0
  9 37  1  0  0  0
  9 38  1  0  0  0
 10 36  1  0  0  0
 10 47  1  0  0  0
 11 16  2  0  0  0
 11 20  1  0  0  0
 12 17  2  0  0  0
 12 21  1  0  0  0
 13 22  2  0  0  0
 13 23  1  0  0  0
 14 16  1  0  0  0
 14 24  2  0  0  0
 14 34  1  0  0  0
 15 17  1  0  0  0
 15 25  2  0  0  0
 15 34  1  0  0  0
 16 35  1  0  0  0
 17 35  1  0  0  0
 18 20  2  0  0  0
 18 24  1  0  0  0
 18 36  1  0  0  0
 19 26  2  0  0  0
 19 27  1  0  0  0
 19 39  1  0  0  0
 20 48  1  0  0  0
 21 28  2  0  0  0
 21 49  1  0  0  0
 22 26  1  0  0  0
 22 50  1  0  0  0
 23 27  2  0  0  0
 23 51  1  0  0  0
 24 52  1  0  0  0
 25 28  1  0  0  0
 25 53  1  0  0  0
 26 54  1  0  0  0
 27 55  1  0  0  0
 28 56  1  0  0  0
 29 30  1  0  0  0
 29 34  1  0  0  0
 29 57  1  0  0  0
 30 31  1  0  0  0
 30 58  1  0  0  0
 31 32  1  0  0  0
 31 59  1  0  0  0
 32 33  1  0  0  0
 32 60  1  0  0  0
 33 37  1  0  0  0
 33 61  1  0  0  0
 34 62  1  0  0  0
 36 63  1  0  0  0
 36 64  1  0  0  0
 37 65  1  0  0  0
 37 66  1  0  0  0
 38 40  1  0  0  0
 38 67  1  0  0  0
 38 68  1  0  0  0
 39 40  2  0  0  0
 39 69  1  0  0  0
 40 70  1  0  0  0
M  END
> <Tumorigenic>
none

> <Score>
36.570816

> <Active/Decoy>
active

> <InChI>
InChI=1S/C30H30O10/c31-13-16-11-19-23(18-4-1-5-20(33)24(18)27(36)25(19)21(34)12-16)30-29(38)28(37)26(35)22(40-30)14-39-10-2-3-15-6-8-17(32)9-7-15/h1-9,11-12,22-23,26,28-35,37-38H,10,13-14H2/b3-2+/t22-,23-,26-,28+,29-,30+/m1/s1

> <Matching Features>
H:14924486185440016873||HBA:14924321692640012300|HBA:14924486112070016868

> <Mol. Index>
64

> <Pharmacophore Match>
Model -1

> <# Confs.>
25

> <Source Database>
Pharm-Screening-input-EANPDB_After_DataWarror.ldb

> <Pharmacophore-Fit Score>
36.57

> <formula>
C30H30O10

> <Mutagenic>
none

> <Reproductive Effective>
none

> <Irritant>
none

$$$$
turraparvin D
XX    ILIB03122411353D

 71 75  0  0  1  0              1 V2000
   -2.3329   -2.5900   -1.3106 O   0  0  0  0  0
   -0.6680    3.0980   -0.9851 O   0  0  0  0  0
   -2.1525   -3.9275    0.5648 O   0  0  0  0  0
   -5.4844    0.8251   -3.4867 O   0  0  0  0  0
    4.9166    1.5448   -1.8838 O   0  0  0  0  0
   -6.3088   -1.3313   -3.8767 N   0  0  0  0  0
   -2.0601   -1.4373   -0.5215 C   0  0  2  0  0
   -0.5312    2.6127    0.3474 C   0  0  1  0  0
   -1.0419    1.1510    0.4291 C   0  0  2  0  0
   -2.7535   -0.2030   -1.1159 C   0  0  1  0  0
    1.4926    0.3299    0.2398 C   0  0  2  0  0
   -0.0027    0.2087   -0.2605 C   0  0  1  0  0
    1.9910    1.8267    0.2413 C   0  0  2  0  0
   -4.3083   -0.2260   -0.9358 C   0  0  2  0  0
   -2.3432   -3.7737   -0.6339 C   0  0  0  0  0
   -5.6341   -0.3453   -3.1767 C   0  0  0  0  0
    3.8089    1.2580   -1.4307 C   0  0  0  0  0
   -6.2709   -2.5972   -3.2103 C   0  0  0  0  0
   -2.4000    1.0120   -0.2704 C   0  0  0  0  0
   -0.5175   -1.2574   -0.4004 C   0  0  0  0  0
    0.9223    2.8023    0.8044 C   0  0  0  0  0
   -5.1060   -0.9754   -1.9422 C   0  0  0  0  0
    2.3880   -0.5520   -0.6205 C   0  0  0  0  0
    2.7614    2.3111   -1.0443 C   0  0  0  0  0
   -4.6810    1.2669   -0.7991 C   0  0  0  0  0
   -1.2942    0.7858    1.9147 C   0  0  0  0  0
   -2.3784    0.0178   -2.6069 C   0  0  0  0  0
    1.7003   -0.2303    1.6749 C   0  0  0  0  0
    3.4378   -0.1650   -1.3462 C   0  0  0  0  0
   -5.4777   -2.2620   -1.9979 C   0  0  0  0  0
   -3.4634    1.8241   -0.1413 C   0  0  0  0  0
   -2.6316   -4.8945   -1.5868 C   0  0  0  0  0
    3.5299    3.6220   -0.7413 C   0  0  0  0  0
    1.9220    2.5545   -2.3039 C   0  0  0  0  0
   -0.4811    4.0522   -0.9694 H   0  0  0  0  0
   -6.7753   -1.1710   -4.7651 H   0  0  0  0  0
   -2.4505   -1.6060    0.4923 H   0  0  0  0  0
   -1.1646    3.2569    0.9711 H   0  0  0  0  0
    0.0483    0.5632   -1.2944 H   0  0  0  0  0
    2.7875    1.8542    1.0055 H   0  0  0  0  0
   -4.5286   -0.6864    0.0418 H   0  0  0  0  0
   -5.7729   -3.3306   -3.8490 H   0  0  0  0  0
   -7.2876   -2.9159   -2.9710 H   0  0  0  0  0
   -0.0464   -1.7075   -1.2844 H   0  0  0  0  0
   -0.1864   -1.8735    0.4415 H   0  0  0  0  0
    0.9414    2.7097    1.8983 H   0  0  0  0  0
    1.2160    3.8382    0.6094 H   0  0  0  0  0
    2.1887   -1.6222   -0.5984 H   0  0  0  0  0
   -5.5660    1.3886   -0.1663 H   0  0  0  0  0
   -4.8540    1.7737   -1.7542 H   0  0  0  0  0
   -0.5438    1.1885    2.5905 H   0  0  0  0  0
   -1.3400   -0.2953    2.0758 H   0  0  0  0  0
   -2.2409    1.2023    2.2800 H   0  0  0  0  0
   -1.3039    0.1196   -2.7702 H   0  0  0  0  0
   -2.7041   -0.8231   -3.2286 H   0  0  0  0  0
   -2.8435    0.9242   -3.0108 H   0  0  0  0  0
    2.7691   -0.3621    1.8924 H   0  0  0  0  0
    1.2322   -1.2061    1.8247 H   0  0  0  0  0
    1.3325    0.4412    2.4504 H   0  0  0  0  0
    4.0476   -0.8843   -1.8785 H   0  0  0  0  0
   -5.2377   -2.9988   -1.2442 H   0  0  0  0  0
   -3.4778    2.7391    0.4329 H   0  0  0  0  0
   -2.7394   -5.8275   -1.0269 H   0  0  0  0  0
   -3.5687   -4.7016   -2.1152 H   0  0  0  0  0
   -1.8057   -4.9992   -2.2935 H   0  0  0  0  0
    4.1948    3.5027    0.1225 H   0  0  0  0  0
    4.1573    3.9252   -1.5878 H   0  0  0  0  0
    2.8579    4.4612   -0.5406 H   0  0  0  0  0
    1.3267    3.4665   -2.2236 H   0  0  0  0  0
    1.2647    1.7162   -2.5413 H   0  0  0  0  0
    2.5669    2.6914   -3.1812 H   0  0  0  0  0
  1  7  1  0  0  0
  1 15  1  0  0  0
  2  8  1  0  0  0
  2 35  1  0  0  0
  3 15  2  0  0  0
  4 16  2  0  0  0
  5 17  2  0  0  0
  6 16  1  0  0  0
  6 18  1  0  0  0
  6 36  1  0  0  0
  7 10  1  0  0  0
  7 20  1  0  0  0
  7 37  1  0  0  0
  8  9  1  0  0  0
  8 21  1  0  0  0
  8 38  1  0  0  0
  9 12  1  0  0  0
  9 19  1  0  0  0
  9 26  1  0  0  0
 10 14  1  0  0  0
 10 19  1  0  0  0
 10 27  1  0  0  0
 11 12  1  0  0  0
 11 13  1  0  0  0
 11 23  1  0  0  0
 11 28  1  0  0  0
 12 20  1  0  0  0
 12 39  1  0  0  0
 13 21  1  0  0  0
 13 24  1  0  0  0
 13 40  1  0  0  0
 14 22  1  0  0  0
 14 25  1  0  0  0
 14 41  1  0  0  0
 15 32  1  0  0  0
 16 22  1  0  0  0
 17 24  1  0  0  0
 17 29  1  0  0  0
 18 30  1  0  0  0
 18 42  1  0  0  0
 18 43  1  0  0  0
 19 31  2  0  0  0
 20 44  1  0  0  0
 20 45  1  0  0  0
 21 46  1  0  0  0
 21 47  1  0  0  0
 22 30  2  0  0  0
 23 29  2  0  0  0
 23 48  1  0  0  0
 24 33  1  0  0  0
 24 34  1  0  0  0
 25 31  1  0  0  0
 25 49  1  0  0  0
 25 50  1  0  0  0
 26 51  1  0  0  0
 26 52  1  0  0  0
 26 53  1  0  0  0
 27 54  1  0  0  0
 27 55  1  0  0  0
 27 56  1  0  0  0
 28 57  1  0  0  0
 28 58  1  0  0  0
 28 59  1  0  0  0
 29 60  1  0  0  0
 30 61  1  0  0  0
 31 62  1  0  0  0
 32 63  1  0  0  0
 32 64  1  0  0  0
 32 65  1  0  0  0
 33 66  1  0  0  0
 33 67  1  0  0  0
 33 68  1  0  0  0
 34 69  1  0  0  0
 34 70  1  0  0  0
 34 71  1  0  0  0
M  END
> <Tumorigenic>
none

> <Score>
36.504593

> <Active/Decoy>
active

> <InChI>
InChI=1S/C28H37NO5/c1-15(30)34-23-14-20-26(4)11-9-21(31)25(2,3)19(26)13-22(32)28(20,6)18-8-7-17(27(18,23)5)16-10-12-29-24(16)33/h8-11,17,19-20,22-23,32H,7,12-14H2,1-6H3,(H,29,33)/t17-,19+,20+,22+,23-,26-,27-,28-/m0/s1

> <Matching Features>
H:14924486185440016873||HBA:14924321692640012300|HBA:14924486112070016868

> <Mol. Index>
364

> <Pharmacophore Match>
Model -1

> <# Confs.>
4

> <Source Database>
Pharm-Screening-input-EANPDB_After_DataWarror.ldb

> <Pharmacophore-Fit Score>
36.5

> <formula>
C28H37NO5

> <Mutagenic>
none

> <Reproductive Effective>
none

> <Irritant>
none

$$$$
3beta,16beta,20(S),25-tetrahydroxydammar-23-ene
XX    ILIB03122411353D

 83 86  0  0  1  0              1 V2000
   -6.0955    0.9301   -3.9655 O   0  0  0  0  0
    1.5798    1.5924    1.0747 O   0  0  0  0  0
   -0.3643   -1.5312    3.8016 O   0  0  0  0  0
    4.9387    1.5696   -1.9411 O   0  0  0  0  0
   -5.6985    1.2709   -2.6358 C   0  0  2  0  0
    1.1857    0.2418    1.3258 C   0  0  1  0  0
   -0.7101   -1.1449    2.4801 C   0  0  2  0  0
   -0.1511    0.2635    2.1312 C   0  0  2  0  0
   -2.4208   -0.0870    1.1439 C   0  0  2  0  0
   -5.2138    2.5098   -0.0792 C   0  0  2  0  0
   -1.3772    0.9923    1.5239 C   0  0  2  0  0
   -3.8082    0.6214    1.0844 C   0  0  1  0  0
   -3.8128    1.7727    0.0321 C   0  0  2  0  0
   -6.4411    1.5054   -0.1646 C   0  0  1  0  0
    4.2118    0.3774   -2.2496 C   0  0  0  0  0
   -6.8584    1.0590   -1.6363 C   0  0  0  0  0
   -5.1452    2.6984   -2.6522 C   0  0  0  0  0
   -2.2376   -1.0522    2.3245 C   0  0  0  0  0
    1.1349   -0.5148    0.0100 C   0  0  0  0  0
   -5.2439    3.4339   -1.3194 C   0  0  0  0  0
   -1.2481    2.0527    0.4448 C   0  0  0  0  0
   -2.6108    2.7408    0.2448 C   0  0  0  0  0
   -4.9666   -0.3451    0.8260 C   0  0  0  0  0
   -6.3018    0.3791    0.8810 C   0  0  0  0  0
    2.2893   -0.3601    2.2110 C   0  0  0  0  0
   -2.1137   -0.8449   -0.1725 C   0  0  0  0  0
   -5.4379    3.4242    1.1584 C   0  0  0  0  0
    2.8883    0.3554   -1.5454 C   0  0  0  0  0
    2.4757   -0.5691   -0.6637 C   0  0  0  0  0
    3.9971    0.3622   -3.7640 C   0  0  0  0  0
    5.0632   -0.8225   -1.8257 C   0  0  0  0  0
   -7.3403   -0.4097   -1.7335 C   0  0  0  0  0
   -8.0928    1.9001   -2.0838 C   0  0  0  0  0
   -5.3174    1.0360   -4.5389 H   0  0  0  0  0
    0.9365    2.0013    0.4829 H   0  0  0  0  0
   -0.7325   -0.8718    4.4140 H   0  0  0  0  0
    5.1733    1.5469   -0.9978 H   0  0  0  0  0
   -4.8959    0.5676   -2.3849 H   0  0  0  0  0
   -0.3118   -1.9106    1.8067 H   0  0  0  0  0
    0.0833    0.7718    3.0794 H   0  0  0  0  0
   -1.7902    1.5339    2.3937 H   0  0  0  0  0
   -3.9846    1.0711    2.0716 H   0  0  0  0  0
   -3.6220    1.3035   -0.9348 H   0  0  0  0  0
   -7.3134    2.0664    0.1975 H   0  0  0  0  0
   -5.6421    3.2964   -3.4276 H   0  0  0  0  0
   -4.0943    2.6538   -2.9686 H   0  0  0  0  0
   -2.6958   -0.6613    3.2412 H   0  0  0  0  0
   -2.6779   -2.0398    2.1478 H   0  0  0  0  0
    0.8029   -1.5553    0.1955 H   0  0  0  0  0
    0.3947   -0.0635   -0.6395 H   0  0  0  0  0
   -6.1738    4.0133   -1.3083 H   0  0  0  0  0
   -4.4553    4.1950   -1.2737 H   0  0  0  0  0
   -0.8982    1.6321   -0.5025 H   0  0  0  0  0
   -0.5244    2.8183    0.7443 H   0  0  0  0  0
   -2.7879    3.3591    1.1311 H   0  0  0  0  0
   -2.5215    3.4255   -0.6044 H   0  0  0  0  0
   -4.9672   -1.1376    1.5832 H   0  0  0  0  0
   -4.8545   -0.8338   -0.1447 H   0  0  0  0  0
   -7.1205   -0.3414    0.8082 H   0  0  0  0  0
   -6.4128    0.8142    1.8830 H   0  0  0  0  0
    3.2594   -0.2946    1.7142 H   0  0  0  0  0
    2.3893    0.1946    3.1509 H   0  0  0  0  0
    2.1044   -1.4125    2.4479 H   0  0  0  0  0
   -2.8460   -1.6395   -0.3481 H   0  0  0  0  0
   -1.1446   -1.3437   -0.1602 H   0  0  0  0  0
   -2.1191   -0.1946   -1.0499 H   0  0  0  0  0
   -5.3352    2.8798    2.1009 H   0  0  0  0  0
   -6.4409    3.8688    1.1453 H   0  0  0  0  0
   -4.7362    4.2639    1.1774 H   0  0  0  0  0
    2.2112    1.1746   -1.7824 H   0  0  0  0  0
    3.1289   -1.3964   -0.3987 H   0  0  0  0  0
    4.9555    0.4031   -4.2930 H   0  0  0  0  0
    3.4276    1.2412   -4.0874 H   0  0  0  0  0
    3.4594   -0.5343   -4.0906 H   0  0  0  0  0
    5.2346   -0.8204   -0.7425 H   0  0  0  0  0
    4.5914   -1.7735   -2.0951 H   0  0  0  0  0
    6.0522   -0.7808   -2.2927 H   0  0  0  0  0
   -6.5408   -1.1191   -1.5028 H   0  0  0  0  0
   -7.6877   -0.6520   -2.7443 H   0  0  0  0  0
   -8.1845   -0.6027   -1.0623 H   0  0  0  0  0
   -8.4188    1.6319   -3.0947 H   0  0  0  0  0
   -7.8959    2.9741   -2.0829 H   0  0  0  0  0
   -8.9435    1.7268   -1.4149 H   0  0  0  0  0
  1  5  1  0  0  0
  1 34  1  0  0  0
  2  6  1  0  0  0
  2 35  1  0  0  0
  3  7  1  0  0  0
  3 36  1  0  0  0
  4 15  1  0  0  0
  4 37  1  0  0  0
  5 16  1  0  0  0
  5 17  1  0  0  0
  5 38  1  0  0  0
  6  8  1  0  0  0
  6 19  1  0  0  0
  6 25  1  0  0  0
  7  8  1  0  0  0
  7 18  1  0  0  0
  7 39  1  0  0  0
  8 11  1  0  0  0
  8 40  1  0  0  0
  9 11  1  0  0  0
  9 12  1  0  0  0
  9 18  1  0  0  0
  9 26  1  0  0  0
 10 13  1  0  0  0
 10 14  1  0  0  0
 10 20  1  0  0  0
 10 27  1  0  0  0
 11 21  1  0  0  0
 11 41  1  0  0  0
 12 13  1  0  0  0
 12 23  1  0  0  0
 12 42  1  0  0  0
 13 22  1  0  0  0
 13 43  1  0  0  0
 14 16  1  0  0  0
 14 24  1  0  0  0
 14 44  1  0  0  0
 15 28  1  0  0  0
 15 30  1  0  0  0
 15 31  1  0  0  0
 16 32  1  0  0  0
 16 33  1  0  0  0
 17 20  1  0  0  0
 17 45  1  0  0  0
 17 46  1  0  0  0
 18 47  1  0  0  0
 18 48  1  0  0  0
 19 29  1  0  0  0
 19 49  1  0  0  0
 19 50  1  0  0  0
 20 51  1  0  0  0
 20 52  1  0  0  0
 21 22  1  0  0  0
 21 53  1  0  0  0
 21 54  1  0  0  0
 22 55  1  0  0  0
 22 56  1  0  0  0
 23 24  1  0  0  0
 23 57  1  0  0  0
 23 58  1  0  0  0
 24 59  1  0  0  0
 24 60  1  0  0  0
 25 61  1  0  0  0
 25 62  1  0  0  0
 25 63  1  0  0  0
 26 64  1  0  0  0
 26 65  1  0  0  0
 26 66  1  0  0  0
 27 67  1  0  0  0
 27 68  1  0  0  0
 27 69  1  0  0  0
 28 29  2  0  0  0
 28 70  1  0  0  0
 29 71  1  0  0  0
 30 72  1  0  0  0
 30 73  1  0  0  0
 30 74  1  0  0  0
 31 75  1  0  0  0
 31 76  1  0  0  0
 31 77  1  0  0  0
 32 78  1  0  0  0
 32 79  1  0  0  0
 32 80  1  0  0  0
 33 81  1  0  0  0
 33 82  1  0  0  0
 33 83  1  0  0  0
M  END
> <Tumorigenic>
none

> <Score>
36.493073

> <Active/Decoy>
active

> <InChI>
InChI=1S/C29H50O4/c1-25(2,32)14-8-15-29(7,33)24-20-10-9-18-19(28(20,6)17-21(24)30)11-12-22-26(3,4)23(31)13-16-27(18,22)5/h8,14,18-24,30-33H,9-13,15-17H2,1-7H3/b14-8+/t18-,19+,20+,21-,22+,23-,24+,27+,28-,29+/m0/s1

> <Matching Features>
H:14924486185440016873||HBA:14924321692640012300|HBA:14924486112070016868

> <Mol. Index>
109

> <Pharmacophore Match>
Model -1

> <# Confs.>
25

> <Source Database>
Pharm-Screening-input-EANPDB_After_DataWarror.ldb

> <Pharmacophore-Fit Score>
36.49

> <formula>
C29H50O4

> <Mutagenic>
none

> <Reproductive Effective>
none

> <Irritant>
none

$$$$
3beta-acetoxy-16beta,20(S),25-trihydroxydammar-23-ene
XX    ILIB03122411353D

 88 91  0  0  1  0              1 V2000
   -3.8514    0.5480   -1.8203 O   0  0  0  0  0
    4.2541    1.6250   -2.3149 O   0  0  0  0  0
    1.2280    3.8216    0.1771 O   0  0  0  0  0
   -5.1136    0.9575   -3.7084 O   0  0  0  0  0
    6.8510    4.0122    1.5759 O   0  0  0  0  0
   -3.6925   -0.8174   -2.2171 C   0  0  2  0  0
    3.8950    2.5337   -1.2758 C   0  0  1  0  0
    2.1994    2.8840    0.6435 C   0  0  2  0  0
    2.6723    1.9908   -0.5128 C   0  0  2  0  0
    1.6694    0.5252    1.1713 C   0  0  2  0  0
   -0.8721   -1.5476   -1.2335 C   0  0  1  0  0
    2.8727    0.6142    0.1980 C   0  0  1  0  0
    0.3366    0.1305    0.4270 C   0  0  1  0  0
    0.4777   -1.1160   -0.4863 C   0  0  2  0  0
   -2.1253   -1.5420   -0.2575 C   0  0  2  0  0
   -4.5891    1.3207   -2.6648 C   0  0  0  0  0
    7.3895    4.9069    0.5959 C   0  0  0  0  0
   -3.5465   -1.7280   -0.9617 C   0  0  0  0  0
   -2.4850   -0.8962   -3.1536 C   0  0  0  0  0
    1.5957    1.9756    1.7163 C   0  0  0  0  0
    5.1324    2.8198   -0.4051 C   0  0  0  0  0
   -1.1585   -0.6194   -2.4424 C   0  0  0  0  0
    2.9722   -0.6073   -0.7070 C   0  0  0  0  0
    1.6759   -0.9118   -1.4469 C   0  0  0  0  0
   -0.8160   -0.1050    1.4026 C   0  0  0  0  0
   -2.1212   -0.2941    0.6569 C   0  0  0  0  0
    3.5104    3.8377   -1.9878 C   0  0  0  0  0
    1.9920   -0.4429    2.3277 C   0  0  0  0  0
   -0.6158   -2.9923   -1.7502 C   0  0  0  0  0
    7.2131    4.2711   -0.7504 C   0  0  0  0  0
    6.2640    3.4260   -1.1834 C   0  0  0  0  0
   -4.6654    2.7183   -2.1299 C   0  0  0  0  0
    8.8436    5.2018    0.9824 C   0  0  0  0  0
    6.5657    6.1946    0.6661 C   0  0  0  0  0
   -4.7109   -1.4140    0.0223 C   0  0  0  0  0
   -3.7861   -3.2049   -1.3731 C   0  0  0  0  0
    4.5616    0.7910   -1.8979 H   0  0  0  0  0
    0.4685    3.3232   -0.1688 H   0  0  0  0  0
    7.3739    3.1927    1.5556 H   0  0  0  0  0
   -4.5889   -1.1256   -2.7741 H   0  0  0  0  0
    3.0186    3.4635    1.0725 H   0  0  0  0  0
    1.8641    1.8875   -1.2474 H   0  0  0  0  0
    3.8005    0.6643    0.7836 H   0  0  0  0  0
    0.0532    0.9765   -0.2126 H   0  0  0  0  0
    0.7390   -1.9603    0.1686 H   0  0  0  0  0
   -1.9968   -2.3948    0.4249 H   0  0  0  0  0
   -2.5945   -0.1546   -3.9550 H   0  0  0  0  0
   -2.4510   -1.8703   -3.6506 H   0  0  0  0  0
    0.5854    2.2820    1.9994 H   0  0  0  0  0
    2.2151    2.0663    2.6184 H   0  0  0  0  0
    4.8721    3.4935    0.4207 H   0  0  0  0  0
    5.4585    1.8778    0.0525 H   0  0  0  0  0
   -0.3661   -0.7183   -3.1931 H   0  0  0  0  0
   -1.1460    0.4285   -2.1191 H   0  0  0  0  0
    3.7857   -0.4902   -1.4285 H   0  0  0  0  0
    3.2419   -1.4817   -0.1016 H   0  0  0  0  0
    1.4700   -0.0981   -2.1495 H   0  0  0  0  0
    1.8536   -1.8035   -2.0520 H   0  0  0  0  0
   -0.9304    0.7427    2.0852 H   0  0  0  0  0
   -0.6340   -0.9904    2.0242 H   0  0  0  0  0
   -2.8939   -0.3874    1.4258 H   0  0  0  0  0
   -2.3397    0.6145    0.0891 H   0  0  0  0  0
    4.3333    4.1936   -2.6195 H   0  0  0  0  0
    3.2471    4.6357   -1.2862 H   0  0  0  0  0
    2.6606    3.6718   -2.6597 H   0  0  0  0  0
    2.0113   -1.4856    1.9980 H   0  0  0  0  0
    1.2632   -0.3567    3.1405 H   0  0  0  0  0
    2.9740   -0.2243    2.7639 H   0  0  0  0  0
   -1.3856   -3.3610   -2.4217 H   0  0  0  0  0
    0.3042   -3.0708   -2.3326 H   0  0  0  0  0
   -0.5340   -3.6979   -0.9153 H   0  0  0  0  0
    7.9748    4.5359   -1.4866 H   0  0  0  0  0
    6.3253    3.1227   -2.2281 H   0  0  0  0  0
   -5.3330    3.3116   -2.7611 H   0  0  0  0  0
   -5.0713    2.7072   -1.1161 H   0  0  0  0  0
   -3.6730    3.1732   -2.1418 H   0  0  0  0  0
    8.8987    5.6090    1.9992 H   0  0  0  0  0
    9.4459    4.2860    0.9902 H   0  0  0  0  0
    9.3105    5.9194    0.3008 H   0  0  0  0  0
    5.5050    5.9994    0.4710 H   0  0  0  0  0
    6.9170    6.9419   -0.0536 H   0  0  0  0  0
    6.6141    6.6346    1.6703 H   0  0  0  0  0
   -4.6350   -2.0311    0.9249 H   0  0  0  0  0
   -5.6846   -1.6226   -0.4389 H   0  0  0  0  0
   -4.7427   -0.3651    0.3285 H   0  0  0  0  0
   -3.4262   -3.8975   -0.6041 H   0  0  0  0  0
   -3.3319   -3.4710   -2.3251 H   0  0  0  0  0
   -4.8566   -3.4090   -1.5089 H   0  0  0  0  0
  1  6  1  0  0  0
  1 16  1  0  0  0
  2  7  1  0  0  0
  2 37  1  0  0  0
  3  8  1  0  0  0
  3 38  1  0  0  0
  4 16  2  0  0  0
  5 17  1  0  0  0
  5 39  1  0  0  0
  6 18  1  0  0  0
  6 19  1  0  0  0
  6 40  1  0  0  0
  7  9  1  0  0  0
  7 21  1  0  0  0
  7 27  1  0  0  0
  8  9  1  0  0  0
  8 20  1  0  0  0
  8 41  1  0  0  0
  9 12  1  0  0  0
  9 42  1  0  0  0
 10 12  1  0  0  0
 10 13  1  0  0  0
 10 20  1  0  0  0
 10 28  1  0  0  0
 11 14  1  0  0  0
 11 15  1  0  0  0
 11 22  1  0  0  0
 11 29  1  0  0  0
 12 23  1  0  0  0
 12 43  1  0  0  0
 13 14  1  0  0  0
 13 25  1  0  0  0
 13 44  1  0  0  0
 14 24  1  0  0  0
 14 45  1  0  0  0
 15 18  1  0  0  0
 15 26  1  0  0  0
 15 46  1  0  0  0
 16 32  1  0  0  0
 17 30  1  0  0  0
 17 33  1  0  0  0
 17 34  1  0  0  0
 18 35  1  0  0  0
 18 36  1  0  0  0
 19 22  1  0  0  0
 19 47  1  0  0  0
 19 48  1  0  0  0
 20 49  1  0  0  0
 20 50  1  0  0  0
 21 31  1  0  0  0
 21 51  1  0  0  0
 21 52  1  0  0  0
 22 53  1  0  0  0
 22 54  1  0  0  0
 23 24  1  0  0  0
 23 55  1  0  0  0
 23 56  1  0  0  0
 24 57  1  0  0  0
 24 58  1  0  0  0
 25 26  1  0  0  0
 25 59  1  0  0  0
 25 60  1  0  0  0
 26 61  1  0  0  0
 26 62  1  0  0  0
 27 63  1  0  0  0
 27 64  1  0  0  0
 27 65  1  0  0  0
 28 66  1  0  0  0
 28 67  1  0  0  0
 28 68  1  0  0  0
 29 69  1  0  0  0
 29 70  1  0  0  0
 29 71  1  0  0  0
 30 31  2  0  0  0
 30 72  1  0  0  0
 31 73  1  0  0  0
 32 74  1  0  0  0
 32 75  1  0  0  0
 32 76  1  0  0  0
 33 77  1  0  0  0
 33 78  1  0  0  0
 33 79  1  0  0  0
 34 80  1  0  0  0
 34 81  1  0  0  0
 34 82  1  0  0  0
 35 83  1  0  0  0
 35 84  1  0  0  0
 35 85  1  0  0  0
 36 86  1  0  0  0
 36 87  1  0  0  0
 36 88  1  0  0  0
M  END
> <Tumorigenic>
none

> <Score>
36.3529

> <Active/Decoy>
active

> <InChI>
InChI=1S/C31H52O5/c1-19(32)36-25-14-17-29(6)20-10-11-22-26(31(8,35)16-9-15-27(2,3)34)23(33)18-30(22,7)21(20)12-13-24(29)28(25,4)5/h9,15,20-26,33-35H,10-14,16-18H2,1-8H3/b15-9+/t20-,21+,22-,23-,24-,25-,26-,29-,30-,31+/m0/s1

> <Matching Features>
H:14924486185440016873||HBA:14924321692640012300|HBA:14924486112070016868

> <Mol. Index>
111

> <Pharmacophore Match>
Model -1

> <# Confs.>
25

> <Source Database>
Pharm-Screening-input-EANPDB_After_DataWarror.ldb

> <Pharmacophore-Fit Score>
36.35

> <formula>
C31H52O5

> <Mutagenic>
none

> <Reproductive Effective>
none

> <Irritant>
none

$$$$
abyssinin III
XX    ILIB03122411353D

 59 61  0  0  1  0              1 V2000
   -1.2838    2.4730   -4.1079 O   0  0  0  0  0
    4.5176    1.5557   -2.0457 O   0  0  0  0  0
    3.4345    1.5482   -4.5514 O   0  0  0  0  0
   -5.9023    0.9996   -4.0824 O   0  0  0  0  0
   -4.4927    4.7423   -6.7100 O   0  0  0  0  0
   -4.0084   -0.2613   -2.7373 O   0  0  0  0  0
   -2.5987    2.5550   -4.4932 C   0  0  0  0  0
    3.1568    1.6415   -2.1945 C   0  0  0  0  0
    2.6066    1.6304   -3.4686 C   0  0  0  0  0
   -4.9098    1.8444   -4.5007 C   0  0  0  0  0
   -4.2196    3.7293   -5.8340 C   0  0  0  0  0
    0.3699    1.7861   -2.5231 C   0  0  0  0  0
   -3.5948    1.6728   -4.0540 C   0  0  0  0  0
    2.3418    1.7341   -1.0486 C   0  0  0  0  0
    0.9131    1.8075   -1.2074 C   0  0  0  0  0
   -2.9073    3.5734   -5.3967 C   0  0  0  0  0
   -5.2271    2.8758   -5.3890 C   0  0  0  0  0
    1.2302    1.6980   -3.6340 C   0  0  0  0  0
   -1.1108    1.8349   -2.8345 C   0  0  2  0  0
   -3.1988    0.5558   -3.1581 C   0  0  0  0  0
    3.0056    1.7205    0.2998 C   0  0  0  0  0
    0.0266    1.8755   -0.0060 C   0  0  0  0  0
   -1.7287    0.4409   -2.8502 C   0  0  0  0  0
    2.7030   -0.1854    1.9776 C   0  0  0  0  0
   -1.3739    3.7391    1.0291 C   0  0  0  0  0
    3.1955    0.3349    0.8374 C   0  0  0  0  0
   -0.2767    3.2750    0.4120 C   0  0  0  0  0
    2.9774   -1.6213    2.3379 C   0  0  0  0  0
    1.8722    0.5582    2.9838 C   0  0  0  0  0
   -1.4813    5.1925    1.4057 C   0  0  0  0  0
   -2.5793    2.9160    1.3817 C   0  0  0  0  0
    4.9176    1.4901   -2.9301 H   0  0  0  0  0
    2.8934    1.5587   -5.3595 H   0  0  0  0  0
   -6.7394    1.2671   -4.4947 H   0  0  0  0  0
   -5.4410    4.7216   -6.9220 H   0  0  0  0  0
   -2.1300    4.2471   -5.7488 H   0  0  0  0  0
   -6.2470    3.0088   -5.7359 H   0  0  0  0  0
    0.8170    1.6759   -4.6398 H   0  0  0  0  0
   -1.6009    2.4664   -2.0787 H   0  0  0  0  0
    3.9859    2.2099    0.2281 H   0  0  0  0  0
    2.4187    2.3343    0.9957 H   0  0  0  0  0
   -0.9135    1.3540   -0.2170 H   0  0  0  0  0
    0.4942    1.3033    0.8198 H   0  0  0  0  0
   -1.2795   -0.1996   -3.6180 H   0  0  0  0  0
   -1.6086   -0.0419   -1.8734 H   0  0  0  0  0
    3.7971   -0.3134    0.2002 H   0  0  0  0  0
    0.5330    3.9839    0.2069 H   0  0  0  0  0
    3.5799   -2.1338    1.5809 H   0  0  0  0  0
    2.0364   -2.1705    2.4395 H   0  0  0  0  0
    3.5189   -1.6785    3.2875 H   0  0  0  0  0
    2.3244    0.4774    3.9769 H   0  0  0  0  0
    1.7726    1.6235    2.7661 H   0  0  0  0  0
    0.8657    0.1300    3.0307 H   0  0  0  0  0
   -0.5836    5.7601    1.1381 H   0  0  0  0  0
   -1.6270    5.2926    2.4868 H   0  0  0  0  0
   -2.3315    5.6564    0.8954 H   0  0  0  0  0
   -3.4819    3.3710    0.9596 H   0  0  0  0  0
   -2.5359    1.8917    1.0076 H   0  0  0  0  0
   -2.6981    2.8703    2.4702 H   0  0  0  0  0
  1  7  1  0  0  0
  1 19  1  0  0  0
  2  8  1  0  0  0
  2 32  1  0  0  0
  3  9  1  0  0  0
  3 33  1  0  0  0
  4 10  1  0  0  0
  4 34  1  0  0  0
  5 11  1  0  0  0
  5 35  1  0  0  0
  6 20  2  0  0  0
  7 13  2  0  0  0
  7 16  1  0  0  0
  8  9  1  0  0  0
  8 14  2  0  0  0
  9 18  2  0  0  0
 10 13  1  0  0  0
 10 17  2  0  0  0
 11 16  2  0  0  0
 11 17  1  0  0  0
 12 15  2  0  0  0
 12 18  1  0  0  0
 12 19  1  0  0  0
 13 20  1  0  0  0
 14 15  1  0  0  0
 14 21  1  0  0  0
 15 22  1  0  0  0
 16 36  1  0  0  0
 17 37  1  0  0  0
 18 38  1  0  0  0
 19 23  1  0  0  0
 19 39  1  0  0  0
 20 23  1  0  0  0
 21 26  1  0  0  0
 21 40  1  0  0  0
 21 41  1  0  0  0
 22 27  1  0  0  0
 22 42  1  0  0  0
 22 43  1  0  0  0
 23 44  1  0  0  0
 23 45  1  0  0  0
 24 26  2  0  0  0
 24 28  1  0  0  0
 24 29  1  0  0  0
 25 27  2  0  0  0
 25 30  1  0  0  0
 25 31  1  0  0  0
 26 46  1  0  0  0
 27 47  1  0  0  0
 28 48  1  0  0  0
 28 49  1  0  0  0
 28 50  1  0  0  0
 29 51  1  0  0  0
 29 52  1  0  0  0
 29 53  1  0  0  0
 30 54  1  0  0  0
 30 55  1  0  0  0
 30 56  1  0  0  0
 31 57  1  0  0  0
 31 58  1  0  0  0
 31 59  1  0  0  0
M  END
> <Tumorigenic>
none

> <Score>
36.31765

> <Active/Decoy>
active

> <InChI>
InChI=1S/C25H28O6/c1-13(2)5-7-16-17(8-6-14(3)4)25(30)21(29)11-18(16)22-12-20(28)24-19(27)9-15(26)10-23(24)31-22/h5-6,9-11,22,26-27,29-30H,7-8,12H2,1-4H3/t22-/m0/s1

> <Matching Features>
H:14924486185440016873||HBA:14924321692640012300|HBA:14924486112070016868

> <Mol. Index>
257

> <Pharmacophore Match>
Model -1

> <# Confs.>
25

> <Source Database>
Pharm-Screening-input-EANPDB_After_DataWarror.ldb

> <Pharmacophore-Fit Score>
36.32

> <formula>
C25H28O6

> <Mutagenic>
none

> <Reproductive Effective>
none

> <Irritant>
none

$$$$
kosotoxin
XX    ILIB03122411353D

 65 66  0  0  1  0              1 V2000
   -5.3449   -1.5201   -1.2952 O   0  0  0  0  0
   -2.7310    2.0804   -3.1395 O   0  0  0  0  0
   -0.5344   -1.6760   -1.2468 O   0  0  0  0  0
   -5.8660    0.8213   -3.6045 O   0  0  0  0  0
    1.6626    3.2955   -2.5041 O   0  0  0  0  0
    5.1842    1.5449   -1.7943 O   0  0  0  0  0
   -0.7671    0.7733    0.6823 O   0  0  0  0  0
    3.8546   -0.1346   -0.0718 O   0  0  0  0  0
   -4.1308   -0.9545   -1.5696 C   0  0  0  0  0
   -2.8351    0.8876   -2.4703 C   0  0  0  0  0
   -1.7212   -1.0493   -1.5416 C   0  0  0  0  0
   -4.0770    0.3067   -2.1851 C   0  0  0  0  0
   -1.6454    0.2295   -2.1457 C   0  0  0  0  0
   -2.9572   -1.6680   -1.2690 C   0  0  0  0  0
    0.2297    1.7331   -1.3165 C   0  0  2  0  0
   -5.3456    1.0089   -2.5048 C   0  0  0  0  0
    1.5907    2.2745   -1.8015 C   0  0  0  0  0
    4.0664    1.6874   -2.2863 C   0  0  0  0  0
    0.4088    0.9614   -0.0233 C   0  0  0  0  0
    2.7877    0.6638   -0.4446 C   0  0  0  0  0
   -6.3985   -1.1650   -2.1866 C   0  0  0  0  0
   -0.3054    0.8378   -2.4462 C   0  0  0  0  0
   -3.0155   -3.0401   -0.6539 C   0  0  0  0  0
   -0.6954    2.9585   -1.0904 C   0  0  0  0  0
    2.8297    1.5218   -1.4825 C   0  0  0  0  0
    1.6030    0.4889    0.3929 C   0  0  0  0  0
   -5.9895    1.9406   -1.4943 C   0  0  0  0  0
    3.8879    2.0669   -3.7351 C   0  0  0  0  0
    1.8148   -0.2269    1.7045 C   0  0  0  0  0
   -5.0500    3.0407   -1.0101 C   0  0  0  0  0
   -7.2713    2.5210   -2.0798 C   0  0  0  0  0
    4.4474    3.4469   -4.0654 C   0  0  0  0  0
    4.4996    0.9904   -4.6242 C   0  0  0  0  0
   -3.5773    2.2960   -3.5623 H   0  0  0  0  0
   -0.7002   -2.5107   -0.7799 H   0  0  0  0  0
   -0.6335    0.1028    1.3692 H   0  0  0  0  0
    4.5982    0.0184   -0.6767 H   0  0  0  0  0
   -7.3025   -1.6896   -1.8594 H   0  0  0  0  0
   -6.6025   -0.0899   -2.1480 H   0  0  0  0  0
   -6.1759   -1.4872   -3.2099 H   0  0  0  0  0
   -0.3643    1.4293   -3.3748 H   0  0  0  0  0
    0.4195    0.0473   -2.6386 H   0  0  0  0  0
   -2.4100   -3.7433   -1.2352 H   0  0  0  0  0
   -2.6484   -3.0062    0.3766 H   0  0  0  0  0
   -4.0296   -3.4516   -0.6328 H   0  0  0  0  0
   -0.8415    3.5288   -2.0152 H   0  0  0  0  0
   -0.2626    3.6443   -0.3518 H   0  0  0  0  0
   -1.6891    2.6704   -0.7315 H   0  0  0  0  0
   -6.2473    1.3240   -0.6225 H   0  0  0  0  0
    2.8059    2.1024   -3.9162 H   0  0  0  0  0
    1.9580   -1.2991    1.5350 H   0  0  0  0  0
    0.9860   -0.1037    2.4061 H   0  0  0  0  0
    2.6977    0.1654    2.2225 H   0  0  0  0  0
   -4.8281    3.7650   -1.8006 H   0  0  0  0  0
   -4.1002    2.6192   -0.6646 H   0  0  0  0  0
   -5.4984    3.5890   -0.1750 H   0  0  0  0  0
   -7.9584    1.7212   -2.3807 H   0  0  0  0  0
   -7.7880    3.1510   -1.3473 H   0  0  0  0  0
   -7.0662    3.1296   -2.9674 H   0  0  0  0  0
    5.5400    3.4715   -4.0132 H   0  0  0  0  0
    4.0642    4.2014   -3.3707 H   0  0  0  0  0
    4.1603    3.7457   -5.0788 H   0  0  0  0  0
    4.0567    0.0119   -4.4090 H   0  0  0  0  0
    4.3302    1.2128   -5.6828 H   0  0  0  0  0
    5.5791    0.9033   -4.4629 H   0  0  0  0  0
  1  9  1  0  0  0
  1 21  1  0  0  0
  2 10  1  0  0  0
  2 34  1  0  0  0
  3 11  1  0  0  0
  3 35  1  0  0  0
  4 16  2  0  0  0
  5 17  2  0  0  0
  6 18  2  0  0  0
  7 19  1  0  0  0
  7 36  1  0  0  0
  8 20  1  0  0  0
  8 37  1  0  0  0
  9 12  2  0  0  0
  9 14  1  0  0  0
 10 12  1  0  0  0
 10 13  2  0  0  0
 11 13  1  0  0  0
 11 14  2  0  0  0
 12 16  1  0  0  0
 13 22  1  0  0  0
 14 23  1  0  0  0
 15 17  1  0  0  0
 15 19  1  0  0  0
 15 22  1  0  0  0
 15 24  1  0  0  0
 16 27  1  0  0  0
 17 25  1  0  0  0
 18 25  1  0  0  0
 18 28  1  0  0  0
 19 26  2  0  0  0
 20 25  2  0  0  0
 20 26  1  0  0  0
 21 38  1  0  0  0
 21 39  1  0  0  0
 21 40  1  0  0  0
 22 41  1  0  0  0
 22 42  1  0  0  0
 23 43  1  0  0  0
 23 44  1  0  0  0
 23 45  1  0  0  0
 24 46  1  0  0  0
 24 47  1  0  0  0
 24 48  1  0  0  0
 26 29  1  0  0  0
 27 30  1  0  0  0
 27 31  1  0  0  0
 27 49  1  0  0  0
 28 32  1  0  0  0
 28 33  1  0  0  0
 28 50  1  0  0  0
 29 51  1  0  0  0
 29 52  1  0  0  0
 29 53  1  0  0  0
 30 54  1  0  0  0
 30 55  1  0  0  0
 30 56  1  0  0  0
 31 57  1  0  0  0
 31 58  1  0  0  0
 31 59  1  0  0  0
 32 60  1  0  0  0
 32 61  1  0  0  0
 32 62  1  0  0  0
 33 63  1  0  0  0
 33 64  1  0  0  0
 33 65  1  0  0  0
M  END
> <Tumorigenic>
none

> <Score>
36.308594

> <Active/Decoy>
active

> <InChI>
InChI=1S/C25H32O8/c1-10(2)17(26)15-21(30)14(19(28)12(5)22(15)33-8)9-25(7)23(31)13(6)20(29)16(24(25)32)18(27)11(3)4/h10-11,28-31H,9H2,1-8H3/t25-/m0/s1

> <Matching Features>
H:14924486185440016873||HBA:14924321692640012300|HBA:14924486112070016868

> <Mol. Index>
403

> <Pharmacophore Match>
Model -1

> <# Confs.>
25

> <Source Database>
Pharm-Screening-input-EANPDB_After_DataWarror.ldb

> <Pharmacophore-Fit Score>
36.31

> <formula>
C25H32O8

> <Mutagenic>
none

> <Reproductive Effective>
none

> <Irritant>
none

$$$$
8-hydroxyheptadeca-4,6-diyn-3-yl ethanoate
XX    ILIB03122411353D

 52 51  0  0  1  0              1 V2000
    2.5784    2.0508   -3.1391 O   0  0  0  0  0
   -5.0819    0.8554   -3.4311 O   0  0  0  0  0
    4.6217    1.6136   -2.1621 O   0  0  0  0  0
    1.9560    2.0497   -1.8512 C   0  0  2  0  0
   -4.3876   -0.0273   -2.5626 C   0  0  2  0  0
    3.9201    1.8186   -3.1417 C   0  0  0  0  0
    0.5744    1.5979   -2.0012 C   0  0  0  0  0
   -2.9950    0.4210   -2.4079 C   0  0  0  0  0
   -4.4620   -1.4433   -3.1090 C   0  0  0  0  0
    1.9947    3.4695   -1.2824 C   0  0  0  0  0
   -0.5587    1.2236   -2.1285 C   0  0  0  0  0
   -1.8608    0.7934   -2.2784 C   0  0  0  0  0
   -3.7435   -2.4999   -2.2770 C   0  0  0  0  0
   -4.2892   -2.6272   -0.8488 C   0  0  0  0  0
   -3.5788   -3.6820    0.0009 C   0  0  0  0  0
   -2.0737   -3.4343    0.1784 C   0  0  0  0  0
   -1.7414   -2.1114    0.8669 C   0  0  0  0  0
   -0.2439   -1.8661    1.0510 C   0  0  0  0  0
    0.0962   -0.5413    1.7325 C   0  0  0  0  0
    4.4338    1.8570   -4.5476 C   0  0  0  0  0
    1.3517    3.5723    0.0940 C   0  0  0  0  0
    1.5938   -0.3301    1.8991 C   0  0  0  0  0
   -4.6826    0.7724   -4.3235 H   0  0  0  0  0
    2.4800    1.3681   -1.1689 H   0  0  0  0  0
   -4.8887    0.0159   -1.5931 H   0  0  0  0  0
   -5.5222   -1.7179   -3.1719 H   0  0  0  0  0
   -4.0825   -1.4636   -4.1519 H   0  0  0  0  0
    1.4918    4.1600   -1.9691 H   0  0  0  0  0
    3.0380    3.7957   -1.2087 H   0  0  0  0  0
   -3.8888   -3.4699   -2.7696 H   0  0  0  0  0
   -2.6708   -2.3058   -2.2604 H   0  0  0  0  0
   -4.1506   -1.6554   -0.3577 H   0  0  0  0  0
   -5.3693   -2.8164   -0.8726 H   0  0  0  0  0
   -4.0442   -3.6698    0.9949 H   0  0  0  0  0
   -3.7569   -4.6802   -0.4177 H   0  0  0  0  0
   -1.6918   -4.2460    0.8137 H   0  0  0  0  0
   -1.5687   -3.5147   -0.7819 H   0  0  0  0  0
   -2.1370   -1.3061    0.2344 H   0  0  0  0  0
   -2.2646   -2.0410    1.8278 H   0  0  0  0  0
    0.1457   -2.6754    1.6795 H   0  0  0  0  0
    0.2686   -1.9441    0.0841 H   0  0  0  0  0
   -0.3896   -0.4921    2.7137 H   0  0  0  0  0
   -0.3124    0.2817    1.1331 H   0  0  0  0  0
    5.4933    1.5784   -4.5561 H   0  0  0  0  0
    3.8877    1.1394   -5.1649 H   0  0  0  0  0
    4.3324    2.8671   -4.9506 H   0  0  0  0  0
    0.2866    3.3271    0.0581 H   0  0  0  0  0
    1.4473    4.5918    0.4805 H   0  0  0  0  0
    1.8383    2.8954    0.8017 H   0  0  0  0  0
    2.0343   -1.0889    2.5523 H   0  0  0  0  0
    1.7886    0.6491    2.3433 H   0  0  0  0  0
    2.1035   -0.3690    0.9310 H   0  0  0  0  0
  1  4  1  0  0  0
  1  6  1  0  0  0
  2  5  1  0  0  0
  2 23  1  0  0  0
  3  6  2  0  0  0
  4  7  1  0  0  0
  4 10  1  0  0  0
  4 24  1  0  0  0
  5  8  1  0  0  0
  5  9  1  0  0  0
  5 25  1  0  0  0
  6 20  1  0  0  0
  7 11  3  0  0  0
  8 12  3  0  0  0
  9 13  1  0  0  0
  9 26  1  0  0  0
  9 27  1  0  0  0
 10 21  1  0  0  0
 10 28  1  0  0  0
 10 29  1  0  0  0
 11 12  1  0  0  0
 13 14  1  0  0  0
 13 30  1  0  0  0
 13 31  1  0  0  0
 14 15  1  0  0  0
 14 32  1  0  0  0
 14 33  1  0  0  0
 15 16  1  0  0  0
 15 34  1  0  0  0
 15 35  1  0  0  0
 16 17  1  0  0  0
 16 36  1  0  0  0
 16 37  1  0  0  0
 17 18  1  0  0  0
 17 38  1  0  0  0
 17 39  1  0  0  0
 18 19  1  0  0  0
 18 40  1  0  0  0
 18 41  1  0  0  0
 19 22  1  0  0  0
 19 42  1  0  0  0
 19 43  1  0  0  0
 20 44  1  0  0  0
 20 45  1  0  0  0
 20 46  1  0  0  0
 21 47  1  0  0  0
 21 48  1  0  0  0
 21 49  1  0  0  0
 22 50  1  0  0  0
 22 51  1  0  0  0
 22 52  1  0  0  0
M  END
> <Tumorigenic>
none

> <Score>
36.30721

> <Active/Decoy>
active

> <InChI>
InChI=1S/C19H30O3/c1-4-6-7-8-9-10-11-14-18(21)15-12-13-16-19(5-2)22-17(3)20/h18-19,21H,4-11,14H2,1-3H3/t18-,19-/m0/s1

> <Matching Features>
H:14924486185440016873||HBA:14924321692640012300|HBA:14924486112070016868

> <Mol. Index>
51

> <Pharmacophore Match>
Model -1

> <# Confs.>
25

> <Source Database>
Pharm-Screening-input-EANPDB_After_DataWarror.ldb

> <Pharmacophore-Fit Score>
36.31

> <formula>
C19H30O3

> <Mutagenic>
none

> <Reproductive Effective>
none

> <Irritant>
none

$$$$
nataloin
XX    ILIB03122411353D

 52 55  0  0  1  0              1 V2000
   -4.2558   -1.3425   -3.1580 O   0  0  0  0  0
   -5.7424    0.9556   -3.9138 O   0  0  0  0  0
   -0.5225   -3.2312   -0.3893 O   0  0  0  0  0
    1.7765    2.1486   -2.3111 O   0  0  0  0  0
   -1.1602    2.6168   -4.4733 O   0  0  0  0  0
    0.8105    4.3965   -5.6214 O   0  0  0  0  0
    3.4961    3.4110   -5.3147 O   0  0  0  0  0
   -1.8303   -2.1949   -2.5607 O   0  0  0  0  0
    4.3509    1.3786   -1.6391 O   0  0  0  0  0
   -3.7445   -0.0828   -3.0127 C   0  0  0  0  0
   -4.4997    1.0409   -3.3518 C   0  0  0  0  0
   -0.0613   -1.9472   -0.2996 C   0  0  0  0  0
   -0.0393    0.4104   -0.8914 C   0  0  0  0  0
   -1.9290    1.3656   -2.2766 C   0  0  0  0  0
   -2.4549    0.0797   -2.4804 C   0  0  0  0  0
   -0.5570   -0.8904   -1.0752 C   0  0  0  0  0
    1.4705   -0.4409    0.8231 C   0  0  0  0  0
    0.9414   -1.7213    0.6447 C   0  0  0  0  0
   -3.9984    2.3200   -3.1268 C   0  0  0  0  0
    0.9634    0.6160    0.0583 C   0  0  0  0  0
   -2.7226    2.4803   -2.5898 C   0  0  0  0  0
    0.5180    1.8220   -2.8770 C   0  0  2  0  0
    0.0704    2.9535   -3.8388 C   0  0  1  0  0
    1.1350    3.2030   -4.9077 C   0  0  2  0  0
    2.5176    3.3767   -4.2780 C   0  0  1  0  0
    2.8213    2.2462   -3.2838 C   0  0  1  0  0
   -0.5121    1.5611   -1.7468 C   0  0  2  0  0
   -1.6294   -1.0877   -2.0799 C   0  0  0  0  0
    4.1149    2.4724   -2.5205 C   0  0  0  0  0
    2.5256   -0.1954    1.8585 C   0  0  0  0  0
   -5.2173   -1.2921   -3.2736 H   0  0  0  0  0
   -5.8749    0.0615   -4.2706 H   0  0  0  0  0
   -1.2316   -3.2740   -1.0514 H   0  0  0  0  0
   -1.0304    1.7819   -4.9545 H   0  0  0  0  0
   -0.0794    4.2782   -5.9943 H   0  0  0  0  0
    3.4887    2.5472   -5.7611 H   0  0  0  0  0
    3.5900    1.3234   -1.0359 H   0  0  0  0  0
    1.3111   -2.5493    1.2475 H   0  0  0  0  0
   -4.5892    3.1952   -3.3778 H   0  0  0  0  0
    1.3651    1.6168    0.1985 H   0  0  0  0  0
   -2.3461    3.4871   -2.4270 H   0  0  0  0  0
    0.6096    0.8945   -3.4625 H   0  0  0  0  0
   -0.0961    3.8861   -3.2871 H   0  0  0  0  0
    1.1462    2.3931   -5.6468 H   0  0  0  0  0
    2.5584    4.3470   -3.7685 H   0  0  0  0  0
    2.9105    1.2939   -3.8238 H   0  0  0  0  0
   -0.5409    2.4436   -1.1007 H   0  0  0  0  0
    4.0764    3.3852   -1.9171 H   0  0  0  0  0
    4.9669    2.5342   -3.2028 H   0  0  0  0  0
    3.1850   -1.0626    1.9575 H   0  0  0  0  0
    3.1544    0.6583    1.5847 H   0  0  0  0  0
    2.0581    0.0075    2.8272 H   0  0  0  0  0
  1 10  1  0  0  0
  1 31  1  0  0  0
  2 11  1  0  0  0
  2 32  1  0  0  0
  3 12  1  0  0  0
  3 33  1  0  0  0
  4 22  1  0  0  0
  4 26  1  0  0  0
  5 23  1  0  0  0
  5 34  1  0  0  0
  6 24  1  0  0  0
  6 35  1  0  0  0
  7 25  1  0  0  0
  7 36  1  0  0  0
  8 28  2  0  0  0
  9 29  1  0  0  0
  9 37  1  0  0  0
 10 11  1  0  0  0
 10 15  2  0  0  0
 11 19  2  0  0  0
 12 16  2  0  0  0
 12 18  1  0  0  0
 13 16  1  0  0  0
 13 20  2  0  0  0
 13 27  1  0  0  0
 14 15  1  0  0  0
 14 21  2  0  0  0
 14 27  1  0  0  0
 15 28  1  0  0  0
 16 28  1  0  0  0
 17 18  2  0  0  0
 17 20  1  0  0  0
 17 30  1  0  0  0
 18 38  1  0  0  0
 19 21  1  0  0  0
 19 39  1  0  0  0
 20 40  1  0  0  0
 21 41  1  0  0  0
 22 23  1  0  0  0
 22 27  1  0  0  0
 22 42  1  0  0  0
 23 24  1  0  0  0
 23 43  1  0  0  0
 24 25  1  0  0  0
 24 44  1  0  0  0
 25 26  1  0  0  0
 25 45  1  0  0  0
 26 29  1  0  0  0
 26 46  1  0  0  0
 27 47  1  0  0  0
 29 48  1  0  0  0
 29 49  1  0  0  0
 30 50  1  0  0  0
 30 51  1  0  0  0
 30 52  1  0  0  0
M  END
> <Tumorigenic>
none

> <Score>
36.27017

> <Active/Decoy>
active

> <InChI>
InChI=1S/C21H22O9/c1-7-4-9-13(21-20(29)19(28)17(26)12(6-22)30-21)8-2-3-10(23)16(25)15(8)18(27)14(9)11(24)5-7/h2-5,12-13,17,19-26,28-29H,6H2,1H3/t12-,13+,17-,19+,20-,21+/m1/s1

> <Matching Features>
H:14924486185440016873||HBA:14924321692640012300|HBA:14924486112070016868

> <Mol. Index>
69

> <Pharmacophore Match>
Model -1

> <# Confs.>
4

> <Source Database>
Pharm-Screening-input-EANPDB_After_DataWarror.ldb

> <Pharmacophore-Fit Score>
36.27

> <formula>
C21H22O9

> <Mutagenic>
none

> <Reproductive Effective>
none

> <Irritant>
none

$$$$
proceranolide
XX    ILIB03122411353D

 68 72  0  0  1  0              1 V2000
   -1.1302    4.6251   -0.0681 O   0  0  0  0  0
   -3.3626    2.4507   -3.4695 O   0  0  0  0  0
    1.0732   -2.8531    1.2379 O   0  0  0  0  0
   -4.9779    0.8828   -3.4678 O   0  0  0  0  0
    4.4717    1.6339   -2.2653 O   0  0  0  0  0
    2.0933   -3.4942   -1.8613 O   0  0  0  0  0
    5.1135    0.2422   -0.5413 O   0  0  0  0  0
   -0.9575    4.3431   -1.3846 C   0  0  0  0  0
   -2.1596    3.8533    0.3632 C   0  0  0  0  0
   -1.8658    3.3967   -1.8141 C   0  0  0  0  0
   -2.6470    3.0823   -0.6650 C   0  0  0  0  0
   -1.9925    2.8284   -3.1799 C   0  0  1  0  0
    0.3355   -1.8730    0.4829 C   0  0  2  0  0
    2.0383   -1.0552   -1.8870 C   0  0  2  0  0
   -1.0233    1.6797   -3.5775 C   0  0  2  0  0
    0.1561   -2.4741   -0.9139 C   0  0  2  0  0
    2.2657   -0.3750   -0.4733 C   0  0  2  0  0
    0.9956   -0.4339   -2.9076 C   0  0  1  0  0
   -3.8198    1.2027   -3.2132 C   0  0  0  0  0
    4.2296    1.0049   -1.2427 C   0  0  0  0  0
    1.4970   -2.4538   -1.5931 C   0  0  0  0  0
    6.4404    0.1917   -1.0767 C   0  0  0  0  0
    1.0750   -0.4939    0.5853 C   0  0  0  0  0
   -1.4022    0.4062   -2.8479 C   0  0  0  0  0
   -0.4809   -0.5343   -2.5115 C   0  0  0  0  0
    0.4383    2.0586   -3.2618 C   0  0  0  0  0
    2.8957    1.0019   -0.5444 C   0  0  0  0  0
   -0.8836   -1.8242   -1.8240 C   0  0  0  0  0
    1.4158    0.9203   -3.5240 C   0  0  0  0  0
    3.3968   -1.2516   -2.6085 C   0  0  0  0  0
   -1.1624    1.4205   -5.1025 C   0  0  0  0  0
   -2.8702    0.2377   -2.5376 C   0  0  0  0  0
    0.0642    0.6654    0.4850 C   0  0  0  0  0
    1.6387   -0.3771    2.0375 C   0  0  0  0  0
    0.5203   -3.6514    1.3035 H   0  0  0  0  0
   -0.1613    4.8858   -1.8741 H   0  0  0  0  0
   -2.4229    3.9631    1.4043 H   0  0  0  0  0
   -3.4654    2.3791   -0.6002 H   0  0  0  0  0
   -1.7992    3.6618   -3.8716 H   0  0  0  0  0
   -0.6425   -1.8001    0.9746 H   0  0  0  0  0
   -0.1299   -3.5299   -0.8014 H   0  0  0  0  0
    3.0551   -1.0183   -0.0192 H   0  0  0  0  0
    1.0406   -1.1270   -3.7665 H   0  0  0  0  0
    6.8848    1.1911   -1.0764 H   0  0  0  0  0
    7.0405   -0.4595   -0.4368 H   0  0  0  0  0
    6.4259   -0.2264   -2.0874 H   0  0  0  0  0
    0.5440    2.3480   -2.2116 H   0  0  0  0  0
    0.7388    2.9337   -3.8508 H   0  0  0  0  0
    3.0315    1.4003    0.4551 H   0  0  0  0  0
    2.2101    1.6756   -1.1002 H   0  0  0  0  0
   -1.8043   -1.7056   -1.2440 H   0  0  0  0  0
   -1.1129   -2.5395   -2.6269 H   0  0  0  0  0
    2.4058    1.2415   -3.1984 H   0  0  0  0  0
    1.5232    0.7896   -4.6075 H   0  0  0  0  0
    4.1145   -1.7685   -1.9606 H   0  0  0  0  0
    3.8620   -0.3168   -2.9262 H   0  0  0  0  0
    3.2811   -1.8679   -3.5084 H   0  0  0  0  0
   -0.8412    2.2979   -5.6758 H   0  0  0  0  0
   -2.1940    1.2000   -5.3992 H   0  0  0  0  0
   -0.5600    0.5695   -5.4357 H   0  0  0  0  0
   -3.1851   -0.7627   -2.8597 H   0  0  0  0  0
   -3.0366    0.3237   -1.4588 H   0  0  0  0  0
   -0.8251    0.4724    1.0960 H   0  0  0  0  0
   -0.2671    0.8541   -0.5256 H   0  0  0  0  0
    0.4881    1.6090    0.8467 H   0  0  0  0  0
    0.8700   -0.6398    2.7748 H   0  0  0  0  0
    2.4960   -1.0395    2.1994 H   0  0  0  0  0
    1.9598    0.6401    2.2798 H   0  0  0  0  0
  1  8  1  0  0  0
  1  9  1  0  0  0
  2 12  1  0  0  0
  2 19  1  0  0  0
  3 13  1  0  0  0
  3 35  1  0  0  0
  4 19  2  0  0  0
  5 20  2  0  0  0
  6 21  2  0  0  0
  7 20  1  0  0  0
  7 22  1  0  0  0
  8 10  2  0  0  0
  8 36  1  0  0  0
  9 11  2  0  0  0
  9 37  1  0  0  0
 10 11  1  0  0  0
 10 12  1  0  0  0
 11 38  1  0  0  0
 12 15  1  0  0  0
 12 39  1  0  0  0
 13 16  1  0  0  0
 13 23  1  0  0  0
 13 40  1  0  0  0
 14 17  1  0  0  0
 14 18  1  0  0  0
 14 21  1  0  0  0
 14 30  1  0  0  0
 15 24  1  0  0  0
 15 26  1  0  0  0
 15 31  1  0  0  0
 16 21  1  0  0  0
 16 28  1  0  0  0
 16 41  1  0  0  0
 17 23  1  0  0  0
 17 27  1  0  0  0
 17 42  1  0  0  0
 18 25  1  0  0  0
 18 29  1  0  0  0
 18 43  1  0  0  0
 19 32  1  0  0  0
 20 27  1  0  0  0
 22 44  1  0  0  0
 22 45  1  0  0  0
 22 46  1  0  0  0
 23 33  1  0  0  0
 23 34  1  0  0  0
 24 25  2  0  0  0
 24 32  1  0  0  0
 25 28  1  0  0  0
 26 29  1  0  0  0
 26 47  1  0  0  0
 26 48  1  0  0  0
 27 49  1  0  0  0
 27 50  1  0  0  0
 28 51  1  0  0  0
 28 52  1  0  0  0
 29 53  1  0  0  0
 29 54  1  0  0  0
 30 55  1  0  0  0
 30 56  1  0  0  0
 30 57  1  0  0  0
 31 58  1  0  0  0
 31 59  1  0  0  0
 31 60  1  0  0  0
 32 61  1  0  0  0
 32 62  1  0  0  0
 33 63  1  0  0  0
 33 64  1  0  0  0
 33 65  1  0  0  0
 34 66  1  0  0  0
 34 67  1  0  0  0
 34 68  1  0  0  0
M  END
> <Tumorigenic>
none

> <Score>
36.195267

> <Active/Decoy>
active

> <InChI>
InChI=1S/C27H34O7/c1-25(2)19(12-20(28)32-5)27(4)17-6-8-26(3)18(15(17)10-16(22(25)30)23(27)31)11-21(29)34-24(26)14-7-9-33-13-14/h7,9,13,16-17,19,22,24,30H,6,8,10-12H2,1-5H3/t16-,17+,19-,22+,24-,26-,27-/m0/s1

> <Matching Features>
H:14924486185440016873||HBA:14924321692640012300|HBA:14924486112070016868

> <Mol. Index>
356

> <Pharmacophore Match>
Model -1

> <# Confs.>
24

> <Source Database>
Pharm-Screening-input-EANPDB_After_DataWarror.ldb

> <Pharmacophore-Fit Score>
36.2

> <formula>
C27H34O7

> <Mutagenic>
none

> <Reproductive Effective>
none

> <Irritant>
none

$$$$
apigenin 7-O-glucoside
XX    ILIB03122411353D

 51 54  0  0  1  0              1 V2000
    1.4585    0.3769   -0.9224 O   0  0  0  0  0
    5.0477    1.7175   -2.2907 O   0  0  0  0  0
   -0.6217    1.1067   -5.2015 O   0  0  0  0  0
    3.9405    2.1607   -4.6647 O   0  0  0  0  0
    1.6645   -1.4431    5.1139 O   0  0  0  0  0
   -2.4778    0.0138   -4.2377 O   0  0  0  0  0
   -2.3079    3.2712   -5.8856 O   0  0  0  0  0
   -5.0919    2.4828   -6.2308 O   0  0  0  0  0
   -6.0164    0.9389   -3.9621 O   0  0  0  0  0
   -3.1837   -1.7431   -2.2156 O   0  0  0  0  0
    1.5759    0.7811   -2.2295 C   0  0  0  0  0
    2.5774    0.4187   -0.1048 C   0  0  0  0  0
    3.9584    1.3194   -1.9024 C   0  0  0  0  0
    0.4262    1.1240   -4.3379 C   0  0  0  0  0
    2.7884    1.6814   -4.1061 C   0  0  0  0  0
    1.8706   -0.9691    3.8489 C   0  0  0  0  0
    2.7648    1.2685   -2.7719 C   0  0  0  0  0
    2.3385   -0.0579    1.2539 C   0  0  0  0  0
    3.7813    0.8470   -0.5147 C   0  0  0  0  0
    0.4092    0.7262   -3.0003 C   0  0  0  0  0
    1.6301    1.6106   -4.8852 C   0  0  0  0  0
    1.1507    0.1196    3.3603 C   0  0  0  0  0
    2.8185   -1.6092    3.0554 C   0  0  0  0  0
    1.3844    0.5746    2.0615 C   0  0  0  0  0
    3.0521   -1.1538    1.7568 C   0  0  0  0  0
   -1.9207    1.2777   -4.6031 C   0  0  2  0  0
   -2.8138    1.9586   -5.6410 C   0  0  1  0  0
   -4.2561    2.0627   -5.1495 C   0  0  2  0  0
   -4.7659    0.7270   -4.6067 C   0  0  1  0  0
   -3.7585    0.1303   -3.6140 C   0  0  1  0  0
   -4.1492   -1.2588   -3.1430 C   0  0  0  0  0
    3.7627    2.4166   -5.5858 H   0  0  0  0  0
    0.9760   -0.8910    5.5375 H   0  0  0  0  0
   -2.9018    3.6962   -6.5278 H   0  0  0  0  0
   -5.0394    1.8092   -6.9299 H   0  0  0  0  0
   -6.6165    1.3397   -4.6131 H   0  0  0  0  0
   -2.3248   -1.7546   -2.6701 H   0  0  0  0  0
    4.6549    0.8824    0.1249 H   0  0  0  0  0
   -0.4986    0.3472   -2.5395 H   0  0  0  0  0
    1.6525    1.9363   -5.9228 H   0  0  0  0  0
    0.4097    0.6186    3.9784 H   0  0  0  0  0
    3.3780   -2.4594    3.4381 H   0  0  0  0  0
    0.8170    1.4249    1.6887 H   0  0  0  0  0
    3.7953   -1.6607    1.1457 H   0  0  0  0  0
   -1.8122    1.9146   -3.7145 H   0  0  0  0  0
   -2.7696    1.4161   -6.5933 H   0  0  0  0  0
   -4.3445    2.8431   -4.3852 H   0  0  0  0  0
   -4.9338    0.0259   -5.4392 H   0  0  0  0  0
   -3.6818    0.7787   -2.7306 H   0  0  0  0  0
   -4.2008   -1.9706   -3.9735 H   0  0  0  0  0
   -5.1173   -1.2419   -2.6324 H   0  0  0  0  0
  1 11  1  0  0  0
  1 12  1  0  0  0
  2 13  2  0  0  0
  3 14  1  0  0  0
  3 26  1  0  0  0
  4 15  1  0  0  0
  4 32  1  0  0  0
  5 16  1  0  0  0
  5 33  1  0  0  0
  6 26  1  0  0  0
  6 30  1  0  0  0
  7 27  1  0  0  0
  7 34  1  0  0  0
  8 28  1  0  0  0
  8 35  1  0  0  0
  9 29  1  0  0  0
  9 36  1  0  0  0
 10 31  1  0  0  0
 10 37  1  0  0  0
 11 17  2  0  0  0
 11 20  1  0  0  0
 12 18  1  0  0  0
 12 19  2  0  0  0
 13 17  1  0  0  0
 13 19  1  0  0  0
 14 20  2  0  0  0
 14 21  1  0  0  0
 15 17  1  0  0  0
 15 21  2  0  0  0
 16 22  2  0  0  0
 16 23  1  0  0  0
 18 24  2  0  0  0
 18 25  1  0  0  0
 19 38  1  0  0  0
 20 39  1  0  0  0
 21 40  1  0  0  0
 22 24  1  0  0  0
 22 41  1  0  0  0
 23 25  2  0  0  0
 23 42  1  0  0  0
 24 43  1  0  0  0
 25 44  1  0  0  0
 26 27  1  0  0  0
 26 45  1  0  0  0
 27 28  1  0  0  0
 27 46  1  0  0  0
 28 29  1  0  0  0
 28 47  1  0  0  0
 29 30  1  0  0  0
 29 48  1  0  0  0
 30 31  1  0  0  0
 30 49  1  0  0  0
 31 50  1  0  0  0
 31 51  1  0  0  0
M  END
> <Tumorigenic>
none

> <Score>
36.19268

> <Active/Decoy>
active

> <InChI>
InChI=1S/C21H20O10/c22-8-16-18(26)19(27)20(28)21(31-16)29-11-5-12(24)17-13(25)7-14(30-15(17)6-11)9-1-3-10(23)4-2-9/h1-7,16,18-24,26-28H,8H2/t16-,18-,19+,20-,21-/m1/s1

> <Matching Features>
H:14924486185440016873||HBA:14924321692640012300|HBA:14924486112070016868

> <Mol. Index>
374

> <Pharmacophore Match>
Model -1

> <# Confs.>
25

> <Source Database>
Pharm-Screening-input-EANPDB_After_DataWarror.ldb

> <Pharmacophore-Fit Score>
36.19

> <formula>
C21H20O10

> <Mutagenic>
none

> <Reproductive Effective>
none

> <Irritant>
none

$$$$
abyssinone III
XX    ILIB03122411353D

 55 58  0  0  1  0              1 V2000
   -1.7233    1.9182   -2.3149 O   0  0  0  0  0
    4.5500    1.5658   -2.0613 O   0  0  0  0  0
   -5.9877    1.0091   -4.1357 O   0  0  0  0  0
   -3.3104    4.4348    0.5061 O   0  0  0  0  0
   -3.0727    2.1626   -2.2765 C   0  0  0  0  0
    3.2346    1.9419   -2.0269 C   0  0  0  0  0
   -5.2391    1.6873   -3.2142 C   0  0  0  0  0
    0.5085    2.6247   -1.8667 C   0  0  0  0  0
   -3.6697    3.0302   -1.3571 C   0  0  0  0  0
    2.7553    3.0711   -2.6966 C   0  0  0  0  0
    2.3714    1.1405   -1.2628 C   0  0  0  0  0
   -3.8616    1.4754   -3.1984 C   0  0  0  0  0
   -5.8387    2.5676   -2.3138 C   0  0  0  0  0
    1.3974    3.4056   -2.6167 C   0  0  0  0  0
    1.0041    1.4981   -1.1954 C   0  0  0  0  0
   -5.0525    3.2397   -1.3775 C   0  0  0  0  0
   -0.9478    3.0042   -1.7860 C   0  0  2  0  0
   -2.8285    3.6869   -0.3358 C   0  0  0  0  0
    5.5211    2.4141   -2.7083 C   0  0  0  0  0
    3.6607    3.8869   -3.4891 C   0  0  0  0  0
    2.8466   -0.0732   -0.5313 C   0  0  0  0  0
   -1.3661    3.3209   -0.3515 C   0  0  0  0  0
    2.7588   -0.2512    2.0273 C   0  0  0  0  0
    4.9579    3.5748   -3.4898 C   0  0  0  0  0
    3.2729    0.2468    0.8773 C   0  0  0  0  0
    6.3110    1.5028   -3.6542 C   0  0  0  0  0
    6.4476    2.9428   -1.6079 C   0  0  0  0  0
    3.3387    0.1632    3.3536 C   0  0  0  0  0
    1.6139   -1.2182    2.1264 C   0  0  0  0  0
   -6.9197    1.2609   -4.0220 H   0  0  0  0  0
   -3.4063    0.7883   -3.9071 H   0  0  0  0  0
   -6.9132    2.7315   -2.3274 H   0  0  0  0  0
    1.0255    4.2834   -3.1416 H   0  0  0  0  0
    0.3247    0.8880   -0.6035 H   0  0  0  0  0
   -5.5325    3.9100   -0.6702 H   0  0  0  0  0
   -1.1173    3.8804   -2.4317 H   0  0  0  0  0
    3.2820    4.7304   -4.0534 H   0  0  0  0  0
    2.0396   -0.8205   -0.4914 H   0  0  0  0  0
    3.6612   -0.5376   -1.0825 H   0  0  0  0  0
   -1.2374    2.4602    0.3152 H   0  0  0  0  0
   -0.7854    4.1630    0.0391 H   0  0  0  0  0
    5.6442    4.1880   -4.0674 H   0  0  0  0  0
    4.0885    0.9515    0.9514 H   0  0  0  0  0
    5.6549    1.0736   -4.4213 H   0  0  0  0  0
    7.1254    2.0379   -4.1570 H   0  0  0  0  0
    6.7425    0.6549   -3.1096 H   0  0  0  0  0
    6.8762    2.1168   -1.0290 H   0  0  0  0  0
    7.2699    3.5411   -2.0163 H   0  0  0  0  0
    5.8932    3.5634   -0.8939 H   0  0  0  0  0
    4.1733    0.8631    3.2430 H   0  0  0  0  0
    3.7108   -0.7137    3.8936 H   0  0  0  0  0
    2.5746    0.6531    3.9670 H   0  0  0  0  0
    0.8402   -0.8169    2.7907 H   0  0  0  0  0
    1.1322   -1.4254    1.1685 H   0  0  0  0  0
    1.9599   -2.1691    2.5398 H   0  0  0  0  0
  1  5  1  0  0  0
  1 17  1  0  0  0
  2  6  1  0  0  0
  2 19  1  0  0  0
  3  7  1  0  0  0
  3 30  1  0  0  0
  4 18  2  0  0  0
  5  9  2  0  0  0
  5 12  1  0  0  0
  6 10  2  0  0  0
  6 11  1  0  0  0
  7 12  2  0  0  0
  7 13  1  0  0  0
  8 14  2  0  0  0
  8 15  1  0  0  0
  8 17  1  0  0  0
  9 16  1  0  0  0
  9 18  1  0  0  0
 10 14  1  0  0  0
 10 20  1  0  0  0
 11 15  2  0  0  0
 11 21  1  0  0  0
 12 31  1  0  0  0
 13 16  2  0  0  0
 13 32  1  0  0  0
 14 33  1  0  0  0
 15 34  1  0  0  0
 16 35  1  0  0  0
 17 22  1  0  0  0
 17 36  1  0  0  0
 18 22  1  0  0  0
 19 24  1  0  0  0
 19 26  1  0  0  0
 19 27  1  0  0  0
 20 24  2  0  0  0
 20 37  1  0  0  0
 21 25  1  0  0  0
 21 38  1  0  0  0
 21 39  1  0  0  0
 22 40  1  0  0  0
 22 41  1  0  0  0
 23 25  2  0  0  0
 23 28  1  0  0  0
 23 29  1  0  0  0
 24 42  1  0  0  0
 25 43  1  0  0  0
 26 44  1  0  0  0
 26 45  1  0  0  0
 26 46  1  0  0  0
 27 47  1  0  0  0
 27 48  1  0  0  0
 27 49  1  0  0  0
 28 50  1  0  0  0
 28 51  1  0  0  0
 28 52  1  0  0  0
 29 53  1  0  0  0
 29 54  1  0  0  0
 29 55  1  0  0  0
M  END
> <Tumorigenic>
none

> <Score>
36.10807

> <Active/Decoy>
active

> <InChI>
InChI=1S/C25H26O4/c1-15(2)5-6-16-11-18(12-17-9-10-25(3,4)29-24(16)17)22-14-21(27)20-8-7-19(26)13-23(20)28-22/h5,7-13,22,26H,6,14H2,1-4H3/t22-/m0/s1

> <Matching Features>
H:14924486185440016873||HBA:14924321692640012300|HBA:14924486112070016868

> <Mol. Index>
533

> <Pharmacophore Match>
Model -1

> <# Confs.>
25

> <Source Database>
Pharm-Screening-input-EANPDB_After_DataWarror.ldb

> <Pharmacophore-Fit Score>
36.11

> <formula>
C25H26O4

> <Mutagenic>
none

> <Reproductive Effective>
none

> <Irritant>
none

$$$$
3-(3'-acetoxy-2'-hydroxy-2'-methyl butyryl)-cuauhtemone
XX    ILIB03122411353D

 63 64  0  0  1  0              1 V2000
   -0.8141   -0.2642   -0.5468 O   0  0  0  0  0
   -4.0380   -0.3532   -3.8469 O   0  0  0  0  0
    0.9903   -1.9354    0.5551 O   0  0  0  0  0
   -3.4253   -2.0307   -1.6667 O   0  0  0  0  0
   -2.9147   -0.0129    0.3718 O   0  0  0  0  0
   -6.0040    0.8518   -3.7304 O   0  0  0  0  0
    5.3781    1.7131   -2.1687 O   0  0  0  0  0
    1.2008   -0.5269    0.7789 C   0  0  2  0  0
   -2.6644   -0.8308   -1.9067 C   0  0  1  0  0
   -0.1760    0.1721    0.6675 C   0  0  1  0  0
   -3.5728    0.1824   -2.5938 C   0  0  1  0  0
    2.1566   -0.0287   -0.3452 C   0  0  1  0  0
    2.2769    1.5235   -0.4855 C   0  0  1  0  0
   -2.1703   -0.3121   -0.5677 C   0  0  0  0  0
   -5.2563    0.0628   -4.2908 C   0  0  0  0  0
    4.3462    1.1114   -1.8833 C   0  0  0  0  0
   -0.0479    1.6981    0.6067 C   0  0  0  0  0
    3.5443   -0.7184   -0.3458 C   0  0  0  0  0
    3.0042    1.8116   -1.8227 C   0  0  0  0  0
    0.8638    2.1504   -0.5402 C   0  0  0  0  0
    1.7593   -0.4254    2.2032 C   0  0  0  0  0
   -1.4712   -1.2346   -2.7661 C   0  0  0  0  0
   -2.8717    1.5024   -2.9043 C   0  0  0  0  0
    3.0840    2.2197    0.6361 C   0  0  0  0  0
    4.3448   -0.3563   -1.5771 C   0  0  0  0  0
    5.0067   -1.2154   -2.3838 C   0  0  0  0  0
   -5.5747   -0.6144   -5.5894 C   0  0  0  0  0
    5.1346   -2.6906   -2.0904 C   0  0  0  0  0
    5.6836   -0.8288   -3.6772 C   0  0  0  0  0
    0.3195   -2.2430    1.1880 H   0  0  0  0  0
   -3.7167   -2.3778   -2.5277 H   0  0  0  0  0
   -0.8053   -0.1187    1.5198 H   0  0  0  0  0
   -4.4390    0.3952   -1.9506 H   0  0  0  0  0
    1.6857   -0.3786   -1.2800 H   0  0  0  0  0
   -1.0368    2.1447    0.4476 H   0  0  0  0  0
    0.3175    2.0872    1.5626 H   0  0  0  0  0
    4.1234   -0.4446    0.5420 H   0  0  0  0  0
    3.3822   -1.7981   -0.2887 H   0  0  0  0  0
    2.4134    1.4708   -2.6824 H   0  0  0  0  0
    3.1644    2.8883   -1.9534 H   0  0  0  0  0
    0.9345    3.2453   -0.5313 H   0  0  0  0  0
    0.3816    1.8898   -1.4917 H   0  0  0  0  0
    2.7215   -0.9382    2.2949 H   0  0  0  0  0
    1.8727    0.5962    2.5584 H   0  0  0  0  0
    1.0901   -0.9336    2.9103 H   0  0  0  0  0
   -0.8079   -0.3874   -2.9683 H   0  0  0  0  0
   -0.8773   -2.0135   -2.2726 H   0  0  0  0  0
   -1.8013   -1.6525   -3.7238 H   0  0  0  0  0
   -3.5587    2.1812   -3.4211 H   0  0  0  0  0
   -2.0206    1.3536   -3.5775 H   0  0  0  0  0
   -2.5204    1.9999   -1.9962 H   0  0  0  0  0
    4.0631    1.7603    0.8005 H   0  0  0  0  0
    2.5618    2.2373    1.5897 H   0  0  0  0  0
    3.2673    3.2703    0.3773 H   0  0  0  0  0
   -4.7380   -0.5022   -6.2841 H   0  0  0  0  0
   -5.7877   -1.6715   -5.4136 H   0  0  0  0  0
   -6.4536   -0.1427   -6.0396 H   0  0  0  0  0
    6.1540   -3.0294   -2.3009 H   0  0  0  0  0
    4.4466   -3.2617   -2.7211 H   0  0  0  0  0
    4.9439   -2.9444   -1.0459 H   0  0  0  0  0
    5.4577   -1.5610   -4.4566 H   0  0  0  0  0
    6.7696   -0.7948   -3.5402 H   0  0  0  0  0
    5.3483    0.1338   -4.0724 H   0  0  0  0  0
  1 10  1  0  0  0
  1 14  1  0  0  0
  2 11  1  0  0  0
  2 15  1  0  0  0
  3  8  1  0  0  0
  3 30  1  0  0  0
  4  9  1  0  0  0
  4 31  1  0  0  0
  5 14  2  0  0  0
  6 15  2  0  0  0
  7 16  2  0  0  0
  8 10  1  0  0  0
  8 12  1  0  0  0
  8 21  1  0  0  0
  9 11  1  0  0  0
  9 14  1  0  0  0
  9 22  1  0  0  0
 10 17  1  0  0  0
 10 32  1  0  0  0
 11 23  1  0  0  0
 11 33  1  0  0  0
 12 13  1  0  0  0
 12 18  1  0  0  0
 12 34  1  0  0  0
 13 19  1  0  0  0
 13 20  1  0  0  0
 13 24  1  0  0  0
 15 27  1  0  0  0
 16 19  1  0  0  0
 16 25  1  0  0  0
 17 20  1  0  0  0
 17 35  1  0  0  0
 17 36  1  0  0  0
 18 25  1  0  0  0
 18 37  1  0  0  0
 18 38  1  0  0  0
 19 39  1  0  0  0
 19 40  1  0  0  0
 20 41  1  0  0  0
 20 42  1  0  0  0
 21 43  1  0  0  0
 21 44  1  0  0  0
 21 45  1  0  0  0
 22 46  1  0  0  0
 22 47  1  0  0  0
 22 48  1  0  0  0
 23 49  1  0  0  0
 23 50  1  0  0  0
 23 51  1  0  0  0
 24 52  1  0  0  0
 24 53  1  0  0  0
 24 54  1  0  0  0
 25 26  2  0  0  0
 26 28  1  0  0  0
 26 29  1  0  0  0
 27 55  1  0  0  0
 27 56  1  0  0  0
 27 57  1  0  0  0
 28 58  1  0  0  0
 28 59  1  0  0  0
 28 60  1  0  0  0
 29 61  1  0  0  0
 29 62  1  0  0  0
 29 63  1  0  0  0
M  END
> <Tumorigenic>
none

> <Score>
36.110695

> <Active/Decoy>
active

> <InChI>
InChI=1S/C22H34O7/c1-12(2)15-10-17-20(5,11-16(15)24)9-8-18(22(17,7)27)29-19(25)21(6,26)13(3)28-14(4)23/h13,17-18,26-27H,8-11H2,1-7H3/t13-,17-,18-,20-,21+,22+/m1/s1

> <Matching Features>
H:14924486185440016873||HBA:14924321692640012300|HBA:14924486112070016868

> <Mol. Index>
181

> <Pharmacophore Match>
Model -1

> <# Confs.>
25

> <Source Database>
Pharm-Screening-input-EANPDB_After_DataWarror.ldb

> <Pharmacophore-Fit Score>
36.11

> <formula>
C22H34O7

> <Mutagenic>
none

> <Reproductive Effective>
none

> <Irritant>
none

$$$$
kaempferol 3-O-alpha-rhamnoside
XX    ILIB03122411353D

 51 54  0  0  1  0              1 V2000
   -2.6158    1.9118   -0.6169 O   0  0  0  0  0
    0.4112    2.4323   -3.2802 O   0  0  0  0  0
    1.0008    2.5480   -0.5576 O   0  0  0  0  0
   -1.2495    1.8618   -5.2533 O   0  0  0  0  0
   -5.7684    1.0060   -4.0542 O   0  0  0  0  0
   -0.9772    2.5786    5.4037 O   0  0  0  0  0
    2.1610    0.5384   -0.0152 O   0  0  0  0  0
    4.2276    1.4230   -1.7964 O   0  0  0  0  0
    5.2078    3.3652   -0.0250 O   0  0  0  0  0
    4.3628    2.1810    2.4416 O   0  0  0  0  0
   -1.3252    2.1792   -0.1862 C   0  0  0  0  0
   -2.8560    1.7617   -1.9572 C   0  0  0  0  0
   -0.4931    2.2099   -2.4845 C   0  0  0  0  0
   -0.2571    2.2940   -1.0195 C   0  0  0  0  0
   -2.2027    1.7353   -4.2795 C   0  0  0  0  0
   -4.4913    1.3003   -3.6662 C   0  0  0  0  0
   -1.0531    2.5026    4.0412 C   0  0  0  0  0
   -1.8667    1.9004   -2.9297 C   0  0  0  0  0
   -1.2277    2.2886    1.2655 C   0  0  0  0  0
   -4.1709    1.4610   -2.3204 C   0  0  0  0  0
   -3.5154    1.4357   -4.6499 C   0  0  0  0  0
   -0.6661    3.5766    3.2417 C   0  0  0  0  0
   -1.5285    1.3249    3.4707 C   0  0  0  0  0
   -0.7544    3.4688    1.8530 C   0  0  0  0  0
   -1.6163    1.2182    2.0822 C   0  0  0  0  0
    2.0014    1.6118   -0.9547 C   0  0  2  0  0
    3.3328    2.3373   -1.1622 C   0  0  1  0  0
    3.9138    2.8016    0.1742 C   0  0  1  0  0
    3.9851    1.6475    1.1756 C   0  0  2  0  0
    2.6193    0.9547    1.2751 C   0  0  2  0  0
    2.6743   -0.2903    2.1554 C   0  0  0  0  0
   -1.6626    1.7109   -6.1203 H   0  0  0  0  0
   -6.3266    0.9430   -3.2602 H   0  0  0  0  0
   -0.6320    3.4556    5.6442 H   0  0  0  0  0
    5.0274    1.9184   -2.0390 H   0  0  0  0  0
    5.8126    2.6483   -0.2797 H   0  0  0  0  0
    4.5792    1.4343    3.0241 H   0  0  0  0  0
   -4.9355    1.3547   -1.5557 H   0  0  0  0  0
   -3.7799    1.3073   -5.6968 H   0  0  0  0  0
   -0.2975    4.4969    3.6861 H   0  0  0  0  0
   -1.8314    0.4901    4.0967 H   0  0  0  0  0
   -0.4512    4.3128    1.2377 H   0  0  0  0  0
   -1.9889    0.2943    1.6455 H   0  0  0  0  0
    1.7027    1.1515   -1.9051 H   0  0  0  0  0
    3.2074    3.1955   -1.8323 H   0  0  0  0  0
    3.2910    3.6045    0.5878 H   0  0  0  0  0
    4.7634    0.9409    0.8640 H   0  0  0  0  0
    1.8801    1.6345    1.7169 H   0  0  0  0  0
    3.4004   -1.0127    1.7672 H   0  0  0  0  0
    2.9385   -0.0469    3.1877 H   0  0  0  0  0
    1.7017   -0.7958    2.1594 H   0  0  0  0  0
  1 11  1  0  0  0
  1 12  1  0  0  0
  2 13  2  0  0  0
  3 14  1  0  0  0
  3 26  1  0  0  0
  4 15  1  0  0  0
  4 32  1  0  0  0
  5 16  1  0  0  0
  5 33  1  0  0  0
  6 17  1  0  0  0
  6 34  1  0  0  0
  7 26  1  0  0  0
  7 30  1  0  0  0
  8 27  1  0  0  0
  8 35  1  0  0  0
  9 28  1  0  0  0
  9 36  1  0  0  0
 10 29  1  0  0  0
 10 37  1  0  0  0
 11 14  2  0  0  0
 11 19  1  0  0  0
 12 18  2  0  0  0
 12 20  1  0  0  0
 13 14  1  0  0  0
 13 18  1  0  0  0
 15 18  1  0  0  0
 15 21  2  0  0  0
 16 20  2  0  0  0
 16 21  1  0  0  0
 17 22  2  0  0  0
 17 23  1  0  0  0
 19 24  2  0  0  0
 19 25  1  0  0  0
 20 38  1  0  0  0
 21 39  1  0  0  0
 22 24  1  0  0  0
 22 40  1  0  0  0
 23 25  2  0  0  0
 23 41  1  0  0  0
 24 42  1  0  0  0
 25 43  1  0  0  0
 26 27  1  0  0  0
 26 44  1  0  0  0
 27 28  1  0  0  0
 27 45  1  0  0  0
 28 29  1  0  0  0
 28 46  1  0  0  0
 29 30  1  0  0  0
 29 47  1  0  0  0
 30 31  1  0  0  0
 30 48  1  0  0  0
 31 49  1  0  0  0
 31 50  1  0  0  0
 31 51  1  0  0  0
M  END
> <Tumorigenic>
none

> <Score>
36.09425

> <Active/Decoy>
active

> <InChI>
InChI=1S/C21H20O10/c1-8-15(25)17(27)18(28)21(29-8)31-20-16(26)14-12(24)6-11(23)7-13(14)30-19(20)9-2-4-10(22)5-3-9/h2-8,15,17-18,21-25,27-28H,1H3/t8-,15-,17+,18+,21-/m0/s1

> <Matching Features>
H:14924486185440016873||HBA:14924321692640012300|HBA:14924486112070016868

> <Mol. Index>
376

> <Pharmacophore Match>
Model -1

> <# Confs.>
25

> <Source Database>
Pharm-Screening-input-EANPDB_After_DataWarror.ldb

> <Pharmacophore-Fit Score>
36.09

> <formula>
C21H20O10

> <Mutagenic>
none

> <Reproductive Effective>
none

> <Irritant>
none

$$$$
mexicanolide
XX    ILIB03122411353D

 66 70  0  0  1  0              1 V2000
    1.8094   -1.3818    3.2344 O   0  0  0  0  0
    3.4647    0.7630   -0.4486 O   0  0  0  0  0
    4.8026    1.5954   -2.0540 O   0  0  0  0  0
   -6.1648    0.9848   -4.1315 O   0  0  0  0  0
   -0.5589   -1.3759   -4.7953 O   0  0  0  0  0
   -1.5495    2.3963   -6.6408 O   0  0  0  0  0
   -5.6964    2.6689   -2.6261 O   0  0  0  0  0
    1.4321   -1.1409    1.9542 C   0  0  0  0  0
    2.8626   -0.5648    3.4897 C   0  0  0  0  0
    2.2300   -0.1757    1.3750 C   0  0  0  0  0
    3.1616    0.1958    2.3845 C   0  0  0  0  0
   -0.5090    0.9839   -5.0488 C   0  0  1  0  0
    2.1360    0.3597   -0.0070 C   0  0  1  0  0
   -1.8708   -0.0639   -3.2057 C   0  0  1  0  0
    1.0988    1.4993   -0.2026 C   0  0  1  0  0
   -1.1400    0.8414   -2.1438 C   0  0  2  0  0
   -3.1852    0.6016   -3.7917 C   0  0  2  0  0
    3.6803    1.5106   -1.5574 C   0  0  0  0  0
   -5.4698    1.4754   -3.2633 C   0  0  0  0  0
   -0.9431   -0.2807   -4.3917 C   0  0  0  0  0
   -1.6785    1.7733   -5.5824 C   0  0  0  0  0
   -6.8754    3.3661   -3.0398 C   0  0  0  0  0
    0.3369    1.8018   -4.0764 C   0  0  0  0  0
    1.1848    1.7703   -1.7097 C   0  0  0  0  0
    0.1908    1.4805   -2.5933 C   0  0  0  0  0
   -2.9575    1.8811   -4.7318 C   0  0  0  0  0
   -0.3313    1.1024    0.2199 C   0  0  0  0  0
   -4.2279    0.8365   -2.7218 C   0  0  0  0  0
   -0.9873    0.1586   -0.7700 C   0  0  0  0  0
   -2.2284   -1.4948   -2.6945 C   0  0  0  0  0
    1.4573    2.7588    0.6270 C   0  0  0  0  0
    2.5307    2.3345   -2.0902 C   0  0  0  0  0
   -2.8837    3.2384   -4.0058 C   0  0  0  0  0
   -4.1370    1.9829   -5.7365 C   0  0  0  0  0
    0.5934   -1.7227    1.5989 H   0  0  0  0  0
    3.2836   -0.6391    4.4821 H   0  0  0  0  0
    3.9512    0.9277    2.3102 H   0  0  0  0  0
    0.1000    0.7117   -5.9219 H   0  0  0  0  0
    1.8772   -0.4912   -0.6535 H   0  0  0  0  0
   -1.8002    1.6927   -1.9487 H   0  0  0  0  0
   -3.5991   -0.1551   -4.4752 H   0  0  0  0  0
   -6.9682    4.2696   -2.4319 H   0  0  0  0  0
   -6.7911    3.6555   -4.0908 H   0  0  0  0  0
   -7.7606    2.7443   -2.8792 H   0  0  0  0  0
    0.1631    2.8752   -4.2215 H   0  0  0  0  0
    1.3701    1.6089   -4.3860 H   0  0  0  0  0
   -0.9590    2.0017    0.3018 H   0  0  0  0  0
   -0.3409    0.6514    1.2180 H   0  0  0  0  0
   -3.8221    1.4766   -1.9150 H   0  0  0  0  0
   -4.4991   -0.1081   -2.2434 H   0  0  0  0  0
   -0.4089   -0.7633   -0.8419 H   0  0  0  0  0
   -1.9740   -0.1050   -0.3721 H   0  0  0  0  0
   -2.8724   -1.4955   -1.8126 H   0  0  0  0  0
   -2.7496   -2.0719   -3.4674 H   0  0  0  0  0
   -1.3267   -2.0656   -2.4407 H   0  0  0  0  0
    0.8828    3.6280    0.2840 H   0  0  0  0  0
    2.5186    3.0218    0.5721 H   0  0  0  0  0
    1.2216    2.6144    1.6872 H   0  0  0  0  0
    2.6792    2.4097   -3.1682 H   0  0  0  0  0
    2.6343    3.3534   -1.6990 H   0  0  0  0  0
   -2.6737    4.0483   -4.7157 H   0  0  0  0  0
   -2.0873    3.2813   -3.2624 H   0  0  0  0  0
   -3.8274    3.4950   -3.5148 H   0  0  0  0  0
   -5.0880    2.1814   -5.2358 H   0  0  0  0  0
   -4.2386    1.0619   -6.3214 H   0  0  0  0  0
   -3.9919    2.8005   -6.4533 H   0  0  0  0  0
  1  8  1  0  0  0
  1  9  1  0  0  0
  2 13  1  0  0  0
  2 18  1  0  0  0
  3 18  2  0  0  0
  4 19  2  0  0  0
  5 20  2  0  0  0
  6 21  2  0  0  0
  7 19  1  0  0  0
  7 22  1  0  0  0
  8 10  2  0  0  0
  8 35  1  0  0  0
  9 11  2  0  0  0
  9 36  1  0  0  0
 10 11  1  0  0  0
 10 13  1  0  0  0
 11 37  1  0  0  0
 12 20  1  0  0  0
 12 21  1  0  0  0
 12 23  1  0  0  0
 12 38  1  0  0  0
 13 15  1  0  0  0
 13 39  1  0  0  0
 14 16  1  0  0  0
 14 17  1  0  0  0
 14 20  1  0  0  0
 14 30  1  0  0  0
 15 24  1  0  0  0
 15 27  1  0  0  0
 15 31  1  0  0  0
 16 25  1  0  0  0
 16 29  1  0  0  0
 16 40  1  0  0  0
 17 26  1  0  0  0
 17 28  1  0  0  0
 17 41  1  0  0  0
 18 32  1  0  0  0
 19 28  1  0  0  0
 21 26  1  0  0  0
 22 42  1  0  0  0
 22 43  1  0  0  0
 22 44  1  0  0  0
 23 25  1  0  0  0
 23 45  1  0  0  0
 23 46  1  0  0  0
 24 25  2  0  0  0
 24 32  1  0  0  0
 26 33  1  0  0  0
 26 34  1  0  0  0
 27 29  1  0  0  0
 27 47  1  0  0  0
 27 48  1  0  0  0
 28 49  1  0  0  0
 28 50  1  0  0  0
 29 51  1  0  0  0
 29 52  1  0  0  0
 30 53  1  0  0  0
 30 54  1  0  0  0
 30 55  1  0  0  0
 31 56  1  0  0  0
 31 57  1  0  0  0
 31 58  1  0  0  0
 32 59  1  0  0  0
 32 60  1  0  0  0
 33 61  1  0  0  0
 33 62  1  0  0  0
 33 63  1  0  0  0
 34 64  1  0  0  0
 34 65  1  0  0  0
 34 66  1  0  0  0
M  END
> <Tumorigenic>
none

> <Score>
36.032825

> <Active/Decoy>
active

> <InChI>
InChI=1S/C27H32O7/c1-25(2)19(12-20(28)32-5)27(4)17-6-8-26(3)18(15(17)10-16(22(25)30)23(27)31)11-21(29)34-24(26)14-7-9-33-13-14/h7,9,13,16-17,19,24H,6,8,10-12H2,1-5H3/t16-,17+,19+,24+,26-,27+/m1/s1

> <Matching Features>
H:14924486185440016873||HBA:14924321692640012300|HBA:14924486112070016868

> <Mol. Index>
357

> <Pharmacophore Match>
Model -1

> <# Confs.>
25

> <Source Database>
Pharm-Screening-input-EANPDB_After_DataWarror.ldb

> <Pharmacophore-Fit Score>
36.03

> <formula>
C27H32O7

> <Mutagenic>
none

> <Reproductive Effective>
none

> <Irritant>
none

$$$$
isolophanthin E
XX    ILIB03122411353D

 53 55  0  0  1  0              1 V2000
    3.7304   -0.7224   -0.3705 O   0  0  0  0  0
    3.9122    1.4999   -2.1028 O   0  0  0  0  0
   -4.9425    0.9734   -3.6926 O   0  0  0  0  0
   -0.5517    1.6515   -1.2796 C   0  0  0  0  0
   -1.6113    0.9896   -0.6301 C   0  0  0  0  0
   -2.7488    0.5775   -2.7734 C   0  0  0  0  0
   -0.6147    1.7701   -2.6777 C   0  0  0  0  0
   -2.6790    0.4579   -1.3818 C   0  0  0  0  0
   -1.6814    1.2403   -3.4107 C   0  0  0  0  0
    2.9934    0.4752   -0.1202 C   0  0  1  0  0
    2.6868    1.1580   -1.4520 C   0  0  1  0  0
    0.5759    2.2917   -0.4629 C   0  0  1  0  0
    0.8456    1.4752    0.8599 C   0  0  2  0  0
   -3.8857    0.0211   -3.5904 C   0  0  0  0  0
   -1.6497    0.7778    0.8617 C   0  0  0  0  0
    1.7063    0.1538    0.6992 C   0  0  0  0  0
    1.9283    2.4547   -1.2129 C   0  0  0  0  0
   -0.4648    1.3199    1.6549 C   0  0  0  0  0
    0.0999    3.7225   -0.1305 C   0  0  0  0  0
   -3.4582   -0.3281   -5.0132 C   0  0  0  0  0
   -4.4563   -1.2389   -2.8953 C   0  0  0  0  0
    2.1628   -0.3349    2.1005 C   0  0  0  0  0
    0.9559   -1.0309    0.0548 C   0  0  0  0  0
    4.5999   -0.4663   -0.7219 H   0  0  0  0  0
    4.3370    0.6707   -2.3808 H   0  0  0  0  0
   -5.4981    0.9294   -2.9131 H   0  0  0  0  0
    0.1601    2.2859   -3.2359 H   0  0  0  0  0
   -3.4801   -0.0520   -0.8488 H   0  0  0  0  0
   -1.6693    1.3509   -4.4919 H   0  0  0  0  0
    3.6524    1.1213    0.4728 H   0  0  0  0  0
    2.1422    0.4959   -2.1317 H   0  0  0  0  0
    1.4769    2.1315    1.4811 H   0  0  0  0  0
   -1.7416   -0.2978    1.0531 H   0  0  0  0  0
   -2.5672    1.2334    1.2569 H   0  0  0  0  0
    1.8097    2.9935   -2.1607 H   0  0  0  0  0
    2.5809    3.1173   -0.6228 H   0  0  0  0  0
   -0.3258    0.7168    2.5575 H   0  0  0  0  0
   -0.7469    2.3081    2.0419 H   0  0  0  0  0
    0.0259    4.3334   -1.0391 H   0  0  0  0  0
    0.7985    4.2270    0.5488 H   0  0  0  0  0
   -0.8904    3.7417    0.3374 H   0  0  0  0  0
   -2.6914   -1.1097   -5.0463 H   0  0  0  0  0
   -4.3156   -0.6680   -5.6055 H   0  0  0  0  0
   -3.0633    0.5591   -5.5233 H   0  0  0  0  0
   -4.8043   -1.0092   -1.8816 H   0  0  0  0  0
   -5.3275   -1.6188   -3.4428 H   0  0  0  0  0
   -3.7153   -2.0424   -2.8236 H   0  0  0  0  0
    1.3193   -0.6772    2.7086 H   0  0  0  0  0
    2.6744    0.4615    2.6514 H   0  0  0  0  0
    2.8568   -1.1794    2.0242 H   0  0  0  0  0
    0.6111   -0.8105   -0.9572 H   0  0  0  0  0
    0.0984   -1.3419    0.6566 H   0  0  0  0  0
    1.5967   -1.9159   -0.0197 H   0  0  0  0  0
  1 10  1  0  0  0
  1 24  1  0  0  0
  2 11  1  0  0  0
  2 25  1  0  0  0
  3 14  1  0  0  0
  3 26  1  0  0  0
  4  5  2  0  0  0
  4  7  1  0  0  0
  4 12  1  0  0  0
  5  8  1  0  0  0
  5 15  1  0  0  0
  6  8  2  0  0  0
  6  9  1  0  0  0
  6 14  1  0  0  0
  7  9  2  0  0  0
  7 27  1  0  0  0
  8 28  1  0  0  0
  9 29  1  0  0  0
 10 11  1  0  0  0
 10 16  1  0  0  0
 10 30  1  0  0  0
 11 17  1  0  0  0
 11 31  1  0  0  0
 12 13  1  0  0  0
 12 17  1  0  0  0
 12 19  1  0  0  0
 13 16  1  0  0  0
 13 18  1  0  0  0
 13 32  1  0  0  0
 14 20  1  0  0  0
 14 21  1  0  0  0
 15 18  1  0  0  0
 15 33  1  0  0  0
 15 34  1  0  0  0
 16 22  1  0  0  0
 16 23  1  0  0  0
 17 35  1  0  0  0
 17 36  1  0  0  0
 18 37  1  0  0  0
 18 38  1  0  0  0
 19 39  1  0  0  0
 19 40  1  0  0  0
 19 41  1  0  0  0
 20 42  1  0  0  0
 20 43  1  0  0  0
 20 44  1  0  0  0
 21 45  1  0  0  0
 21 46  1  0  0  0
 21 47  1  0  0  0
 22 48  1  0  0  0
 22 49  1  0  0  0
 22 50  1  0  0  0
 23 51  1  0  0  0
 23 52  1  0  0  0
 23 53  1  0  0  0
M  END
> <Tumorigenic>
none

> <Score>
35.898758

> <Active/Decoy>
active

> <InChI>
InChI=1S/C20H30O3/c1-18(2)16-9-6-12-10-13(19(3,4)23)7-8-14(12)20(16,5)11-15(21)17(18)22/h7-8,10,15-17,21-23H,6,9,11H2,1-5H3/t15-,16+,17+,20+/m1/s1

> <Matching Features>
H:14924486185440016873||HBA:14924321692640012300|HBA:14924486112070016868

> <Mol. Index>
197

> <Pharmacophore Match>
Model -1

> <# Confs.>
25

> <Source Database>
Pharm-Screening-input-EANPDB_After_DataWarror.ldb

> <Pharmacophore-Fit Score>
35.9

> <formula>
C20H30O3

> <Mutagenic>
none

> <Reproductive Effective>
none

> <Irritant>
none

$$$$
3-O-(3'-acetoxy-2'-hydroxy-2'-methylbutyryl)cuauthemone
XX    ILIB03122411353D

 66 67  0  0  1  0              1 V2000
    0.5578    0.0710   -0.6379 O   0  0  0  0  0
    4.4105    1.2022    0.5834 O   0  0  0  0  0
    0.1946    0.8657   -3.0865 O   0  0  0  0  0
    2.9192   -1.1504    0.1537 O   0  0  0  0  0
    0.0378   -0.1604    1.5972 O   0  0  0  0  0
    4.8095    1.4518   -1.6767 O   0  0  0  0  0
   -6.2863    0.9551   -4.0948 O   0  0  0  0  0
   -0.9940    1.0131   -2.2842 C   0  0  2  0  0
    2.3603   -0.0528    0.9016 C   0  0  1  0  0
   -0.8324    0.1314   -1.0066 C   0  0  1  0  0
    2.9839    1.2410    0.3908 C   0  0  1  0  0
   -2.2497    0.5910   -3.1853 C   0  0  1  0  0
   -3.3848   -0.0819   -2.3092 C   0  0  1  0  0
    0.8583   -0.0749    0.6776 C   0  0  0  0  0
    5.1939    1.3177   -0.5240 C   0  0  0  0  0
   -5.0949    0.6651   -4.0383 C   0  0  0  0  0
   -1.3663   -1.2870   -1.1697 C   0  0  0  0  0
   -2.8509    1.8036   -3.9717 C   0  0  0  0  0
   -4.5952   -0.4900   -3.1955 C   0  0  0  0  0
   -2.8327   -1.3560   -1.6097 C   0  0  0  0  0
   -0.9801    2.4929   -1.8516 C   0  0  0  0  0
    2.6721   -0.3211    2.3700 C   0  0  0  0  0
    2.4684    2.4818    1.1153 C   0  0  0  0  0
   -1.7510   -0.4121   -4.2935 C   0  0  0  0  0
   -3.9770    0.8627   -1.2226 C   0  0  0  0  0
   -4.0609    1.4317   -4.8041 C   0  0  0  0  0
   -4.2586    1.7050   -6.1128 C   0  0  0  0  0
    6.6380    1.2341   -0.1278 C   0  0  0  0  0
   -3.3172    2.5497   -6.9368 C   0  0  0  0  0
   -5.4236    1.1887   -6.9263 C   0  0  0  0  0
    0.9634    1.0401   -2.5173 H   0  0  0  0  0
    3.8795   -1.1614    0.3103 H   0  0  0  0  0
   -1.3722    0.5945   -0.1735 H   0  0  0  0  0
    2.7694    1.3542   -0.6818 H   0  0  0  0  0
   -1.2528   -1.8395   -0.2282 H   0  0  0  0  0
   -0.7307   -1.8369   -1.8731 H   0  0  0  0  0
   -2.0581    2.2304   -4.5911 H   0  0  0  0  0
   -3.1626    2.6022   -3.2905 H   0  0  0  0  0
   -4.3615   -1.3219   -3.8684 H   0  0  0  0  0
   -5.4240   -0.8374   -2.5667 H   0  0  0  0  0
   -2.9347   -2.2271   -2.2711 H   0  0  0  0  0
   -3.4538   -1.5918   -0.7357 H   0  0  0  0  0
   -0.8800    3.1609   -2.7131 H   0  0  0  0  0
   -0.1074    2.7031   -1.2203 H   0  0  0  0  0
   -1.8721    2.7741   -1.2872 H   0  0  0  0  0
    2.2478    0.4470    3.0247 H   0  0  0  0  0
    2.2683   -1.2903    2.6867 H   0  0  0  0  0
    3.7539   -0.3622    2.5400 H   0  0  0  0  0
    2.9680    3.3774    0.7304 H   0  0  0  0  0
    2.6922    2.4403    2.1867 H   0  0  0  0  0
    1.3904    2.6106    0.9850 H   0  0  0  0  0
   -2.5613   -0.8232   -4.8992 H   0  0  0  0  0
   -1.0775    0.0880   -5.0000 H   0  0  0  0  0
   -1.2070   -1.2633   -3.8784 H   0  0  0  0  0
   -4.8036    0.3692   -0.6938 H   0  0  0  0  0
   -3.2648    1.1541   -0.4539 H   0  0  0  0  0
   -4.3878    1.7837   -1.6470 H   0  0  0  0  0
    6.8421    1.9317    0.6895 H   0  0  0  0  0
    6.8807    0.2121    0.1714 H   0  0  0  0  0
    7.2646    1.5169   -0.9779 H   0  0  0  0  0
   -2.7034    1.9114   -7.5806 H   0  0  0  0  0
   -2.6558    3.1773   -6.3340 H   0  0  0  0  0
   -3.8877    3.2342   -7.5735 H   0  0  0  0  0
   -6.1641    1.9818   -7.0715 H   0  0  0  0  0
   -5.0789    0.8570   -7.9123 H   0  0  0  0  0
   -5.9177    0.3240   -6.4742 H   0  0  0  0  0
  1 10  1  0  0  0
  1 14  1  0  0  0
  2 11  1  0  0  0
  2 15  1  0  0  0
  3  8  1  0  0  0
  3 31  1  0  0  0
  4  9  1  0  0  0
  4 32  1  0  0  0
  5 14  2  0  0  0
  6 15  2  0  0  0
  7 16  2  0  0  0
  8 10  1  0  0  0
  8 12  1  0  0  0
  8 21  1  0  0  0
  9 11  1  0  0  0
  9 14  1  0  0  0
  9 22  1  0  0  0
 10 17  1  0  0  0
 10 33  1  0  0  0
 11 23  1  0  0  0
 11 34  1  0  0  0
 12 13  1  0  0  0
 12 18  1  0  0  0
 12 24  1  0  0  0
 13 19  1  0  0  0
 13 20  1  0  0  0
 13 25  1  0  0  0
 15 28  1  0  0  0
 16 19  1  0  0  0
 16 26  1  0  0  0
 17 20  1  0  0  0
 17 35  1  0  0  0
 17 36  1  0  0  0
 18 26  1  0  0  0
 18 37  1  0  0  0
 18 38  1  0  0  0
 19 39  1  0  0  0
 19 40  1  0  0  0
 20 41  1  0  0  0
 20 42  1  0  0  0
 21 43  1  0  0  0
 21 44  1  0  0  0
 21 45  1  0  0  0
 22 46  1  0  0  0
 22 47  1  0  0  0
 22 48  1  0  0  0
 23 49  1  0  0  0
 23 50  1  0  0  0
 23 51  1  0  0  0
 24 52  1  0  0  0
 24 53  1  0  0  0
 24 54  1  0  0  0
 25 55  1  0  0  0
 25 56  1  0  0  0
 25 57  1  0  0  0
 26 27  2  0  0  0
 27 29  1  0  0  0
 27 30  1  0  0  0
 28 58  1  0  0  0
 28 59  1  0  0  0
 28 60  1  0  0  0
 29 61  1  0  0  0
 29 62  1  0  0  0
 29 63  1  0  0  0
 30 64  1  0  0  0
 30 65  1  0  0  0
 30 66  1  0  0  0
M  END
> <Tumorigenic>
none

> <Score>
35.85825

> <Active/Decoy>
active

> <InChI>
InChI=1S/C23H36O7/c1-13(2)16-11-21(6)20(5,12-17(16)25)10-9-18(23(21,8)28)30-19(26)22(7,27)14(3)29-15(4)24/h14,18,27-28H,9-12H2,1-8H3/t14-,18-,20-,21-,22+,23-/m1/s1

> <Matching Features>
H:14924486185440016873||HBA:14924321692640012300|HBA:14924486112070016868

> <Mol. Index>
175

> <Pharmacophore Match>
Model -1

> <# Confs.>
25

> <Source Database>
Pharm-Screening-input-EANPDB_After_DataWarror.ldb

> <Pharmacophore-Fit Score>
35.86

> <formula>
C23H36O7

> <Mutagenic>
none

> <Reproductive Effective>
none

> <Irritant>
none

$$$$
nataloin
XX    ILIB03122411353D

 52 55  0  0  1  0              1 V2000
   -4.8337    2.2024   -1.5150 O   0  0  0  0  0
   -5.3833    0.9959   -3.8989 O   0  0  0  0  0
   -1.8652    2.2469    2.6806 O   0  0  0  0  0
    0.4043    2.5259   -2.0531 O   0  0  0  0  0
    2.5510    1.0417   -0.7027 O   0  0  0  0  0
    4.4647    1.7634   -2.6058 O   0  0  0  0  0
    3.0250    3.7434   -1.3325 O   0  0  0  0  0
   -2.8059    2.8587    0.1899 O   0  0  0  0  0
   -0.7851    4.1064   -4.1141 O   0  0  0  0  0
   -3.8528    1.4416   -2.0912 C   0  0  0  0  0
   -4.1622    0.8268   -3.3047 C   0  0  0  0  0
   -1.0017    1.4717    1.9564 C   0  0  0  0  0
   -0.1957    0.4525   -0.0887 C   0  0  0  0  0
   -1.6441    0.4342   -2.1550 C   0  0  0  0  0
   -2.5906    1.2472   -1.5117 C   0  0  0  0  0
   -1.1175    1.2648    0.5745 C   0  0  0  0  0
    0.9336    0.0170    2.0406 C   0  0  0  0  0
    0.0220    0.8590    2.6801 C   0  0  0  0  0
   -3.2354    0.0159   -3.9478 C   0  0  0  0  0
    0.8254   -0.1755    0.6585 C   0  0  0  0  0
   -1.9810   -0.1793   -3.3741 C   0  0  0  0  0
    0.7433    1.1740   -2.3490 C   0  0  1  0  0
    2.2428    0.9131   -2.0884 C   0  0  1  0  0
    3.0794    1.9061   -2.9017 C   0  0  1  0  0
    2.6453    3.3527   -2.6577 C   0  0  1  0  0
    1.1258    3.5447   -2.7620 C   0  0  1  0  0
   -0.2414    0.2681   -1.5914 C   0  0  1  0  0
   -2.2139    1.8697   -0.2199 C   0  0  0  0  0
    0.5860    3.7282   -4.1697 C   0  0  0  0  0
    2.0517   -0.6189    2.8107 C   0  0  0  0  0
   -4.5229    2.5321   -0.6564 H   0  0  0  0  0
   -5.9133    1.5865   -3.3364 H   0  0  0  0  0
   -2.5513    2.6010    2.0925 H   0  0  0  0  0
    2.2780    1.9296   -0.4170 H   0  0  0  0  0
    4.7019    0.8325   -2.7565 H   0  0  0  0  0
    3.9844    3.6057   -1.2530 H   0  0  0  0  0
   -1.2615    3.4021   -3.6429 H   0  0  0  0  0
    0.1036    1.0332    3.7525 H   0  0  0  0  0
   -3.4764   -0.4621   -4.8925 H   0  0  0  0  0
    1.5470   -0.8153    0.1553 H   0  0  0  0  0
   -1.2569   -0.8049   -3.8903 H   0  0  0  0  0
    0.5583    1.0024   -3.4238 H   0  0  0  0  0
    2.5204   -0.1077   -2.3706 H   0  0  0  0  0
    2.9631    1.6725   -3.9644 H   0  0  0  0  0
    3.1716    4.0332   -3.3362 H   0  0  0  0  0
    0.8662    4.4658   -2.2241 H   0  0  0  0  0
    0.0298   -0.7933   -1.7855 H   0  0  0  0  0
    0.6545    2.8048   -4.7547 H   0  0  0  0  0
    1.1247    4.5207   -4.6962 H   0  0  0  0  0
    2.9301    0.0332    2.8011 H   0  0  0  0  0
    1.7579   -0.8016    3.8484 H   0  0  0  0  0
    2.3238   -1.5869    2.3765 H   0  0  0  0  0
  1 10  1  0  0  0
  1 31  1  0  0  0
  2 11  1  0  0  0
  2 32  1  0  0  0
  3 12  1  0  0  0
  3 33  1  0  0  0
  4 22  1  0  0  0
  4 26  1  0  0  0
  5 23  1  0  0  0
  5 34  1  0  0  0
  6 24  1  0  0  0
  6 35  1  0  0  0
  7 25  1  0  0  0
  7 36  1  0  0  0
  8 28  2  0  0  0
  9 29  1  0  0  0
  9 37  1  0  0  0
 10 11  1  0  0  0
 10 15  2  0  0  0
 11 19  2  0  0  0
 12 16  2  0  0  0
 12 18  1  0  0  0
 13 16  1  0  0  0
 13 20  2  0  0  0
 13 27  1  0  0  0
 14 15  1  0  0  0
 14 21  2  0  0  0
 14 27  1  0  0  0
 15 28  1  0  0  0
 16 28  1  0  0  0
 17 18  2  0  0  0
 17 20  1  0  0  0
 17 30  1  0  0  0
 18 38  1  0  0  0
 19 21  1  0  0  0
 19 39  1  0  0  0
 20 40  1  0  0  0
 21 41  1  0  0  0
 22 23  1  0  0  0
 22 27  1  0  0  0
 22 42  1  0  0  0
 23 24  1  0  0  0
 23 43  1  0  0  0
 24 25  1  0  0  0
 24 44  1  0  0  0
 25 26  1  0  0  0
 25 45  1  0  0  0
 26 29  1  0  0  0
 26 46  1  0  0  0
 27 47  1  0  0  0
 29 48  1  0  0  0
 29 49  1  0  0  0
 30 50  1  0  0  0
 30 51  1  0  0  0
 30 52  1  0  0  0
M  END
> <Tumorigenic>
none

> <Score>
35.84115

> <Active/Decoy>
active

> <InChI>
InChI=1S/C21H22O9/c1-7-4-9-13(21-20(29)19(28)17(26)12(6-22)30-21)8-2-3-10(23)16(25)15(8)18(27)14(9)11(24)5-7/h2-5,12-13,17,19-26,28-29H,6H2,1H3/t12-,13-,17-,19-,20-,21-/m1/s1

> <Matching Features>
H:14924486185440016873||HBA:14924321692640012300|HBA:14924486112070016868

> <Mol. Index>
80

> <Pharmacophore Match>
Model -1

> <# Confs.>
7

> <Source Database>
Pharm-Screening-input-EANPDB_After_DataWarror.ldb

> <Pharmacophore-Fit Score>
35.84

> <formula>
C21H22O9

> <Mutagenic>
none

> <Reproductive Effective>
none

> <Irritant>
none

$$$$
kaempferol 3-arabinoside
XX    ILIB03122411353D

 48 51  0  0  1  0              1 V2000
   -1.1772    0.5296   -1.0137 O   0  0  0  0  0
    0.7867    2.4012   -4.0394 O   0  0  0  0  0
    2.2730    1.4430   -1.9102 O   0  0  0  0  0
   -1.4641    2.4922   -5.4215 O   0  0  0  0  0
   -5.3427    0.7663   -3.2858 O   0  0  0  0  0
    2.5291   -1.0065    3.8706 O   0  0  0  0  0
    2.3920   -0.8661   -2.3455 O   0  0  0  0  0
    5.0991    1.5780   -1.9094 O   0  0  0  0  0
    6.3790   -0.9430   -1.2631 O   0  0  0  0  0
    4.1514   -2.5293   -0.7897 O   0  0  0  0  0
    0.1954    0.7184   -0.9636 C   0  0  0  0  0
   -1.8636    0.9102   -2.1368 C   0  0  0  0  0
    0.1973    1.7760   -3.1668 C   0  0  0  0  0
    0.9213    1.2693   -1.9720 C   0  0  0  0  0
   -2.0364    1.8877   -4.3357 C   0  0  0  0  0
   -3.9977    1.0097   -3.2493 C   0  0  0  0  0
    1.9523   -0.6230    2.6910 C   0  0  0  0  0
   -1.2566    1.5301   -3.2282 C   0  0  0  0  0
    0.7907    0.2222    0.2844 C   0  0  0  0  0
   -3.2352    0.6486   -2.1415 C   0  0  0  0  0
   -3.4098    1.6272   -4.3486 C   0  0  0  0  0
    2.0753    0.7041    2.2970 C   0  0  0  0  0
    1.2570   -1.5355    1.9037 C   0  0  0  0  0
    1.4958    1.1236    1.0976 C   0  0  0  0  0
    0.6777   -1.1129    0.7048 C   0  0  0  0  0
    3.0593    0.4016   -2.4710 C   0  0  2  0  0
    4.3832    0.3643   -1.6807 C   0  0  1  0  0
    5.2473   -0.8207   -2.1179 C   0  0  2  0  0
    4.4534   -2.1258   -2.1262 C   0  0  2  0  0
    3.1473   -1.9514   -2.8909 C   0  0  0  0  0
   -2.1527    2.6649   -6.0866 H   0  0  0  0  0
   -5.6028    0.3318   -2.4550 H   0  0  0  0  0
    2.3585   -1.9544    4.0042 H   0  0  0  0  0
    5.2609    1.6561   -2.8647 H   0  0  0  0  0
    6.0544   -1.1583   -0.3720 H   0  0  0  0  0
    3.5280   -1.8858   -0.4112 H   0  0  0  0  0
   -3.7013    0.1666   -1.2861 H   0  0  0  0  0
   -4.0168    1.9013   -5.2069 H   0  0  0  0  0
    2.6175    1.4167    2.9115 H   0  0  0  0  0
    1.1572   -2.5731    2.2094 H   0  0  0  0  0
    1.6031    2.1661    0.8064 H   0  0  0  0  0
    0.1366   -1.8461    0.1115 H   0  0  0  0  0
    3.2566    0.6198   -3.5183 H   0  0  0  0  0
    4.1917    0.3197   -0.6025 H   0  0  0  0  0
    5.6373   -0.6290   -3.1241 H   0  0  0  0  0
    5.0538   -2.9294   -2.5645 H   0  0  0  0  0
    3.3256   -1.7709   -3.9566 H   0  0  0  0  0
    2.5287   -2.8484   -2.7932 H   0  0  0  0  0
  1 11  1  0  0  0
  1 12  1  0  0  0
  2 13  2  0  0  0
  3 14  1  0  0  0
  3 26  1  0  0  0
  4 15  1  0  0  0
  4 31  1  0  0  0
  5 16  1  0  0  0
  5 32  1  0  0  0
  6 17  1  0  0  0
  6 33  1  0  0  0
  7 26  1  0  0  0
  7 30  1  0  0  0
  8 27  1  0  0  0
  8 34  1  0  0  0
  9 28  1  0  0  0
  9 35  1  0  0  0
 10 29  1  0  0  0
 10 36  1  0  0  0
 11 14  2  0  0  0
 11 19  1  0  0  0
 12 18  2  0  0  0
 12 20  1  0  0  0
 13 14  1  0  0  0
 13 18  1  0  0  0
 15 18  1  0  0  0
 15 21  2  0  0  0
 16 20  2  0  0  0
 16 21  1  0  0  0
 17 22  2  0  0  0
 17 23  1  0  0  0
 19 24  2  0  0  0
 19 25  1  0  0  0
 20 37  1  0  0  0
 21 38  1  0  0  0
 22 24  1  0  0  0
 22 39  1  0  0  0
 23 25  2  0  0  0
 23 40  1  0  0  0
 24 41  1  0  0  0
 25 42  1  0  0  0
 26 27  1  0  0  0
 26 43  1  0  0  0
 27 28  1  0  0  0
 27 44  1  0  0  0
 28 29  1  0  0  0
 28 45  1  0  0  0
 29 30  1  0  0  0
 29 46  1  0  0  0
 30 47  1  0  0  0
 30 48  1  0  0  0
M  END
> <Tumorigenic>
none

> <Score>
35.712013

> <Active/Decoy>
active

> <InChI>
InChI=1S/C20H18O10/c21-9-3-1-8(2-4-9)18-19(30-20-17(27)15(25)12(24)7-28-20)16(26)14-11(23)5-10(22)6-13(14)29-18/h1-6,12,15,17,20-25,27H,7H2/t12-,15-,17+,20-/m0/s1

> <Matching Features>
H:14924486185440016873||HBA:14924321692640012300|HBA:14924486112070016868

> <Mol. Index>
138

> <Pharmacophore Match>
Model -1

> <# Confs.>
25

> <Source Database>
Pharm-Screening-input-EANPDB_After_DataWarror.ldb

> <Pharmacophore-Fit Score>
35.71

> <formula>
C20H18O10

> <Mutagenic>
none

> <Reproductive Effective>
none

> <Irritant>
none

$$$$
turraparvin C
XX    ILIB03122411353D

 76 80  0  0  1  0              1 V2000
   -3.4846   -0.2043   -2.9912 O   0  0  0  0  0
   -1.2989   -0.3995   -3.8483 O   0  0  0  0  0
    3.5817    0.3087   -2.1411 O   0  0  0  0  0
   -2.3738    2.6020   -0.5705 O   0  0  0  0  0
   -5.5006    0.8051   -3.4400 O   0  0  0  0  0
    5.3339    1.7918   -2.3889 O   0  0  0  0  0
   -2.6993    3.7817    1.3883 O   0  0  0  0  0
    4.2497    3.3577    4.2444 O   0  0  0  0  0
   -2.1274    0.2443   -2.8940 C   0  0  1  0  0
    3.0663    1.0191   -1.0097 C   0  0  1  0  0
   -0.9419    2.7148   -0.4629 C   0  0  2  0  0
    1.5279    0.8637   -0.9027 C   0  0  1  0  0
   -0.1901    2.7403   -1.8340 C   0  0  2  0  0
    1.7738    0.9688    1.7592 C   0  0  1  0  0
    1.0793    1.5103    0.4553 C   0  0  2  0  0
   -1.0422    2.6265   -3.1557 C   0  0  2  0  0
    3.3445    0.9591    1.6151 C   0  0  1  0  0
   -4.2933    0.8516   -3.2898 C   0  0  0  0  0
    4.6982    0.8074   -2.7404 C   0  0  0  0  0
   -3.1212    3.1751    0.4131 C   0  0  0  0  0
    3.5590    2.7545    3.4209 C   0  0  0  0  0
   -2.2151    1.7011   -3.1707 C   0  0  0  0  0
    0.8245    1.6145   -2.0542 C   0  0  0  0  0
   -0.4628    1.6083    0.4911 C   0  0  0  0  0
    3.7944    0.4359    0.2306 C   0  0  0  0  0
    1.3502    1.8159    2.9510 C   0  0  0  0  0
    4.1100    2.2551    2.0817 C   0  0  0  0  0
   -0.0160    2.1428   -4.2043 C   0  0  0  0  0
    1.1259   -0.6232   -1.0659 C   0  0  0  0  0
    0.5936    4.0880   -1.8933 C   0  0  0  0  0
    1.2989   -0.4583    2.1338 C   0  0  0  0  0
   -3.4780    2.0613   -3.3968 C   0  0  0  0  0
    2.1258    2.5904    3.7097 C   0  0  0  0  0
    0.9324    1.3462   -3.3697 C   0  0  0  0  0
    5.0510   -0.0368   -3.9282 C   0  0  0  0  0
   -4.5772    2.9355    0.1404 C   0  0  0  0  0
    5.6068    1.9183    2.3177 C   0  0  0  0  0
    4.0582    3.4484    1.1180 C   0  0  0  0  0
   -0.9717   -1.2180   -3.4389 H   0  0  0  0  0
   -1.7560    0.0436   -1.8827 H   0  0  0  0  0
    3.3114    2.0820   -1.1080 H   0  0  0  0  0
   -0.7276    3.6566    0.0659 H   0  0  0  0  0
    1.4150    2.5533    0.4182 H   0  0  0  0  0
   -1.4005    3.6236   -3.4475 H   0  0  0  0  0
    3.6902    0.1923    2.3278 H   0  0  0  0  0
   -0.9465    0.6577    0.2479 H   0  0  0  0  0
   -0.8434    1.8581    1.4856 H   0  0  0  0  0
    3.6799   -0.6555    0.2199 H   0  0  0  0  0
    4.8723    0.5665    0.0947 H   0  0  0  0  0
    0.3082    1.7488    3.2582 H   0  0  0  0  0
   -0.4661    1.5291   -4.9914 H   0  0  0  0  0
    0.5083    2.9779   -4.6825 H   0  0  0  0  0
    1.7008   -1.2924   -0.4287 H   0  0  0  0  0
    0.0674   -0.7999   -0.8578 H   0  0  0  0  0
    1.3038   -0.9923   -2.0831 H   0  0  0  0  0
    1.1913    4.1951   -2.8052 H   0  0  0  0  0
   -0.1008    4.9362   -1.8622 H   0  0  0  0  0
    1.2852    4.1967   -1.0517 H   0  0  0  0  0
    1.5316   -0.6907    3.1820 H   0  0  0  0  0
    1.7941   -1.2378    1.5550 H   0  0  0  0  0
    0.2174   -0.5779    2.0157 H   0  0  0  0  0
   -3.8605    3.0428   -3.6150 H   0  0  0  0  0
    1.7197    3.1155    4.5672 H   0  0  0  0  0
    1.5783    0.5962   -3.8028 H   0  0  0  0  0
    5.0695   -1.0922   -3.6443 H   0  0  0  0  0
    4.3275    0.1320   -4.7292 H   0  0  0  0  0
    6.0490    0.2352   -4.2839 H   0  0  0  0  0
   -4.8168    3.2254   -0.8848 H   0  0  0  0  0
   -4.8154    1.8829    0.3086 H   0  0  0  0  0
   -5.1786    3.5521    0.8160 H   0  0  0  0  0
    6.1537    2.7773    2.7244 H   0  0  0  0  0
    6.1212    1.6339    1.3962 H   0  0  0  0  0
    5.7185    1.1001    3.0379 H   0  0  0  0  0
    4.5806    3.2372    0.1812 H   0  0  0  0  0
    3.0371    3.7614    0.8948 H   0  0  0  0  0
    4.5523    4.3246    1.5560 H   0  0  0  0  0
  1  9  1  0  0  0
  1 18  1  0  0  0
  2  9  1  0  0  0
  2 39  1  0  0  0
  3 10  1  0  0  0
  3 19  1  0  0  0
  4 11  1  0  0  0
  4 20  1  0  0  0
  5 18  2  0  0  0
  6 19  2  0  0  0
  7 20  2  0  0  0
  8 21  2  0  0  0
  9 22  1  0  0  0
  9 40  1  0  0  0
 10 12  1  0  0  0
 10 25  1  0  0  0
 10 41  1  0  0  0
 11 13  1  0  0  0
 11 24  1  0  0  0
 11 42  1  0  0  0
 12 15  1  0  0  0
 12 23  1  0  0  0
 12 29  1  0  0  0
 13 16  1  0  0  0
 13 23  1  0  0  0
 13 30  1  0  0  0
 14 15  1  0  0  0
 14 17  1  0  0  0
 14 26  1  0  0  0
 14 31  1  0  0  0
 15 24  1  0  0  0
 15 43  1  0  0  0
 16 22  1  0  0  0
 16 28  1  0  0  0
 16 44  1  0  0  0
 17 25  1  0  0  0
 17 27  1  0  0  0
 17 45  1  0  0  0
 18 32  1  0  0  0
 19 35  1  0  0  0
 20 36  1  0  0  0
 21 27  1  0  0  0
 21 33  1  0  0  0
 22 32  2  0  0  0
 23 34  2  0  0  0
 24 46  1  0  0  0
 24 47  1  0  0  0
 25 48  1  0  0  0
 25 49  1  0  0  0
 26 33  2  0  0  0
 26 50  1  0  0  0
 27 37  1  0  0  0
 27 38  1  0  0  0
 28 34  1  0  0  0
 28 51  1  0  0  0
 28 52  1  0  0  0
 29 53  1  0  0  0
 29 54  1  0  0  0
 29 55  1  0  0  0
 30 56  1  0  0  0
 30 57  1  0  0  0
 30 58  1  0  0  0
 31 59  1  0  0  0
 31 60  1  0  0  0
 31 61  1  0  0  0
 32 62  1  0  0  0
 33 63  1  0  0  0
 34 64  1  0  0  0
 35 65  1  0  0  0
 35 66  1  0  0  0
 35 67  1  0  0  0
 36 68  1  0  0  0
 36 69  1  0  0  0
 36 70  1  0  0  0
 37 71  1  0  0  0
 37 72  1  0  0  0
 37 73  1  0  0  0
 38 74  1  0  0  0
 38 75  1  0  0  0
 38 76  1  0  0  0
M  END
> <Tumorigenic>
none

> <Score>
35.700886

> <Active/Decoy>
active

> <InChI>
InChI=1S/C30H38O8/c1-15(31)36-23-14-21-28(5)11-10-22(33)27(3,4)20(28)13-24(37-16(2)32)30(21,7)19-9-8-18(29(19,23)6)17-12-25(34)38-26(17)35/h9-12,18,20-21,23-24,26,35H,8,13-14H2,1-7H3/t18-,20-,21-,23-,24+,26+,28+,29+,30+/m0/s1

> <Matching Features>
H:14924486185440016873||HBA:14924321692640012300|HBA:14924486112070016868

> <Mol. Index>
365

> <Pharmacophore Match>
Model -1

> <# Confs.>
20

> <Source Database>
Pharm-Screening-input-EANPDB_After_DataWarror.ldb

> <Pharmacophore-Fit Score>
35.7

> <formula>
C30H38O8

> <Mutagenic>
none

> <Reproductive Effective>
none

> <Irritant>
none

$$$$
turraparvin B
XX    ILIB03122411353D

 71 75  0  0  1  0              1 V2000
    6.2346   -3.2889   -0.0897 O   0  0  0  0  0
    6.0272   -1.0221   -0.6889 O   0  0  0  0  0
    3.3805   -0.3199   -2.1009 O   0  0  0  0  0
   -1.5210   -0.5005    1.2442 O   0  0  0  0  0
    5.2523   -5.3282   -0.4965 O   0  0  0  0  0
    4.4105    1.7117   -2.4890 O   0  0  0  0  0
   -4.7792    0.8911   -3.4231 O   0  0  0  0  0
    5.7587   -1.9969    0.3044 C   0  0  1  0  0
    2.5506    0.2832   -1.1142 C   0  0  2  0  0
   -1.1080    0.8624    1.2952 C   0  0  1  0  0
    0.2402    1.0310    0.5455 C   0  0  2  0  0
    2.1664   -0.7382   -0.0317 C   0  0  1  0  0
   -1.1314    1.8893   -1.5793 C   0  0  2  0  0
   -0.0133    0.9366   -0.9934 C   0  0  1  0  0
    3.3549   -1.1230    0.9165 C   0  0  2  0  0
   -2.4796    1.7769   -0.7681 C   0  0  2  0  0
    5.1853   -4.1553   -0.1723 C   0  0  0  0  0
    4.2647    0.5178   -2.7138 C   0  0  0  0  0
   -3.7009    0.9742   -2.8360 C   0  0  0  0  0
    4.2953   -2.1933    0.4690 C   0  0  0  0  0
    1.2326   -0.0613    0.9644 C   0  0  0  0  0
    1.3092    0.9100   -1.8186 C   0  0  0  0  0
   -2.2413    1.7504    0.7657 C   0  0  0  0  0
   -1.3456    1.5747   -3.0548 C   0  0  0  0  0
   -3.5482    0.7606   -1.3232 C   0  0  0  0  0
    2.6613   -1.3983    2.2718 C   0  0  0  0  0
    0.8880    2.3746    0.9678 C   0  0  0  0  0
    1.5211   -2.0137   -0.6382 C   0  0  0  0  0
   -0.7147    3.3864   -1.5846 C   0  0  0  0  0
    3.9569   -3.4532    0.1961 C   0  0  0  0  0
   -2.4839    1.1961   -3.6371 C   0  0  0  0  0
    1.5014   -0.4640    2.2171 C   0  0  0  0  0
    5.0597   -0.2466   -3.7291 C   0  0  0  0  0
   -4.9312    1.0401   -0.6822 C   0  0  0  0  0
   -3.2541   -0.7326   -1.1352 C   0  0  0  0  0
    6.9060   -0.6530   -0.4993 H   0  0  0  0  0
   -2.2871   -0.5945    1.8363 H   0  0  0  0  0
    6.2403   -1.7116    1.2472 H   0  0  0  0  0
    3.1079    1.1037   -0.6402 H   0  0  0  0  0
   -0.9671    1.0979    2.3574 H   0  0  0  0  0
   -0.4314   -0.0636   -1.1444 H   0  0  0  0  0
    3.9717   -0.2217    1.0698 H   0  0  0  0  0
   -2.9837    2.7460   -0.9293 H   0  0  0  0  0
    1.1254    0.3589   -2.7509 H   0  0  0  0  0
    1.5943    1.9170   -2.1378 H   0  0  0  0  0
   -3.1659    1.4837    1.2865 H   0  0  0  0  0
   -2.0322    2.7803    1.0813 H   0  0  0  0  0
   -0.4964    1.7317   -3.7181 H   0  0  0  0  0
    3.3291   -1.1553    3.1041 H   0  0  0  0  0
    2.3028   -2.4251    2.3915 H   0  0  0  0  0
    1.3540    2.3056    1.9584 H   0  0  0  0  0
    0.1653    3.1847    1.0567 H   0  0  0  0  0
    1.6678    2.6988    0.2718 H   0  0  0  0  0
    0.6456   -1.8031   -1.2552 H   0  0  0  0  0
    1.1947   -2.7106    0.1419 H   0  0  0  0  0
    2.2272   -2.5487   -1.2819 H   0  0  0  0  0
   -0.7746    3.8473   -0.5980 H   0  0  0  0  0
    0.2947    3.5491   -1.9719 H   0  0  0  0  0
   -1.3884    3.9788   -2.2188 H   0  0  0  0  0
    2.9829   -3.9002    0.2368 H   0  0  0  0  0
   -2.5469    1.0545   -4.7094 H   0  0  0  0  0
    0.9941   -0.1110    3.1046 H   0  0  0  0  0
    5.8348    0.4025   -4.1459 H   0  0  0  0  0
    5.5475   -1.1009   -3.2530 H   0  0  0  0  0
    4.4041   -0.5785   -4.5368 H   0  0  0  0  0
   -4.9448    0.8130    0.3891 H   0  0  0  0  0
   -5.7173    0.4278   -1.1381 H   0  0  0  0  0
   -5.2251    2.0881   -0.8120 H   0  0  0  0  0
   -3.9440   -1.3426   -1.7329 H   0  0  0  0  0
   -2.2500   -1.0102   -1.4608 H   0  0  0  0  0
   -3.3953   -1.0474   -0.0995 H   0  0  0  0  0
  1  8  1  0  0  0
  1 17  1  0  0  0
  2  8  1  0  0  0
  2 36  1  0  0  0
  3  9  1  0  0  0
  3 18  1  0  0  0
  4 10  1  0  0  0
  4 37  1  0  0  0
  5 17  2  0  0  0
  6 18  2  0  0  0
  7 19  2  0  0  0
  8 20  1  0  0  0
  8 38  1  0  0  0
  9 12  1  0  0  0
  9 22  1  0  0  0
  9 39  1  0  0  0
 10 11  1  0  0  0
 10 23  1  0  0  0
 10 40  1  0  0  0
 11 14  1  0  0  0
 11 21  1  0  0  0
 11 27  1  0  0  0
 12 15  1  0  0  0
 12 21  1  0  0  0
 12 28  1  0  0  0
 13 14  1  0  0  0
 13 16  1  0  0  0
 13 24  1  0  0  0
 13 29  1  0  0  0
 14 22  1  0  0  0
 14 41  1  0  0  0
 15 20  1  0  0  0
 15 26  1  0  0  0
 15 42  1  0  0  0
 16 23  1  0  0  0
 16 25  1  0  0  0
 16 43  1  0  0  0
 17 30  1  0  0  0
 18 33  1  0  0  0
 19 25  1  0  0  0
 19 31  1  0  0  0
 20 30  2  0  0  0
 21 32  2  0  0  0
 22 44  1  0  0  0
 22 45  1  0  0  0
 23 46  1  0  0  0
 23 47  1  0  0  0
 24 31  2  0  0  0
 24 48  1  0  0  0
 25 34  1  0  0  0
 25 35  1  0  0  0
 26 32  1  0  0  0
 26 49  1  0  0  0
 26 50  1  0  0  0
 27 51  1  0  0  0
 27 52  1  0  0  0
 27 53  1  0  0  0
 28 54  1  0  0  0
 28 55  1  0  0  0
 28 56  1  0  0  0
 29 57  1  0  0  0
 29 58  1  0  0  0
 29 59  1  0  0  0
 30 60  1  0  0  0
 31 61  1  0  0  0
 32 62  1  0  0  0
 33 63  1  0  0  0
 33 64  1  0  0  0
 33 65  1  0  0  0
 34 66  1  0  0  0
 34 67  1  0  0  0
 34 68  1  0  0  0
 35 69  1  0  0  0
 35 70  1  0  0  0
 35 71  1  0  0  0
M  END
> <Tumorigenic>
none

> <Score>
35.620827

> <Active/Decoy>
active

> <InChI>
InChI=1S/C28H36O7/c1-14(29)34-22-13-19-26(4)10-9-20(30)25(2,3)18(26)12-21(31)28(19,6)17-8-7-16(27(17,22)5)15-11-23(32)35-24(15)33/h8-11,16,18-19,21-22,24,31,33H,7,12-13H2,1-6H3/t16-,18+,19+,21+,22-,24+,26-,27-,28-/m0/s1

> <Matching Features>
H:14924486185440016873||HBA:14924321692640012300|HBA:14924486112070016868

> <Mol. Index>
363

> <Pharmacophore Match>
Model -1

> <# Confs.>
8

> <Source Database>
Pharm-Screening-input-EANPDB_After_DataWarror.ldb

> <Pharmacophore-Fit Score>
35.62

> <formula>
C28H36O7

> <Mutagenic>
none

> <Reproductive Effective>
none

> <Irritant>
none

$$$$
8-prenylluteone
XX    ILIB03122411353D

 57 59  0  0  1  0              1 V2000
    0.8584    0.0857   -1.5822 O   0  0  0  0  0
   -0.3934    2.6738   -4.4525 O   0  0  0  0  0
    1.9791    3.6522   -4.6059 O   0  0  0  0  0
   -2.9164    2.6341   -1.4407 O   0  0  0  0  0
    5.3494    1.5753   -1.8183 O   0  0  0  0  0
   -6.5085    0.8972   -4.0178 O   0  0  0  0  0
    1.7612    0.9648   -2.1299 C   0  0  0  0  0
   -0.4547    0.1811   -1.9534 C   0  0  0  0  0
   -0.0239    1.9316   -3.5516 C   0  0  0  0  0
    2.3732    2.7586   -3.6413 C   0  0  0  0  0
   -3.3473    1.8083   -2.4492 C   0  0  0  0  0
    4.0529    1.7316   -2.2471 C   0  0  0  0  0
   -5.1714    0.9186   -3.7461 C   0  0  0  0  0
    1.3954    1.8937   -3.1071 C   0  0  0  0  0
   -0.9778    1.0127   -2.8649 C   0  0  0  0  0
   -2.4206    1.0087   -3.1448 C   0  0  0  0  0
    3.0860    0.8634   -1.6771 C   0  0  0  0  0
    3.7084    2.7115   -3.2010 C   0  0  0  0  0
   -4.7129    1.7709   -2.7488 C   0  0  0  0  0
   -4.2857    0.1059   -4.4434 C   0  0  0  0  0
   -2.9223    0.1500   -4.1404 C   0  0  0  0  0
    3.4790   -0.1601   -0.6611 C   0  0  0  0  0
    4.7354    3.6766   -3.7208 C   0  0  0  0  0
    2.5953   -0.1532    1.7284 C   0  0  0  0  0
    6.6988    3.4240   -5.3439 C   0  0  0  0  0
    3.3523    0.3369    0.7384 C   0  0  0  0  0
    5.4403    3.1627   -4.9435 C   0  0  0  0  0
    2.6263    0.4681    3.0994 C   0  0  0  0  0
    1.6524   -1.3155    1.5961 C   0  0  0  0  0
    7.2518    2.7851   -6.5906 C   0  0  0  0  0
    7.6567    4.3451   -4.6428 C   0  0  0  0  0
    2.7536    3.9940   -5.0783 H   0  0  0  0  0
   -3.6852    3.0914   -1.0576 H   0  0  0  0  0
    5.9587    2.0150   -2.4311 H   0  0  0  0  0
   -6.6692    0.2528   -4.7282 H   0  0  0  0  0
   -1.0299   -0.5320   -1.3772 H   0  0  0  0  0
   -5.4165    2.3960   -2.2048 H   0  0  0  0  0
   -4.6388   -0.5634   -5.2223 H   0  0  0  0  0
   -2.2541   -0.4948   -4.7093 H   0  0  0  0  0
    4.5272   -0.4692   -0.8414 H   0  0  0  0  0
    2.8842   -1.0673   -0.8148 H   0  0  0  0  0
    5.4813    3.8721   -2.9432 H   0  0  0  0  0
    4.2554    4.6404   -3.9262 H   0  0  0  0  0
    3.9944    1.1991    0.9620 H   0  0  0  0  0
    4.8416    2.4848   -5.5515 H   0  0  0  0  0
    3.3262    1.3085    3.1624 H   0  0  0  0  0
    1.6337    0.8435    3.3687 H   0  0  0  0  0
    2.9311   -0.2720    3.8451 H   0  0  0  0  0
    0.6518   -1.0261    1.9328 H   0  0  0  0  0
    1.5488   -1.6776    0.5717 H   0  0  0  0  0
    1.9946   -2.1506    2.2144 H   0  0  0  0  0
    6.5299    2.1176   -7.0729 H   0  0  0  0  0
    7.5295    3.5527   -7.3184 H   0  0  0  0  0
    8.1413    2.1935   -6.3511 H   0  0  0  0  0
    8.0394    5.0931   -5.3461 H   0  0  0  0  0
    7.2053    4.8934   -3.8138 H   0  0  0  0  0
    8.5059    3.7780   -4.2481 H   0  0  0  0  0
  1  7  1  0  0  0
  1  8  1  0  0  0
  2  9  2  0  0  0
  3 10  1  0  0  0
  3 32  1  0  0  0
  4 11  1  0  0  0
  4 33  1  0  0  0
  5 12  1  0  0  0
  5 34  1  0  0  0
  6 13  1  0  0  0
  6 35  1  0  0  0
  7 14  2  0  0  0
  7 17  1  0  0  0
  8 15  2  0  0  0
  8 36  1  0  0  0
  9 14  1  0  0  0
  9 15  1  0  0  0
 10 14  1  0  0  0
 10 18  2  0  0  0
 11 16  2  0  0  0
 11 19  1  0  0  0
 12 17  2  0  0  0
 12 18  1  0  0  0
 13 19  2  0  0  0
 13 20  1  0  0  0
 15 16  1  0  0  0
 16 21  1  0  0  0
 17 22  1  0  0  0
 18 23  1  0  0  0
 19 37  1  0  0  0
 20 21  2  0  0  0
 20 38  1  0  0  0
 21 39  1  0  0  0
 22 26  1  0  0  0
 22 40  1  0  0  0
 22 41  1  0  0  0
 23 27  1  0  0  0
 23 42  1  0  0  0
 23 43  1  0  0  0
 24 26  2  0  0  0
 24 28  1  0  0  0
 24 29  1  0  0  0
 25 27  2  0  0  0
 25 30  1  0  0  0
 25 31  1  0  0  0
 26 44  1  0  0  0
 27 45  1  0  0  0
 28 46  1  0  0  0
 28 47  1  0  0  0
 28 48  1  0  0  0
 29 49  1  0  0  0
 29 50  1  0  0  0
 29 51  1  0  0  0
 30 52  1  0  0  0
 30 53  1  0  0  0
 30 54  1  0  0  0
 31 55  1  0  0  0
 31 56  1  0  0  0
 31 57  1  0  0  0
M  END
> <Tumorigenic>
none

> <Score>
35.56202

> <Active/Decoy>
active

> <InChI>
InChI=1S/C25H26O6/c1-13(2)5-8-17-22(28)18(9-6-14(3)4)25-21(23(17)29)24(30)19(12-31-25)16-10-7-15(26)11-20(16)27/h5-7,10-12,26-29H,8-9H2,1-4H3

> <Matching Features>
H:14924486185440016873||HBA:14924321692640012300|HBA:14924486112070016868

> <Mol. Index>
250

> <Pharmacophore Match>
Model -1

> <# Confs.>
25

> <Source Database>
Pharm-Screening-input-EANPDB_After_DataWarror.ldb

> <Pharmacophore-Fit Score>
35.56

> <formula>
C25H26O6

> <Mutagenic>
none

> <Reproductive Effective>
none

> <Irritant>
none

$$$$
barbaloin A
XX    ILIB03122411353D

 52 55  0  0  1  0              1 V2000
   -2.0500   -3.5217   -1.7847 O   0  0  0  0  0
    1.8973   -3.4443    1.3154 O   0  0  0  0  0
   -0.0415    2.1461   -2.2700 O   0  0  0  0  0
    1.6725    3.2372   -0.1979 O   0  0  0  0  0
    3.9613    1.5860   -2.3113 O   0  0  0  0  0
    2.7263    3.4452   -4.3652 O   0  0  0  0  0
    0.5647   -3.1159   -0.9911 O   0  0  0  0  0
   -4.6942    0.9484   -3.5441 O   0  0  0  0  0
   -1.4828    3.6759   -4.1243 O   0  0  0  0  0
   -2.1116   -2.1699   -1.5887 C   0  0  0  0  0
    1.7324   -2.0946    1.4589 C   0  0  0  0  0
   -1.2267   -0.0495   -0.8185 C   0  0  0  0  0
    0.7345   -0.0001    0.7366 C   0  0  0  0  0
   -1.0797   -1.4263   -1.0021 C   0  0  0  0  0
    0.9133   -1.3825    0.5739 C   0  0  0  0  0
   -3.4630   -0.1671   -1.8025 C   0  0  0  0  0
   -3.2939   -1.5428   -1.9837 C   0  0  0  0  0
    2.3673   -1.4366    2.5129 C   0  0  0  0  0
   -2.4302    0.5731   -1.2129 C   0  0  0  0  0
    1.3682    0.6468    1.8084 C   0  0  0  0  0
    2.1796   -0.0673    2.6902 C   0  0  0  0  0
    0.7805    1.3504   -1.4050 C   0  0  1  0  0
    2.0435    2.0803   -0.9459 C   0  0  1  0  0
    2.8957    2.5232   -2.1432 C   0  0  2  0  0
    2.0806    2.5618   -3.4506 C   0  0  1  0  0
    0.6493    3.0207   -3.1692 C   0  0  1  0  0
   -0.0880    0.7901   -0.2669 C   0  0  1  0  0
    0.1719   -2.0583   -0.5180 C   0  0  0  0  0
   -4.7434    0.4999   -2.1964 C   0  0  0  0  0
   -0.2010    3.1423   -4.4264 C   0  0  0  0  0
   -1.2044   -3.8581   -1.4455 H   0  0  0  0  0
    2.4881   -3.7653    2.0185 H   0  0  0  0  0
    2.4894    3.6399    0.1423 H   0  0  0  0  0
    4.4937    1.8848   -3.0678 H   0  0  0  0  0
    2.6749    4.3456   -4.0014 H   0  0  0  0  0
   -4.3608    0.2186   -4.0942 H   0  0  0  0  0
   -1.9424    3.0366   -3.5556 H   0  0  0  0  0
   -4.0936   -2.1326   -2.4276 H   0  0  0  0  0
    3.0008   -1.9818    3.2073 H   0  0  0  0  0
   -2.5567    1.6434   -1.0690 H   0  0  0  0  0
    1.2419    1.7162    1.9578 H   0  0  0  0  0
    2.6680    0.4449    3.5134 H   0  0  0  0  0
    1.1034    0.4731   -2.0097 H   0  0  0  0  0
    2.6212    1.4311   -0.2781 H   0  0  0  0  0
    3.3638    3.4954   -1.9464 H   0  0  0  0  0
    2.0893    1.5714   -3.9092 H   0  0  0  0  0
    0.6674    4.0138   -2.7022 H   0  0  0  0  0
   -0.5516    1.6387    0.2819 H   0  0  0  0  0
   -4.9463    1.3624   -1.5529 H   0  0  0  0  0
   -5.5879   -0.1880   -2.0882 H   0  0  0  0  0
    0.2789    3.8165   -5.1434 H   0  0  0  0  0
   -0.3268    2.1784   -4.9333 H   0  0  0  0  0
  1 10  1  0  0  0
  1 31  1  0  0  0
  2 11  1  0  0  0
  2 32  1  0  0  0
  3 22  1  0  0  0
  3 26  1  0  0  0
  4 23  1  0  0  0
  4 33  1  0  0  0
  5 24  1  0  0  0
  5 34  1  0  0  0
  6 25  1  0  0  0
  6 35  1  0  0  0
  7 28  2  0  0  0
  8 29  1  0  0  0
  8 36  1  0  0  0
  9 30  1  0  0  0
  9 37  1  0  0  0
 10 14  2  0  0  0
 10 17  1  0  0  0
 11 15  2  0  0  0
 11 18  1  0  0  0
 12 14  1  0  0  0
 12 19  2  0  0  0
 12 27  1  0  0  0
 13 15  1  0  0  0
 13 20  2  0  0  0
 13 27  1  0  0  0
 14 28  1  0  0  0
 15 28  1  0  0  0
 16 17  2  0  0  0
 16 19  1  0  0  0
 16 29  1  0  0  0
 17 38  1  0  0  0
 18 21  2  0  0  0
 18 39  1  0  0  0
 19 40  1  0  0  0
 20 21  1  0  0  0
 20 41  1  0  0  0
 21 42  1  0  0  0
 22 23  1  0  0  0
 22 27  1  0  0  0
 22 43  1  0  0  0
 23 24  1  0  0  0
 23 44  1  0  0  0
 24 25  1  0  0  0
 24 45  1  0  0  0
 25 26  1  0  0  0
 25 46  1  0  0  0
 26 30  1  0  0  0
 26 47  1  0  0  0
 27 48  1  0  0  0
 29 49  1  0  0  0
 29 50  1  0  0  0
 30 51  1  0  0  0
 30 52  1  0  0  0
M  END
> <Tumorigenic>
none

> <Score>
35.556934

> <Active/Decoy>
active

> <InChI>
InChI=1S/C21H22O9/c22-6-8-4-10-14(21-20(29)19(28)17(26)13(7-23)30-21)9-2-1-3-11(24)15(9)18(27)16(10)12(25)5-8/h1-5,13-14,17,19-26,28-29H,6-7H2/t13-,14-,17-,19+,20-,21-/m1/s1

> <Matching Features>
H:14924486185440016873||HBA:14924321692640012300|HBA:14924486112070016868

> <Mol. Index>
70

> <Pharmacophore Match>
Model -1

> <# Confs.>
25

> <Source Database>
Pharm-Screening-input-EANPDB_After_DataWarror.ldb

> <Pharmacophore-Fit Score>
35.56

> <formula>
C21H22O9

> <Mutagenic>
none

> <Reproductive Effective>
none

> <Irritant>
none

$$$$
2,3-dehydrokievitone
XX    ILIB03122411353D

 44 46  0  0  1  0              1 V2000
    0.8273    0.0146   -1.5364 O   0  0  0  0  0
   -0.3816    2.6185   -4.4173 O   0  0  0  0  0
    2.0534    3.5430   -4.5957 O   0  0  0  0  0
   -2.9203    2.6039   -1.4341 O   0  0  0  0  0
    5.3654    1.5920   -1.8566 O   0  0  0  0  0
   -6.5163    0.9001   -4.0280 O   0  0  0  0  0
    1.7521    0.8550   -2.1094 C   0  0  0  0  0
   -0.4833    0.1213   -1.9201 C   0  0  0  0  0
   -0.0260    1.8592   -3.5249 C   0  0  0  0  0
    2.3716    2.6268   -3.6304 C   0  0  0  0  0
   -3.3530    1.7803   -2.4422 C   0  0  0  0  0
    4.0466    1.5947   -2.2289 C   0  0  0  0  0
   -5.1812    0.9057   -3.7468 C   0  0  0  0  0
    1.3925    1.7836   -3.0951 C   0  0  0  0  0
   -0.9920    0.9540   -2.8389 C   0  0  0  0  0
   -2.4332    0.9659   -3.1282 C   0  0  0  0  0
    3.0805    0.7339   -1.6760 C   0  0  0  0  0
    3.6949    2.5292   -3.2040 C   0  0  0  0  0
   -4.7189    1.7574   -2.7502 C   0  0  0  0  0
   -4.3008    0.0792   -4.4350 C   0  0  0  0  0
   -2.9389    0.1088   -4.1233 C   0  0  0  0  0
    3.4495   -0.2866   -0.6249 C   0  0  0  0  0
    2.5851   -0.1894    1.7695 C   0  0  0  0  0
    3.3502    0.2507    0.7625 C   0  0  0  0  0
    2.5886    0.5150    3.0991 C   0  0  0  0  0
    1.6766   -1.3841    1.7016 C   0  0  0  0  0
    2.8555    4.0344   -4.8416 H   0  0  0  0  0
   -3.6852    3.0729   -1.0579 H   0  0  0  0  0
    5.4952    1.0004   -1.0991 H   0  0  0  0  0
   -6.6832    0.2524   -4.7355 H   0  0  0  0  0
   -1.0706   -0.5808   -1.3430 H   0  0  0  0  0
    4.4548    3.1861   -3.6197 H   0  0  0  0  0
   -5.4169    2.3934   -2.2142 H   0  0  0  0  0
   -4.6572   -0.5896   -5.2129 H   0  0  0  0  0
   -2.2750   -0.5465   -4.6842 H   0  0  0  0  0
    2.8235   -1.1763   -0.7525 H   0  0  0  0  0
    4.4859   -0.6352   -0.8045 H   0  0  0  0  0
    3.9850    1.1283    0.9475 H   0  0  0  0  0
    1.5790    0.8575    3.3489 H   0  0  0  0  0
    3.2463    1.3905    3.1070 H   0  0  0  0  0
    2.9304   -0.1636    3.8867 H   0  0  0  0  0
    1.9024   -2.0737    2.5206 H   0  0  0  0  0
    0.6319   -1.0692    1.7965 H   0  0  0  0  0
    1.7717   -1.9523    0.7740 H   0  0  0  0  0
  1  7  1  0  0  0
  1  8  1  0  0  0
  2  9  2  0  0  0
  3 10  1  0  0  0
  3 27  1  0  0  0
  4 11  1  0  0  0
  4 28  1  0  0  0
  5 12  1  0  0  0
  5 29  1  0  0  0
  6 13  1  0  0  0
  6 30  1  0  0  0
  7 14  2  0  0  0
  7 17  1  0  0  0
  8 15  2  0  0  0
  8 31  1  0  0  0
  9 14  1  0  0  0
  9 15  1  0  0  0
 10 14  1  0  0  0
 10 18  2  0  0  0
 11 16  2  0  0  0
 11 19  1  0  0  0
 12 17  2  0  0  0
 12 18  1  0  0  0
 13 19  2  0  0  0
 13 20  1  0  0  0
 15 16  1  0  0  0
 16 21  1  0  0  0
 17 22  1  0  0  0
 18 32  1  0  0  0
 19 33  1  0  0  0
 20 21  2  0  0  0
 20 34  1  0  0  0
 21 35  1  0  0  0
 22 24  1  0  0  0
 22 36  1  0  0  0
 22 37  1  0  0  0
 23 24  2  0  0  0
 23 25  1  0  0  0
 23 26  1  0  0  0
 24 38  1  0  0  0
 25 39  1  0  0  0
 25 40  1  0  0  0
 25 41  1  0  0  0
 26 42  1  0  0  0
 26 43  1  0  0  0
 26 44  1  0  0  0
M  END
> <Tumorigenic>
none

> <Score>
35.53902

> <Active/Decoy>
active

> <InChI>
InChI=1S/C20H18O6/c1-10(2)3-5-13-16(23)8-17(24)18-19(25)14(9-26-20(13)18)12-6-4-11(21)7-15(12)22/h3-4,6-9,21-24H,5H2,1-2H3

> <Matching Features>
H:14924486185440016873||HBA:14924321692640012300|HBA:14924486112070016868

> <Mol. Index>
251

> <Pharmacophore Match>
Model -1

> <# Confs.>
25

> <Source Database>
Pharm-Screening-input-EANPDB_After_DataWarror.ldb

> <Pharmacophore-Fit Score>
35.54

> <formula>
C20H18O6

> <Mutagenic>
none

> <Reproductive Effective>
none

> <Irritant>
none

$$$$
turraparvin A
XX    ILIB03122411353D

 71 75  0  0  1  0              1 V2000
    6.2537   -0.4973   -2.2335 O   0  0  0  0  0
    7.0039   -2.4707   -1.1783 O   0  0  0  0  0
    2.7084    1.5417   -2.8213 O   0  0  0  0  0
   -1.5651   -0.7982    0.5901 O   0  0  0  0  0
    5.3168    1.5403   -1.7381 O   0  0  0  0  0
    3.1542    3.8069   -2.7864 O   0  0  0  0  0
   -5.6421    0.7487   -3.3400 O   0  0  0  0  0
    5.9549   -1.8554   -1.9059 C   0  0  1  0  0
    1.8452    1.6365   -1.6831 C   0  0  2  0  0
   -1.5096    0.5708    0.9812 C   0  0  1  0  0
   -0.3533    1.2842    0.2338 C   0  0  2  0  0
    1.8584    0.3182   -0.8974 C   0  0  1  0  0
   -2.1495    2.2125   -1.5136 C   0  0  2  0  0
   -0.7634    1.4946   -1.2611 C   0  0  1  0  0
   -3.3144    1.5429   -0.6858 C   0  0  2  0  0
    3.2262    0.1014   -0.1455 C   0  0  2  0  0
    5.3303    0.3243   -1.6529 C   0  0  0  0  0
    3.2843    2.6910   -3.2706 C   0  0  0  0  0
   -4.5486    0.9680   -2.8188 C   0  0  0  0  0
    4.7533   -1.7552   -1.0564 C   0  0  0  0  0
    0.9302    0.4468    0.3005 C   0  0  0  0  0
    0.4098    2.0283   -2.1429 C   0  0  0  0  0
   -2.8893    1.2109    0.7707 C   0  0  0  0  0
    4.3570   -0.4922   -0.9074 C   0  0  0  0  0
   -2.4581    2.2121   -3.0056 C   0  0  0  0  0
   -4.1565    0.4402   -1.4305 C   0  0  0  0  0
    2.8311   -0.6814    1.1233 C   0  0  0  0  0
   -0.0253    2.6146    0.9595 C   0  0  0  0  0
    1.5037   -0.8996   -1.7713 C   0  0  0  0  0
   -2.1263    3.7220   -1.1465 C   0  0  0  0  0
   -3.5314    1.6921   -3.6013 C   0  0  0  0  0
    1.4582   -0.1503    1.3829 C   0  0  0  0  0
    4.1231    2.3948   -4.4775 C   0  0  0  0  0
   -3.4758   -0.9129   -1.6721 C   0  0  0  0  0
   -5.4715    0.1620   -0.6594 C   0  0  0  0  0
    7.6214   -2.8495   -1.8268 H   0  0  0  0  0
   -2.1986   -1.2440    1.1753 H   0  0  0  0  0
    5.7528   -2.4203   -2.8221 H   0  0  0  0  0
    2.2119    2.4472   -1.0377 H   0  0  0  0  0
   -1.3033    0.5699    2.0601 H   0  0  0  0  0
   -0.9322    0.4842   -1.6448 H   0  0  0  0  0
   -4.0598    2.3466   -0.5541 H   0  0  0  0  0
    3.5710    1.0895    0.2054 H   0  0  0  0  0
    4.2610   -2.6135   -0.6218 H   0  0  0  0  0
    0.3819    3.1197   -2.2178 H   0  0  0  0  0
    0.2655    1.6695   -3.1704 H   0  0  0  0  0
   -3.6431    0.5799    1.2493 H   0  0  0  0  0
   -2.9096    2.1498    1.3373 H   0  0  0  0  0
   -1.7604    2.7420   -3.6513 H   0  0  0  0  0
    2.7960   -1.7657    0.9873 H   0  0  0  0  0
    3.5097   -0.4479    1.9497 H   0  0  0  0  0
    0.5704    2.4467    1.8653 H   0  0  0  0  0
    0.5439    3.3040    0.3285 H   0  0  0  0  0
   -0.9154    3.1398    1.3060 H   0  0  0  0  0
    1.4989   -1.8295   -1.1907 H   0  0  0  0  0
    2.2162   -1.0258   -2.5936 H   0  0  0  0  0
    0.5190   -0.8196   -2.2340 H   0  0  0  0  0
   -2.1764    3.8993   -0.0723 H   0  0  0  0  0
   -1.2467    4.2434   -1.5333 H   0  0  0  0  0
   -3.0016    4.2398   -1.5636 H   0  0  0  0  0
   -3.6894    1.7991   -4.6685 H   0  0  0  0  0
    0.9972   -0.1782    2.3601 H   0  0  0  0  0
    4.7895    1.5528   -4.2721 H   0  0  0  0  0
    3.4774    2.1732   -5.3304 H   0  0  0  0  0
    4.7416    3.2660   -4.7131 H   0  0  0  0  0
   -3.3947   -1.4952   -0.7520 H   0  0  0  0  0
   -4.0639   -1.5251   -2.3664 H   0  0  0  0  0
   -2.4870   -0.8148   -2.1233 H   0  0  0  0  0
   -5.2904   -0.3173    0.3064 H   0  0  0  0  0
   -6.0338    1.0867   -0.4847 H   0  0  0  0  0
   -6.1314   -0.5118   -1.2213 H   0  0  0  0  0
  1  8  1  0  0  0
  1 17  1  0  0  0
  2  8  1  0  0  0
  2 36  1  0  0  0
  3  9  1  0  0  0
  3 18  1  0  0  0
  4 10  1  0  0  0
  4 37  1  0  0  0
  5 17  2  0  0  0
  6 18  2  0  0  0
  7 19  2  0  0  0
  8 20  1  0  0  0
  8 38  1  0  0  0
  9 12  1  0  0  0
  9 22  1  0  0  0
  9 39  1  0  0  0
 10 11  1  0  0  0
 10 23  1  0  0  0
 10 40  1  0  0  0
 11 14  1  0  0  0
 11 21  1  0  0  0
 11 28  1  0  0  0
 12 16  1  0  0  0
 12 21  1  0  0  0
 12 29  1  0  0  0
 13 14  1  0  0  0
 13 15  1  0  0  0
 13 25  1  0  0  0
 13 30  1  0  0  0
 14 22  1  0  0  0
 14 41  1  0  0  0
 15 23  1  0  0  0
 15 26  1  0  0  0
 15 42  1  0  0  0
 16 24  1  0  0  0
 16 27  1  0  0  0
 16 43  1  0  0  0
 17 24  1  0  0  0
 18 33  1  0  0  0
 19 26  1  0  0  0
 19 31  1  0  0  0
 20 24  2  0  0  0
 20 44  1  0  0  0
 21 32  2  0  0  0
 22 45  1  0  0  0
 22 46  1  0  0  0
 23 47  1  0  0  0
 23 48  1  0  0  0
 25 31  2  0  0  0
 25 49  1  0  0  0
 26 34  1  0  0  0
 26 35  1  0  0  0
 27 32  1  0  0  0
 27 50  1  0  0  0
 27 51  1  0  0  0
 28 52  1  0  0  0
 28 53  1  0  0  0
 28 54  1  0  0  0
 29 55  1  0  0  0
 29 56  1  0  0  0
 29 57  1  0  0  0
 30 58  1  0  0  0
 30 59  1  0  0  0
 30 60  1  0  0  0
 31 61  1  0  0  0
 32 62  1  0  0  0
 33 63  1  0  0  0
 33 64  1  0  0  0
 33 65  1  0  0  0
 34 66  1  0  0  0
 34 67  1  0  0  0
 34 68  1  0  0  0
 35 69  1  0  0  0
 35 70  1  0  0  0
 35 71  1  0  0  0
M  END
> <Tumorigenic>
none

> <Score>
35.518578

> <Active/Decoy>
active

> <InChI>
InChI=1S/C28H36O7/c1-14(29)34-22-13-19-26(4)10-9-20(30)25(2,3)18(26)12-21(31)28(19,6)17-8-7-16(27(17,22)5)15-11-23(32)35-24(15)33/h8-11,16,18-19,21-23,31-32H,7,12-13H2,1-6H3/t16-,18+,19+,21+,22-,23+,26-,27-,28-/m0/s1

> <Matching Features>
H:14924486185440016873||HBA:14924321692640012300|HBA:14924486112070016868

> <Mol. Index>
362

> <Pharmacophore Match>
Model -1

> <# Confs.>
9

> <Source Database>
Pharm-Screening-input-EANPDB_After_DataWarror.ldb

> <Pharmacophore-Fit Score>
35.52

> <formula>
C28H36O7

> <Mutagenic>
none

> <Reproductive Effective>
none

> <Irritant>
none

$$$$
12alpha-acetoxyazadironolide
XX    ILIB03122411353D

 76 80  0  0  1  0              1 V2000
    6.1989   -0.5265   -2.2578 O   0  0  0  0  0
    6.8757   -2.5227   -1.1944 O   0  0  0  0  0
   -1.5593   -0.8841    0.5157 O   0  0  0  0  0
    2.6413    1.6852   -2.7570 O   0  0  0  0  0
    5.3668    1.5533   -1.7552 O   0  0  0  0  0
   -1.1876   -1.6420    2.6749 O   0  0  0  0  0
    2.9927    3.9580   -2.5709 O   0  0  0  0  0
   -5.6725    0.7455   -3.3418 O   0  0  0  0  0
    5.8478   -1.8700   -1.9210 C   0  0  1  0  0
   -1.5456    0.4614    0.9798 C   0  0  1  0  0
    1.7843    1.7177   -1.6109 C   0  0  2  0  0
   -0.4136    1.2467    0.2697 C   0  0  2  0  0
    1.8489    0.3732   -0.8627 C   0  0  1  0  0
   -2.2117    2.1816   -1.4528 C   0  0  2  0  0
   -0.8106    1.4911   -1.2120 C   0  0  1  0  0
   -3.3648    1.4530   -0.6600 C   0  0  2  0  0
    3.2134    0.1487   -0.1165 C   0  0  2  0  0
    5.3259    0.3387   -1.6649 C   0  0  0  0  0
   -1.3676   -1.8382    1.4807 C   0  0  0  0  0
    3.1765    2.8824   -3.1231 C   0  0  0  0  0
   -4.5794    0.9474   -2.8164 C   0  0  0  0  0
    4.6572   -1.7138   -1.0625 C   0  0  0  0  0
    0.9035    0.4462    0.3275 C   0  0  0  0  0
    0.3544    2.0833   -2.0647 C   0  0  0  0  0
   -2.9431    1.0750    0.7864 C   0  0  0  0  0
    4.3322   -0.4329   -0.8999 C   0  0  0  0  0
   -2.5086    2.2270   -2.9472 C   0  0  0  0  0
   -4.1776    0.3622   -1.4554 C   0  0  0  0  0
    2.8169   -0.6623    1.1361 C   0  0  0  0  0
   -0.1259    2.5576    1.0513 C   0  0  0  0  0
    1.5245   -0.8303   -1.7787 C   0  0  0  0  0
   -2.2322    3.6786   -1.0337 C   0  0  0  0  0
   -3.5694    1.7119   -3.5699 C   0  0  0  0  0
    1.4385   -0.1592    1.4010 C   0  0  0  0  0
   -1.3979   -3.1980    0.8504 C   0  0  0  0  0
    4.0389    2.6994   -4.3350 C   0  0  0  0  0
   -3.4581   -0.9576   -1.7587 C   0  0  0  0  0
   -5.4848    0.0121   -0.7002 C   0  0  0  0  0
    7.4824   -2.9109   -1.8451 H   0  0  0  0  0
    5.6150   -2.4332   -2.8298 H   0  0  0  0  0
   -1.3499    0.4601    2.0751 H   0  0  0  0  0
    2.1431    2.5103   -0.9381 H   0  0  0  0  0
   -0.9492    0.4896   -1.6301 H   0  0  0  0  0
   -4.1303    2.2332   -0.5025 H   0  0  0  0  0
    3.5655    1.1268    0.2519 H   0  0  0  0  0
    4.1171   -2.5428   -0.6259 H   0  0  0  0  0
    0.2247    1.7560   -3.1053 H   0  0  0  0  0
    0.2985    3.1758   -2.1041 H   0  0  0  0  0
   -3.6850    0.4159    1.2354 H   0  0  0  0  0
   -2.9959    1.9908    1.3885 H   0  0  0  0  0
   -1.8149    2.7908   -3.5681 H   0  0  0  0  0
    2.7942   -1.7454    0.9800 H   0  0  0  0  0
    3.4878   -0.4367    1.9707 H   0  0  0  0  0
    0.4632    2.3768    1.9591 H   0  0  0  0  0
    0.4309    3.2837    0.4511 H   0  0  0  0  0
   -1.0349    3.0453    1.4044 H   0  0  0  0  0
    1.5465   -1.7773   -1.2263 H   0  0  0  0  0
    2.2443   -0.9129   -2.5998 H   0  0  0  0  0
    0.5388   -0.7645   -2.2426 H   0  0  0  0  0
   -1.3591    4.2331   -1.3853 H   0  0  0  0  0
   -2.3066    3.8166    0.0448 H   0  0  0  0  0
   -3.1120    4.1894   -1.4492 H   0  0  0  0  0
   -3.7220    1.8533   -4.6323 H   0  0  0  0  0
    0.9714   -0.2210    2.3736 H   0  0  0  0  0
   -1.3356   -3.9609    1.6314 H   0  0  0  0  0
   -2.3377   -3.3367    0.3099 H   0  0  0  0  0
   -0.5460   -3.3111    0.1766 H   0  0  0  0  0
    4.5393    3.6431   -4.5701 H   0  0  0  0  0
    4.8047    1.9458   -4.1354 H   0  0  0  0  0
    3.4210    2.4048   -5.1859 H   0  0  0  0  0
   -4.0285   -1.5526   -2.4847 H   0  0  0  0  0
   -3.3642   -1.5807   -0.8687 H   0  0  0  0  0
   -2.4715   -0.8112   -2.2006 H   0  0  0  0  0
   -5.2912   -0.5156    0.2381 H   0  0  0  0  0
   -6.1290   -0.6456   -1.2960 H   0  0  0  0  0
   -6.0655    0.9122   -0.4733 H   0  0  0  0  0
  1  9  1  0  0  0
  1 18  1  0  0  0
  2  9  1  0  0  0
  2 39  1  0  0  0
  3 10  1  0  0  0
  3 19  1  0  0  0
  4 11  1  0  0  0
  4 20  1  0  0  0
  5 18  2  0  0  0
  6 19  2  0  0  0
  7 20  2  0  0  0
  8 21  2  0  0  0
  9 22  1  0  0  0
  9 40  1  0  0  0
 10 12  1  0  0  0
 10 25  1  0  0  0
 10 41  1  0  0  0
 11 13  1  0  0  0
 11 24  1  0  0  0
 11 42  1  0  0  0
 12 15  1  0  0  0
 12 23  1  0  0  0
 12 30  1  0  0  0
 13 17  1  0  0  0
 13 23  1  0  0  0
 13 31  1  0  0  0
 14 15  1  0  0  0
 14 16  1  0  0  0
 14 27  1  0  0  0
 14 32  1  0  0  0
 15 24  1  0  0  0
 15 43  1  0  0  0
 16 25  1  0  0  0
 16 28  1  0  0  0
 16 44  1  0  0  0
 17 26  1  0  0  0
 17 29  1  0  0  0
 17 45  1  0  0  0
 18 26  1  0  0  0
 19 35  1  0  0  0
 20 36  1  0  0  0
 21 28  1  0  0  0
 21 33  1  0  0  0
 22 26  2  0  0  0
 22 46  1  0  0  0
 23 34  2  0  0  0
 24 47  1  0  0  0
 24 48  1  0  0  0
 25 49  1  0  0  0
 25 50  1  0  0  0
 27 33  2  0  0  0
 27 51  1  0  0  0
 28 37  1  0  0  0
 28 38  1  0  0  0
 29 34  1  0  0  0
 29 52  1  0  0  0
 29 53  1  0  0  0
 30 54  1  0  0  0
 30 55  1  0  0  0
 30 56  1  0  0  0
 31 57  1  0  0  0
 31 58  1  0  0  0
 31 59  1  0  0  0
 32 60  1  0  0  0
 32 61  1  0  0  0
 32 62  1  0  0  0
 33 63  1  0  0  0
 34 64  1  0  0  0
 35 65  1  0  0  0
 35 66  1  0  0  0
 35 67  1  0  0  0
 36 68  1  0  0  0
 36 69  1  0  0  0
 36 70  1  0  0  0
 37 71  1  0  0  0
 37 72  1  0  0  0
 37 73  1  0  0  0
 38 74  1  0  0  0
 38 75  1  0  0  0
 38 76  1  0  0  0
M  END
> <Tumorigenic>
none

> <Score>
35.48144

> <Active/Decoy>
active

> <InChI>
InChI=1S/C30H38O8/c1-15(31)36-23-14-21-28(5)11-10-22(33)27(3,4)20(28)13-24(37-16(2)32)30(21,7)19-9-8-18(29(19,23)6)17-12-25(34)38-26(17)35/h9-12,18,20-21,23-25,34H,8,13-14H2,1-7H3/t18-,20+,21+,23-,24+,25+,28-,29-,30-/m0/s1

> <Matching Features>
H:14924486185440016873||HBA:14924321692640012300|HBA:14924486112070016868

> <Mol. Index>
361

> <Pharmacophore Match>
Model -1

> <# Confs.>
7

> <Source Database>
Pharm-Screening-input-EANPDB_After_DataWarror.ldb

> <Pharmacophore-Fit Score>
35.48

> <formula>
C30H38O8

> <Mutagenic>
none

> <Reproductive Effective>
none

> <Irritant>
none

$$$$
6-hydroxy-5,7,4'-trimethoxyflavanone
XX    ILIB03122411353D

 42 44  0  0  1  0              1 V2000
    0.6106    0.2334   -0.0589 O   0  0  0  0  0
    5.4083    0.9638    0.0567 O   0  0  0  0  0
    3.1891   -0.7784    3.8672 O   0  0  0  0  0
   -4.6579    0.9216   -3.4620 O   0  0  0  0  0
    5.4063    0.0703    2.6727 O   0  0  0  0  0
    3.9268    1.4984   -2.0940 O   0  0  0  0  0
    1.8398    0.2159    0.5516 C   0  0  0  0  0
    4.2287    0.5535    0.6262 C   0  0  0  0  0
    3.0630   -0.3341    2.5761 C   0  0  0  0  0
   -3.4496    0.9612   -2.8138 C   0  0  0  0  0
    4.2381    0.0994    1.9528 C   0  0  0  0  0
   -0.8561    1.1343   -1.7171 C   0  0  0  0  0
    3.0207    0.6292   -0.0759 C   0  0  0  0  0
    1.8633   -0.2811    1.8609 C   0  0  0  0  0
   -3.2359    0.6364   -1.4721 C   0  0  0  0  0
   -2.3653    1.3667   -3.5976 C   0  0  0  0  0
   -1.9506    0.7191   -0.9246 C   0  0  0  0  0
   -1.0837    1.4496   -3.0489 C   0  0  0  0  0
    0.5043    1.2070   -1.0996 C   0  0  2  0  0
    2.9436    1.0969   -1.4835 C   0  0  0  0  0
    6.4781    0.7791    0.9828 C   0  0  0  0  0
    3.4545   -2.1813    3.8680 C   0  0  0  0  0
   -5.6737    0.4957   -2.5544 C   0  0  0  0  0
    1.5939    0.9919   -2.1441 C   0  0  0  0  0
    6.1149    0.4459    2.1235 H   0  0  0  0  0
    0.9246   -0.6034    2.3046 H   0  0  0  0  0
   -4.0448    0.3158   -0.8227 H   0  0  0  0  0
   -2.5114    1.6221   -4.6443 H   0  0  0  0  0
   -1.8106    0.4603    0.1221 H   0  0  0  0  0
   -0.2595    1.7661   -3.6828 H   0  0  0  0  0
    0.6255    2.2097   -0.6328 H   0  0  0  0  0
    6.5851   -0.2750    1.2621 H   0  0  0  0  0
    7.4043    1.0945    0.4923 H   0  0  0  0  0
    6.3386    1.3987    1.8756 H   0  0  0  0  0
    4.3865   -2.4095    3.3370 H   0  0  0  0  0
    3.5713   -2.4994    4.9078 H   0  0  0  0  0
    2.6190   -2.7406    3.4323 H   0  0  0  0  0
   -5.7654    1.1848   -1.7073 H   0  0  0  0  0
   -6.6265    0.4948   -3.0943 H   0  0  0  0  0
   -5.4829   -0.5232   -2.1987 H   0  0  0  0  0
    1.5266   -0.0024   -2.6009 H   0  0  0  0  0
    1.5268    1.7484   -2.9338 H   0  0  0  0  0
  1  7  1  0  0  0
  1 19  1  0  0  0
  2  8  1  0  0  0
  2 21  1  0  0  0
  3  9  1  0  0  0
  3 22  1  0  0  0
  4 10  1  0  0  0
  4 23  1  0  0  0
  5 11  1  0  0  0
  5 25  1  0  0  0
  6 20  2  0  0  0
  7 13  1  0  0  0
  7 14  2  0  0  0
  8 11  1  0  0  0
  8 13  2  0  0  0
  9 11  2  0  0  0
  9 14  1  0  0  0
 10 15  2  0  0  0
 10 16  1  0  0  0
 12 17  2  0  0  0
 12 18  1  0  0  0
 12 19  1  0  0  0
 13 20  1  0  0  0
 14 26  1  0  0  0
 15 17  1  0  0  0
 15 27  1  0  0  0
 16 18  2  0  0  0
 16 28  1  0  0  0
 17 29  1  0  0  0
 18 30  1  0  0  0
 19 24  1  0  0  0
 19 31  1  0  0  0
 20 24  1  0  0  0
 21 32  1  0  0  0
 21 33  1  0  0  0
 21 34  1  0  0  0
 22 35  1  0  0  0
 22 36  1  0  0  0
 22 37  1  0  0  0
 23 38  1  0  0  0
 23 39  1  0  0  0
 23 40  1  0  0  0
 24 41  1  0  0  0
 24 42  1  0  0  0
M  END
> <Tumorigenic>
none

> <Score>
35.470856

> <Active/Decoy>
active

> <InChI>
InChI=1S/C18H18O6/c1-21-11-6-4-10(5-7-11)13-8-12(19)16-14(24-13)9-15(22-2)17(20)18(16)23-3/h4-7,9,13,20H,8H2,1-3H3/t13-/m0/s1

> <Matching Features>
H:14924486185440016873||HBA:14924321692640012300|HBA:14924486112070016868

> <Mol. Index>
284

> <Pharmacophore Match>
Model -1

> <# Confs.>
9

> <Source Database>
Pharm-Screening-input-EANPDB_After_DataWarror.ldb

> <Pharmacophore-Fit Score>
35.47

> <formula>
C18H18O6

> <Mutagenic>
none

> <Reproductive Effective>
none

> <Irritant>
none

$$$$
3'-(2-hydroxy-3-methylbuten-3-yl)-biochanin A
XX    ILIB03122411353D

 47 49  0  0  1  0              1 V2000
   -1.9072    2.3110   -4.1169 O   0  0  0  0  0
   -0.6818   -0.2496   -1.1936 O   0  0  0  0  0
    5.4560    1.4873   -1.5531 O   0  0  0  0  0
   -3.1305   -1.1809   -1.0046 O   0  0  0  0  0
   -6.4093    0.8241   -3.7938 O   0  0  0  0  0
    4.8328    0.0386    0.9040 O   0  0  0  0  0
   -2.8115    1.4702   -3.5203 C   0  0  0  0  0
   -0.5950    2.2177   -3.7299 C   0  0  0  0  0
   -1.0398    0.4966   -2.0968 C   0  0  0  0  0
    4.1345    1.4522   -1.9189 C   0  0  0  0  0
   -3.4462   -0.2701   -1.9752 C   0  0  0  0  0
   -5.1072    0.7481   -3.3943 C   0  0  0  0  0
   -2.4560    0.5529   -2.5288 C   0  0  0  0  0
   -0.0793    1.4034   -2.7961 C   0  0  0  0  0
    1.3595    1.4134   -2.5026 C   0  0  0  0  0
    3.2082    1.7208   -0.8991 C   0  0  0  0  0
   -4.1353    1.5728   -3.9553 C   0  0  0  0  0
   -4.7717   -0.1747   -2.4069 C   0  0  0  0  0
    3.6807    1.1405   -3.2038 C   0  0  0  0  0
    1.8246    1.7148   -1.2134 C   0  0  0  0  0
    2.3112    1.1247   -3.4899 C   0  0  0  0  0
    3.7741    0.8482    1.3975 C   0  0  1  0  0
    6.2745    1.1795   -2.6824 C   0  0  0  0  0
    3.6350    2.0613    0.4917 C   0  0  0  0  0
    2.5044    0.0290    1.5481 C   0  0  0  0  0
    2.1973   -1.0304    0.7815 C   0  0  0  0  0
    1.5549    0.4851    2.6249 C   0  0  0  0  0
   -3.9375   -1.6548   -0.7416 H   0  0  0  0  0
   -6.4875    1.5145   -4.4738 H   0  0  0  0  0
    4.6851   -0.1031   -0.0470 H   0  0  0  0  0
   -0.0127    2.9187   -4.3163 H   0  0  0  0  0
   -4.4018    2.2906   -4.7269 H   0  0  0  0  0
   -5.5404   -0.8124   -1.9792 H   0  0  0  0  0
    4.3658    0.9173   -4.0162 H   0  0  0  0  0
    1.1163    1.9480   -0.4200 H   0  0  0  0  0
    2.0102    0.8823   -4.5069 H   0  0  0  0  0
    4.0666    1.1754    2.4026 H   0  0  0  0  0
    6.1219    1.9014   -3.4926 H   0  0  0  0  0
    7.3196    1.2486   -2.3671 H   0  0  0  0  0
    6.0875    0.1605   -3.0380 H   0  0  0  0  0
    2.9233    2.7852    0.9353 H   0  0  0  0  0
    4.5922    2.5906    0.4418 H   0  0  0  0  0
    1.2724   -1.5793    0.9261 H   0  0  0  0  0
    2.8518   -1.3848   -0.0067 H   0  0  0  0  0
    0.6414   -0.1176    2.6541 H   0  0  0  0  0
    2.0270    0.4151    3.6103 H   0  0  0  0  0
    1.2585    1.5247    2.4530 H   0  0  0  0  0
  1  7  1  0  0  0
  1  8  1  0  0  0
  2  9  2  0  0  0
  3 10  1  0  0  0
  3 23  1  0  0  0
  4 11  1  0  0  0
  4 28  1  0  0  0
  5 12  1  0  0  0
  5 29  1  0  0  0
  6 22  1  0  0  0
  6 30  1  0  0  0
  7 13  2  0  0  0
  7 17  1  0  0  0
  8 14  2  0  0  0
  8 31  1  0  0  0
  9 13  1  0  0  0
  9 14  1  0  0  0
 10 16  2  0  0  0
 10 19  1  0  0  0
 11 13  1  0  0  0
 11 18  2  0  0  0
 12 17  2  0  0  0
 12 18  1  0  0  0
 14 15  1  0  0  0
 15 20  2  0  0  0
 15 21  1  0  0  0
 16 20  1  0  0  0
 16 24  1  0  0  0
 17 32  1  0  0  0
 18 33  1  0  0  0
 19 21  2  0  0  0
 19 34  1  0  0  0
 20 35  1  0  0  0
 21 36  1  0  0  0
 22 24  1  0  0  0
 22 25  1  0  0  0
 22 37  1  0  0  0
 23 38  1  0  0  0
 23 39  1  0  0  0
 23 40  1  0  0  0
 24 41  1  0  0  0
 24 42  1  0  0  0
 25 26  2  0  0  0
 25 27  1  0  0  0
 26 43  1  0  0  0
 26 44  1  0  0  0
 27 45  1  0  0  0
 27 46  1  0  0  0
 27 47  1  0  0  0
M  END
> <Tumorigenic>
none

> <Score>
35.3929

> <Active/Decoy>
active

> <InChI>
InChI=1S/C21H20O6/c1-11(2)16(23)7-13-6-12(4-5-18(13)26-3)15-10-27-19-9-14(22)8-17(24)20(19)21(15)25/h4-6,8-10,16,22-24H,1,7H2,2-3H3/t16-/m0/s1

> <Matching Features>
H:14924486185440016873||HBA:14924321692640012300|HBA:14924486112070016868

> <Mol. Index>
275

> <Pharmacophore Match>
Model -1

> <# Confs.>
25

> <Source Database>
Pharm-Screening-input-EANPDB_After_DataWarror.ldb

> <Pharmacophore-Fit Score>
35.39

> <formula>
C21H20O6

> <Mutagenic>
none

> <Reproductive Effective>
none

> <Irritant>
none

$$$$
isoangoletin
XX    ILIB03122411353D

 53 56  0  0  1  0              1 V2000
   -1.8322    1.0974    0.7124 O   0  0  0  0  0
   -4.6360    0.8367   -3.2330 O   0  0  0  0  0
   -6.2383    2.8610    0.7569 O   0  0  0  0  0
    3.6455   -0.6075    3.2964 O   0  0  0  0  0
   -0.0573    1.4623   -1.4698 O   0  0  0  0  0
    1.0530    0.6922   -3.4561 O   0  0  0  0  0
    1.0845    3.4322   -4.3011 O   0  0  0  0  0
    3.1354    4.1679   -2.5340 O   0  0  0  0  0
    4.4081    1.6191   -2.2481 O   0  0  0  0  0
   -2.1676   -0.0963   -3.1944 O   0  0  0  0  0
   -2.9952    1.3162    0.0190 C   0  0  0  0  0
   -4.4196    1.2005   -1.9324 C   0  0  0  0  0
   -5.2236    2.2281    0.0922 C   0  0  0  0  0
    2.5114   -0.4784    2.5446 C   0  0  0  0  0
    0.1925   -0.1509    1.0113 C   0  0  0  0  0
   -3.1881    0.9397   -1.3170 C   0  0  0  0  0
   -4.0070    1.9754    0.7191 C   0  0  0  0  0
   -5.4404    1.8422   -1.2276 C   0  0  0  0  0
    1.9463    0.7854    2.4139 C   0  0  0  0  0
    1.9340   -1.5831    1.9239 C   0  0  0  0  0
    0.7897    0.9483    1.6495 C   0  0  0  0  0
    0.7769   -1.4170    1.1599 C   0  0  0  0  0
    0.2662    1.7333   -2.8391 C   0  0  2  0  0
   -1.0617    0.0145    0.1871 C   0  0  2  0  0
    1.0050    3.0708   -2.9242 C   0  0  1  0  0
    2.4210    2.9496   -2.3359 C   0  0  1  0  0
    3.1838    1.7794   -2.9592 C   0  0  2  0  0
   -0.7432    0.2427   -1.2902 C   0  0  1  0  0
    2.3436    0.4989   -2.8696 C   0  0  2  0  0
   -2.0567    0.3061   -2.0420 C   0  0  0  0  0
    3.0001   -0.6677   -3.6013 C   0  0  0  0  0
   -5.5400    1.0903   -3.4863 H   0  0  0  0  0
   -5.9352    3.0652    1.6582 H   0  0  0  0  0
    3.9230   -1.5387    3.2790 H   0  0  0  0  0
    1.4403    4.3347   -4.3459 H   0  0  0  0  0
    3.3104    4.2615   -3.4851 H   0  0  0  0  0
    4.9642    1.0008   -2.7511 H   0  0  0  0  0
   -3.8479    2.2777    1.7506 H   0  0  0  0  0
   -6.3960    2.0478   -1.7032 H   0  0  0  0  0
    2.3956    1.6464    2.9003 H   0  0  0  0  0
    2.3705   -2.5714    2.0265 H   0  0  0  0  0
    0.3555    1.9406    1.5562 H   0  0  0  0  0
    0.3355   -2.2867    0.6793 H   0  0  0  0  0
   -0.6549    1.8058   -3.4133 H   0  0  0  0  0
   -1.6524   -0.9049    0.3156 H   0  0  0  0  0
    0.4564    3.8518   -2.4006 H   0  0  0  0  0
    2.3583    2.8070   -1.2505 H   0  0  0  0  0
    3.4309    2.0168   -4.0008 H   0  0  0  0  0
   -0.1496   -0.6119   -1.6783 H   0  0  0  0  0
    2.2200    0.1982   -1.8211 H   0  0  0  0  0
    3.1542   -0.4283   -4.6588 H   0  0  0  0  0
    3.9622   -0.9350   -3.1580 H   0  0  0  0  0
    2.3508   -1.5493   -3.5717 H   0  0  0  0  0
  1 11  1  0  0  0
  1 24  1  0  0  0
  2 12  1  0  0  0
  2 32  1  0  0  0
  3 13  1  0  0  0
  3 33  1  0  0  0
  4 14  1  0  0  0
  4 34  1  0  0  0
  5 23  1  0  0  0
  5 28  1  0  0  0
  6 23  1  0  0  0
  6 29  1  0  0  0
  7 25  1  0  0  0
  7 35  1  0  0  0
  8 26  1  0  0  0
  8 36  1  0  0  0
  9 27  1  0  0  0
  9 37  1  0  0  0
 10 30  2  0  0  0
 11 16  2  0  0  0
 11 17  1  0  0  0
 12 16  1  0  0  0
 12 18  2  0  0  0
 13 17  2  0  0  0
 13 18  1  0  0  0
 14 19  2  0  0  0
 14 20  1  0  0  0
 15 21  2  0  0  0
 15 22  1  0  0  0
 15 24  1  0  0  0
 16 30  1  0  0  0
 17 38  1  0  0  0
 18 39  1  0  0  0
 19 21  1  0  0  0
 19 40  1  0  0  0
 20 22  2  0  0  0
 20 41  1  0  0  0
 21 42  1  0  0  0
 22 43  1  0  0  0
 23 25  1  0  0  0
 23 44  1  0  0  0
 24 28  1  0  0  0
 24 45  1  0  0  0
 25 26  1  0  0  0
 25 46  1  0  0  0
 26 27  1  0  0  0
 26 47  1  0  0  0
 27 29  1  0  0  0
 27 48  1  0  0  0
 28 30  1  0  0  0
 28 49  1  0  0  0
 29 31  1  0  0  0
 29 50  1  0  0  0
 31 51  1  0  0  0
 31 52  1  0  0  0
 31 53  1  0  0  0
M  END
> <Tumorigenic>
none

> <Score>
35.310154

> <Active/Decoy>
active

> <InChI>
InChI=1S/C21H22O10/c1-8-15(25)17(27)18(28)21(29-8)31-20-16(26)14-12(24)6-11(23)7-13(14)30-19(20)9-2-4-10(22)5-3-9/h2-8,15,17-25,27-28H,1H3/t8-,15-,17+,18+,19+,20+,21-/m0/s1

> <Matching Features>
H:14924486185440016873||HBA:14924321692640012300|HBA:14924486112070016868

> <Mol. Index>
35

> <Pharmacophore Match>
Model -1

> <# Confs.>
3

> <Source Database>
Pharm-Screening-input-EANPDB_After_DataWarror.ldb

> <Pharmacophore-Fit Score>
35.31

> <formula>
C21H22O10

> <Mutagenic>
none

> <Reproductive Effective>
none

> <Irritant>
none

$$$$
aloesol
XX    ILIB03122411353D

 31 32  0  0  1  0              1 V2000
   -0.8773    0.2902   -1.9346 O   0  0  0  0  0
   -0.6146   -1.0008    1.9148 O   0  0  0  0  0
    3.7034    1.4908   -2.1489 O   0  0  0  0  0
   -4.6588    0.9757   -3.6036 O   0  0  0  0  0
    0.3309    0.3592   -1.2850 C   0  0  0  0  0
   -1.9851   -0.1921   -1.2430 C   0  0  0  0  0
   -0.6566   -0.5913    0.7630 C   0  0  0  0  0
    2.6441    0.9895   -1.4481 C   0  0  0  0  0
    0.5223   -0.0532    0.0410 C   0  0  0  0  0
    1.7956    0.0706    0.6372 C   0  0  0  0  0
    1.3892    0.8767   -2.0335 C   0  0  0  0  0
   -1.9295   -0.6269    0.0192 C   0  0  0  0  0
    2.8509    0.5935   -0.1304 C   0  0  0  0  0
   -3.4482    1.0632   -2.8525 C   0  0  2  0  0
   -3.2409   -0.2145   -2.0469 C   0  0  0  0  0
    2.0896   -0.3342    2.0545 C   0  0  0  0  0
   -3.5767    2.2650   -1.9267 C   0  0  0  0  0
    3.4016    1.7218   -3.0441 H   0  0  0  0  0
   -4.5546    0.2573   -4.2499 H   0  0  0  0  0
    1.2301    1.1873   -3.0622 H   0  0  0  0  0
   -2.8048   -1.0076    0.5319 H   0  0  0  0  0
    3.8443    0.6935    0.3041 H   0  0  0  0  0
   -2.6243    1.2376   -3.5533 H   0  0  0  0  0
   -4.0834   -0.3870   -1.3831 H   0  0  0  0  0
   -3.2201   -1.0680   -2.7542 H   0  0  0  0  0
    1.4726    0.2407    2.7520 H   0  0  0  0  0
    1.9131   -1.4058    2.1895 H   0  0  0  0  0
    3.1341   -0.1431    2.3196 H   0  0  0  0  0
   -4.4288    2.1489   -1.2481 H   0  0  0  0  0
   -3.7590    3.1760   -2.5067 H   0  0  0  0  0
   -2.6700    2.4082   -1.3314 H   0  0  0  0  0
  1  5  1  0  0  0
  1  6  1  0  0  0
  2  7  2  0  0  0
  3  8  1  0  0  0
  3 18  1  0  0  0
  4 14  1  0  0  0
  4 19  1  0  0  0
  5  9  2  0  0  0
  5 11  1  0  0  0
  6 12  2  0  0  0
  6 15  1  0  0  0
  7  9  1  0  0  0
  7 12  1  0  0  0
  8 11  2  0  0  0
  8 13  1  0  0  0
  9 10  1  0  0  0
 10 13  2  0  0  0
 10 16  1  0  0  0
 11 20  1  0  0  0
 12 21  1  0  0  0
 13 22  1  0  0  0
 14 15  1  0  0  0
 14 17  1  0  0  0
 14 23  1  0  0  0
 15 24  1  0  0  0
 15 25  1  0  0  0
 16 26  1  0  0  0
 16 27  1  0  0  0
 16 28  1  0  0  0
 17 29  1  0  0  0
 17 30  1  0  0  0
 17 31  1  0  0  0
M  END
> <Tumorigenic>
none

> <Score>
35.29853

> <Active/Decoy>
active

> <InChI>
InChI=1S/C13H14O4/c1-7-3-9(15)5-12-13(7)11(16)6-10(17-12)4-8(2)14/h3,5-6,8,14-15H,4H2,1-2H3/t8-/m0/s1

> <Matching Features>
H:14924486185440016873||HBA:14924321692640012300|HBA:14924486112070016868

> <Mol. Index>
85

> <Pharmacophore Match>
Model -1

> <# Confs.>
10

> <Source Database>
Pharm-Screening-input-EANPDB_After_DataWarror.ldb

> <Pharmacophore-Fit Score>
35.3

> <formula>
C13H14O4

> <Mutagenic>
none

> <Reproductive Effective>
none

> <Irritant>
none

$$$$
aloeresin D
XX    ILIB03122411353D

 72 75  0  0  1  0              1 V2000
    0.5050    1.3794   -2.5176 O   0  0  0  0  0
    4.4732    1.4045   -1.6657 O   0  0  0  0  0
   -0.7569   -0.4645    1.6592 O   0  0  0  0  0
   -1.4387    7.7096    7.0350 O   0  0  0  0  0
   -0.1006    4.1510   -5.9227 O   0  0  0  0  0
   -1.6840   -0.3210   -2.0202 O   0  0  0  0  0
   -2.0840    2.6286    0.1223 O   0  0  0  0  0
   -3.7849    3.2149   -2.1636 O   0  0  0  0  0
   -4.9537    0.8013   -3.2469 O   0  0  0  0  0
   -0.5752    4.1731   -0.6980 O   0  0  0  0  0
   -2.5656   -2.7164   -3.1458 O   0  0  0  0  0
    0.9141    0.9090   -1.2897 C   0  0  0  0  0
    1.4434    1.8380   -3.4198 C   0  0  0  0  0
    3.2708    1.3802   -1.8843 C   0  0  0  0  0
    0.2616   -0.0373    0.8464 C   0  0  0  0  0
   -1.2963    7.1777    5.7859 C   0  0  0  0  0
    2.2662    0.8801   -0.9113 C   0  0  0  0  0
   -0.1094    0.4455   -0.4084 C   0  0  0  0  0
    2.6284    0.3933    0.3507 C   0  0  0  0  0
   -0.9838    6.0396    3.2596 C   0  0  0  0  0
    2.7579    1.8685   -3.1769 C   0  0  0  0  0
    1.6129   -0.0666    1.2173 C   0  0  0  0  0
   -1.6169    7.9212    4.6516 C   0  0  0  0  0
   -0.8247    5.8717    5.6721 C   0  0  0  0  0
   -1.4610    7.3508    3.3881 C   0  0  0  0  0
   -0.6691    5.3034    4.4094 C   0  0  0  0  0
    0.5142    3.8221   -4.6768 C   0  0  1  0  0
   -1.5533    0.4742   -0.8437 C   0  0  1  0  0
   -2.0516    1.9176   -1.1194 C   0  0  1  0  0
   -3.4721    1.9025   -1.6953 C   0  0  2  0  0
   -3.5871    0.9157   -2.8576 C   0  0  1  0  0
   -3.0389   -0.4579   -2.4591 C   0  0  1  0  0
   -1.2960    3.7327    0.1837 C   0  0  0  0  0
   -3.0567   -1.4602   -3.6003 C   0  0  0  0  0
   -0.9992   -1.8540    1.4333 C   0  0  0  0  0
    0.8559    2.3312   -4.7075 C   0  0  0  0  0
   -0.8257    5.4382    1.9297 C   0  0  0  0  0
    4.0469    0.3134    0.8468 C   0  0  0  0  0
    1.7359    4.7135   -4.4865 C   0  0  0  0  0
   -1.4601    4.3288    1.5212 C   0  0  0  0  0
   -1.7759    8.6183    6.9482 H   0  0  0  0  0
   -0.3563    5.0884   -5.8855 H   0  0  0  0  0
   -4.6858    3.1863   -2.5278 H   0  0  0  0  0
   -5.4479    0.4264   -2.4983 H   0  0  0  0  0
   -1.6618   -2.5731   -2.8168 H   0  0  0  0  0
    3.4736    2.2415   -3.9004 H   0  0  0  0  0
    1.9080   -0.4459    2.1929 H   0  0  0  0  0
   -1.9873    8.9395    4.7389 H   0  0  0  0  0
   -0.5777    5.2952    6.5595 H   0  0  0  0  0
   -1.7147    7.9375    2.5085 H   0  0  0  0  0
   -0.2998    4.2829    4.3311 H   0  0  0  0  0
   -0.2176    4.0237   -3.8859 H   0  0  0  0  0
   -2.1615    0.0329   -0.0427 H   0  0  0  0  0
   -1.3857    2.4246   -1.8334 H   0  0  0  0  0
   -4.2025    1.6722   -0.9099 H   0  0  0  0  0
   -3.0407    1.3200   -3.7172 H   0  0  0  0  0
   -3.6379   -0.8853   -1.6443 H   0  0  0  0  0
   -2.4267   -1.1372   -4.4354 H   0  0  0  0  0
   -4.0758   -1.6182   -3.9668 H   0  0  0  0  0
   -0.1111   -2.4549    1.6579 H   0  0  0  0  0
   -1.7999   -2.1691    2.1096 H   0  0  0  0  0
   -1.3322   -2.0335    0.4050 H   0  0  0  0  0
   -0.0399    1.7415   -4.9365 H   0  0  0  0  0
    1.5620    2.1563   -5.5309 H   0  0  0  0  0
   -0.1419    5.9627    1.2673 H   0  0  0  0  0
    4.4946    1.3115    0.8767 H   0  0  0  0  0
    4.1047   -0.0911    1.8638 H   0  0  0  0  0
    4.6383   -0.3474    0.2064 H   0  0  0  0  0
    1.4467    5.7694   -4.5234 H   0  0  0  0  0
    2.2297    4.5268   -3.5279 H   0  0  0  0  0
    2.4615    4.5610   -5.2929 H   0  0  0  0  0
   -2.1498    3.7970    2.1699 H   0  0  0  0  0
  1 12  1  0  0  0
  1 13  1  0  0  0
  2 14  2  0  0  0
  3 15  1  0  0  0
  3 35  1  0  0  0
  4 16  1  0  0  0
  4 41  1  0  0  0
  5 27  1  0  0  0
  5 42  1  0  0  0
  6 28  1  0  0  0
  6 32  1  0  0  0
  7 29  1  0  0  0
  7 33  1  0  0  0
  8 30  1  0  0  0
  8 43  1  0  0  0
  9 31  1  0  0  0
  9 44  1  0  0  0
 10 33  2  0  0  0
 11 34  1  0  0  0
 11 45  1  0  0  0
 12 17  2  0  0  0
 12 18  1  0  0  0
 13 21  2  0  0  0
 13 36  1  0  0  0
 14 17  1  0  0  0
 14 21  1  0  0  0
 15 18  2  0  0  0
 15 22  1  0  0  0
 16 23  2  0  0  0
 16 24  1  0  0  0
 17 19  1  0  0  0
 18 28  1  0  0  0
 19 22  2  0  0  0
 19 38  1  0  0  0
 20 25  2  0  0  0
 20 26  1  0  0  0
 20 37  1  0  0  0
 21 46  1  0  0  0
 22 47  1  0  0  0
 23 25  1  0  0  0
 23 48  1  0  0  0
 24 26  2  0  0  0
 24 49  1  0  0  0
 25 50  1  0  0  0
 26 51  1  0  0  0
 27 36  1  0  0  0
 27 39  1  0  0  0
 27 52  1  0  0  0
 28 29  1  0  0  0
 28 53  1  0  0  0
 29 30  1  0  0  0
 29 54  1  0  0  0
 30 31  1  0  0  0
 30 55  1  0  0  0
 31 32  1  0  0  0
 31 56  1  0  0  0
 32 34  1  0  0  0
 32 57  1  0  0  0
 33 40  1  0  0  0
 34 58  1  0  0  0
 34 59  1  0  0  0
 35 60  1  0  0  0
 35 61  1  0  0  0
 35 62  1  0  0  0
 36 63  1  0  0  0
 36 64  1  0  0  0
 37 40  2  0  0  0
 37 65  1  0  0  0
 38 66  1  0  0  0
 38 67  1  0  0  0
 38 68  1  0  0  0
 39 69  1  0  0  0
 39 70  1  0  0  0
 39 71  1  0  0  0
 40 72  1  0  0  0
M  END
> <Tumorigenic>
none

> <Score>
35.304947

> <Active/Decoy>
active

> <InChI>
InChI=1S/C29H32O11/c1-14-10-20(37-3)24(27-23(14)19(33)12-18(38-27)11-15(2)31)28-29(26(36)25(35)21(13-30)39-28)40-22(34)9-6-16-4-7-17(32)8-5-16/h4-10,12,15,21,25-26,28-32,35-36H,11,13H2,1-3H3/b9-6+/t15-,21-,25-,26+,28+,29-/m1/s1

> <Matching Features>
H:14924486185440016873||HBA:14924321692640012300|HBA:14924486112070016868

> <Mol. Index>
88

> <Pharmacophore Match>
Model -1

> <# Confs.>
25

> <Source Database>
Pharm-Screening-input-EANPDB_After_DataWarror.ldb

> <Pharmacophore-Fit Score>
35.3

> <formula>
C29H32O11

> <Mutagenic>
none

> <Reproductive Effective>
none

> <Irritant>
none

$$$$
5,2',4'-trihydroxy-7-methoxy-6-(3-methylbut-2-enyl)isoflavone
XX    ILIB03122411353D

 47 49  0  0  1  0              1 V2000
   -0.2556    1.4693   -4.9745 O   0  0  0  0  0
   -1.8734   -1.4999   -2.7117 O   0  0  0  0  0
    3.7378    1.5652   -2.3317 O   0  0  0  0  0
    0.3602   -1.5554   -1.2242 O   0  0  0  0  0
   -4.6257    0.9865   -3.6206 O   0  0  0  0  0
   -7.1065   -2.0420   -6.3126 O   0  0  0  0  0
    0.4533    0.9462   -3.9230 C   0  0  0  0  0
   -1.4819    0.9261   -5.2551 C   0  0  0  0  0
   -1.3749   -0.6302   -3.4152 C   0  0  0  0  0
    2.5085    1.0530   -2.6353 C   0  0  0  0  0
    0.7785   -0.5610   -2.0718 C   0  0  0  0  0
   -4.6325   -0.0251   -4.5474 C   0  0  0  0  0
   -5.8928   -1.5695   -5.9023 C   0  0  0  0  0
   -0.0274   -0.0847   -3.1184 C   0  0  0  0  0
   -2.0953   -0.0697   -4.5986 C   0  0  0  0  0
   -3.4172   -0.5508   -5.0232 C   0  0  0  0  0
    2.0443   -0.0017   -1.8034 C   0  0  0  0  0
    1.7086    1.5143   -3.6862 C   0  0  0  0  0
   -5.8647   -0.5240   -4.9865 C   0  0  0  0  0
   -4.7098   -2.1205   -6.3811 C   0  0  0  0  0
   -3.4827   -1.6155   -5.9406 C   0  0  0  0  0
    4.1815    2.6277   -3.1733 C   0  0  0  0  0
    2.8762   -0.5013   -0.6660 C   0  0  0  0  0
    2.1948   -0.2371    1.7745 C   0  0  0  0  0
    2.6284    0.2431    0.6021 C   0  0  0  0  0
    1.9620    0.6843    2.9411 C   0  0  0  0  0
    1.9050   -1.6838    2.0578 C   0  0  0  0  0
   -0.5166   -1.8686   -1.4954 H   0  0  0  0  0
   -5.5427    1.2111   -3.3899 H   0  0  0  0  0
   -6.9594   -2.7688   -6.9421 H   0  0  0  0  0
   -1.8946    1.4307   -6.1207 H   0  0  0  0  0
    2.0364    2.3209   -4.3373 H   0  0  0  0  0
   -6.7952   -0.1058   -4.6122 H   0  0  0  0  0
   -4.7249   -2.9391   -7.0939 H   0  0  0  0  0
   -2.5769   -2.0666   -6.3395 H   0  0  0  0  0
    5.1646    2.9453   -2.8162 H   0  0  0  0  0
    4.2938    2.2901   -4.2091 H   0  0  0  0  0
    3.5075    3.4886   -3.1100 H   0  0  0  0  0
    2.7014   -1.5749   -0.5374 H   0  0  0  0  0
    3.9480   -0.4138   -0.9333 H   0  0  0  0  0
    2.8197    1.3227    0.5302 H   0  0  0  0  0
    0.9208    0.6185    3.2738 H   0  0  0  0  0
    2.1647    1.7317    2.6939 H   0  0  0  0  0
    2.6123    0.4091    3.7771 H   0  0  0  0  0
    2.4581   -2.0103    2.9437 H   0  0  0  0  0
    0.8359   -1.8237    2.2501 H   0  0  0  0  0
    2.1887   -2.3532    1.2431 H   0  0  0  0  0
  1  7  1  0  0  0
  1  8  1  0  0  0
  2  9  2  0  0  0
  3 10  1  0  0  0
  3 22  1  0  0  0
  4 11  1  0  0  0
  4 28  1  0  0  0
  5 12  1  0  0  0
  5 29  1  0  0  0
  6 13  1  0  0  0
  6 30  1  0  0  0
  7 14  1  0  0  0
  7 18  2  0  0  0
  8 15  2  0  0  0
  8 31  1  0  0  0
  9 14  1  0  0  0
  9 15  1  0  0  0
 10 17  2  0  0  0
 10 18  1  0  0  0
 11 14  2  0  0  0
 11 17  1  0  0  0
 12 16  2  0  0  0
 12 19  1  0  0  0
 13 19  2  0  0  0
 13 20  1  0  0  0
 15 16  1  0  0  0
 16 21  1  0  0  0
 17 23  1  0  0  0
 18 32  1  0  0  0
 19 33  1  0  0  0
 20 21  2  0  0  0
 20 34  1  0  0  0
 21 35  1  0  0  0
 22 36  1  0  0  0
 22 37  1  0  0  0
 22 38  1  0  0  0
 23 25  1  0  0  0
 23 39  1  0  0  0
 23 40  1  0  0  0
 24 25  2  0  0  0
 24 26  1  0  0  0
 24 27  1  0  0  0
 25 41  1  0  0  0
 26 42  1  0  0  0
 26 43  1  0  0  0
 26 44  1  0  0  0
 27 45  1  0  0  0
 27 46  1  0  0  0
 27 47  1  0  0  0
M  END
> <Tumorigenic>
none

> <Score>
35.234882

> <Active/Decoy>
active

> <InChI>
InChI=1S/C21H20O6/c1-11(2)4-6-14-17(26-3)9-18-19(20(14)24)21(25)15(10-27-18)13-7-5-12(22)8-16(13)23/h4-5,7-10,22-24H,6H2,1-3H3

> <Matching Features>
H:14924486185440016873||HBA:14924321692640012300|HBA:14924486112070016868

> <Mol. Index>
248

> <Pharmacophore Match>
Model -1

> <# Confs.>
25

> <Source Database>
Pharm-Screening-input-EANPDB_After_DataWarror.ldb

> <Pharmacophore-Fit Score>
35.23

> <formula>
C21H20O6

> <Mutagenic>
none

> <Reproductive Effective>
none

> <Irritant>
none

$$$$
uguenenprenol
XX    ILIB03122411353D

 47 49  0  0  1  0              1 V2000
    2.3962    0.4290   -1.1847 O   0  0  0  0  0
   -1.7526    2.7805   -1.7747 O   0  0  0  0  0
    1.9381    5.1786   -0.1677 O   0  0  0  0  0
    1.9596   -1.0064    4.9541 O   0  0  0  0  0
    5.0092    1.5275   -1.8074 O   0  0  0  0  0
    4.3023    3.8516    0.0121 O   0  0  0  0  0
   -6.6019    0.9828   -4.2728 O   0  0  0  0  0
    1.7119    1.6119   -1.0877 C   0  0  0  0  0
   -0.4236    2.7113   -1.4255 C   0  0  0  0  0
    1.4850    3.9614   -0.5973 C   0  0  0  0  0
    2.3331   -0.7044    3.6738 C   0  0  0  0  0
    3.1269   -0.0331    1.0752 C   0  0  0  0  0
    2.2830    2.8130   -0.6581 C   0  0  0  0  0
    0.3711    1.5648   -1.4909 C   0  0  0  0  0
    0.1350    3.9025   -0.9540 C   0  0  0  0  0
    3.0311    0.4783    3.4515 C   0  0  0  0  0
    2.0225   -1.5557    2.6167 C   0  0  0  0  0
    3.4263    0.8121    2.1559 C   0  0  0  0  0
    2.4195   -1.2188    1.3213 C   0  0  0  0  0
    3.5457    0.3167   -0.3261 C   0  0  2  0  0
    4.4728    1.5226   -0.4915 C   0  0  2  0  0
    3.7269    2.8233   -0.3257 C   0  0  0  0  0
   -2.3500    1.5809   -2.2425 C   0  0  0  0  0
   -5.8359    2.1106   -3.8727 C   0  0  0  0  0
   -4.4007    1.7253   -3.7383 C   0  0  0  0  0
   -3.7723    1.8599   -2.5610 C   0  0  0  0  0
   -3.7586    1.2148   -4.9993 C   0  0  0  0  0
    2.8630    5.0958    0.1159 H   0  0  0  0  0
    1.4994   -1.8632    4.9480 H   0  0  0  0  0
    5.6676    2.2414   -1.8529 H   0  0  0  0  0
   -6.5322    0.3155   -3.5683 H   0  0  0  0  0
   -0.0355    0.6117   -1.8189 H   0  0  0  0  0
   -0.4753    4.8015   -0.9029 H   0  0  0  0  0
    3.2698    1.1437    4.2761 H   0  0  0  0  0
    1.4747   -2.4783    2.7867 H   0  0  0  0  0
    3.9694    1.7400    1.9932 H   0  0  0  0  0
    2.1712   -1.8915    0.5037 H   0  0  0  0  0
    4.0954   -0.5570   -0.7038 H   0  0  0  0  0
    5.3038    1.4798    0.2208 H   0  0  0  0  0
   -1.8091    1.2023   -3.1141 H   0  0  0  0  0
   -2.3062    0.8068   -1.4429 H   0  0  0  0  0
   -6.2536    2.5010   -2.9386 H   0  0  0  0  0
   -5.9425    2.8828   -4.6406 H   0  0  0  0  0
   -4.3542    2.2413   -1.7127 H   0  0  0  0  0
   -4.3337    0.3781   -5.4102 H   0  0  0  0  0
   -3.7243    2.0105   -5.7517 H   0  0  0  0  0
   -2.7387    0.8523   -4.8539 H   0  0  0  0  0
  1  8  1  0  0  0
  1 20  1  0  0  0
  2  9  1  0  0  0
  2 23  1  0  0  0
  3 10  1  0  0  0
  3 28  1  0  0  0
  4 11  1  0  0  0
  4 29  1  0  0  0
  5 21  1  0  0  0
  5 30  1  0  0  0
  6 22  2  0  0  0
  7 24  1  0  0  0
  7 31  1  0  0  0
  8 13  2  0  0  0
  8 14  1  0  0  0
  9 14  2  0  0  0
  9 15  1  0  0  0
 10 13  1  0  0  0
 10 15  2  0  0  0
 11 16  2  0  0  0
 11 17  1  0  0  0
 12 18  2  0  0  0
 12 19  1  0  0  0
 12 20  1  0  0  0
 13 22  1  0  0  0
 14 32  1  0  0  0
 15 33  1  0  0  0
 16 18  1  0  0  0
 16 34  1  0  0  0
 17 19  2  0  0  0
 17 35  1  0  0  0
 18 36  1  0  0  0
 19 37  1  0  0  0
 20 21  1  0  0  0
 20 38  1  0  0  0
 21 22  1  0  0  0
 21 39  1  0  0  0
 23 26  1  0  0  0
 23 40  1  0  0  0
 23 41  1  0  0  0
 24 25  1  0  0  0
 24 42  1  0  0  0
 24 43  1  0  0  0
 25 26  2  0  0  0
 25 27  1  0  0  0
 26 44  1  0  0  0
 27 45  1  0  0  0
 27 46  1  0  0  0
 27 47  1  0  0  0
M  END
> <Tumorigenic>
none

> <Score>
35.19841

> <Active/Decoy>
active

> <InChI>
InChI=1S/C20H20O7/c1-11(10-21)6-7-26-14-8-15(23)17-16(9-14)27-20(19(25)18(17)24)12-2-4-13(22)5-3-12/h2-6,8-9,19-23,25H,7,10H2,1H3/b11-6-/t19-,20+/m0/s1

> <Matching Features>
H:14924486185440016873||HBA:14924321692640012300|HBA:14924486112070016868

> <Mol. Index>
443

> <Pharmacophore Match>
Model -1

> <# Confs.>
25

> <Source Database>
Pharm-Screening-input-EANPDB_After_DataWarror.ldb

> <Pharmacophore-Fit Score>
35.2

> <formula>
C20H20O7

> <Mutagenic>
none

> <Reproductive Effective>
none

> <Irritant>
none

$$$$
uguenenprenol
XX    ILIB03122411353D

 47 49  0  0  1  0              1 V2000
    2.3962    0.4290   -1.1847 O   0  0  0  0  0
   -1.7526    2.7805   -1.7747 O   0  0  0  0  0
    1.9381    5.1786   -0.1677 O   0  0  0  0  0
    1.9596   -1.0064    4.9541 O   0  0  0  0  0
    5.0092    1.5275   -1.8074 O   0  0  0  0  0
    4.3023    3.8516    0.0121 O   0  0  0  0  0
   -6.6019    0.9828   -4.2728 O   0  0  0  0  0
    1.7119    1.6119   -1.0877 C   0  0  0  0  0
   -0.4236    2.7113   -1.4255 C   0  0  0  0  0
    1.4850    3.9614   -0.5973 C   0  0  0  0  0
    2.3331   -0.7044    3.6738 C   0  0  0  0  0
    3.1269   -0.0331    1.0752 C   0  0  0  0  0
    2.2830    2.8130   -0.6581 C   0  0  0  0  0
    0.3711    1.5648   -1.4909 C   0  0  0  0  0
    0.1350    3.9025   -0.9540 C   0  0  0  0  0
    3.0311    0.4783    3.4515 C   0  0  0  0  0
    2.0225   -1.5557    2.6167 C   0  0  0  0  0
    3.4263    0.8121    2.1559 C   0  0  0  0  0
    2.4195   -1.2188    1.3213 C   0  0  0  0  0
    3.5457    0.3167   -0.3261 C   0  0  2  0  0
    4.4728    1.5226   -0.4915 C   0  0  2  0  0
    3.7269    2.8233   -0.3257 C   0  0  0  0  0
   -2.3500    1.5809   -2.2425 C   0  0  0  0  0
   -5.8359    2.1106   -3.8727 C   0  0  0  0  0
   -4.4007    1.7253   -3.7383 C   0  0  0  0  0
   -3.7723    1.8599   -2.5610 C   0  0  0  0  0
   -3.7586    1.2148   -4.9993 C   0  0  0  0  0
    2.8630    5.0958    0.1159 H   0  0  0  0  0
    1.4994   -1.8632    4.9480 H   0  0  0  0  0
    5.6676    2.2414   -1.8529 H   0  0  0  0  0
   -6.5322    0.3155   -3.5683 H   0  0  0  0  0
   -0.0355    0.6117   -1.8189 H   0  0  0  0  0
   -0.4753    4.8015   -0.9029 H   0  0  0  0  0
    3.2698    1.1437    4.2761 H   0  0  0  0  0
    1.4747   -2.4783    2.7867 H   0  0  0  0  0
    3.9694    1.7400    1.9932 H   0  0  0  0  0
    2.1712   -1.8915    0.5037 H   0  0  0  0  0
    4.0954   -0.5570   -0.7038 H   0  0  0  0  0
    5.3038    1.4798    0.2208 H   0  0  0  0  0
   -1.8091    1.2023   -3.1141 H   0  0  0  0  0
   -2.3062    0.8068   -1.4429 H   0  0  0  0  0
   -6.2536    2.5010   -2.9386 H   0  0  0  0  0
   -5.9425    2.8828   -4.6406 H   0  0  0  0  0
   -4.3542    2.2413   -1.7127 H   0  0  0  0  0
   -4.3337    0.3781   -5.4102 H   0  0  0  0  0
   -3.7243    2.0105   -5.7517 H   0  0  0  0  0
   -2.7387    0.8523   -4.8539 H   0  0  0  0  0
  1  8  1  0  0  0
  1 20  1  0  0  0
  2  9  1  0  0  0
  2 23  1  0  0  0
  3 10  1  0  0  0
  3 28  1  0  0  0
  4 11  1  0  0  0
  4 29  1  0  0  0
  5 21  1  0  0  0
  5 30  1  0  0  0
  6 22  2  0  0  0
  7 24  1  0  0  0
  7 31  1  0  0  0
  8 13  2  0  0  0
  8 14  1  0  0  0
  9 14  2  0  0  0
  9 15  1  0  0  0
 10 13  1  0  0  0
 10 15  2  0  0  0
 11 16  2  0  0  0
 11 17  1  0  0  0
 12 18  2  0  0  0
 12 19  1  0  0  0
 12 20  1  0  0  0
 13 22  1  0  0  0
 14 32  1  0  0  0
 15 33  1  0  0  0
 16 18  1  0  0  0
 16 34  1  0  0  0
 17 19  2  0  0  0
 17 35  1  0  0  0
 18 36  1  0  0  0
 19 37  1  0  0  0
 20 21  1  0  0  0
 20 38  1  0  0  0
 21 22  1  0  0  0
 21 39  1  0  0  0
 23 26  1  0  0  0
 23 40  1  0  0  0
 23 41  1  0  0  0
 24 25  1  0  0  0
 24 42  1  0  0  0
 24 43  1  0  0  0
 25 26  2  0  0  0
 25 27  1  0  0  0
 26 44  1  0  0  0
 27 45  1  0  0  0
 27 46  1  0  0  0
 27 47  1  0  0  0
M  END
> <Tumorigenic>
none

> <Score>
35.19841

> <Active/Decoy>
active

> <InChI>
InChI=1S/C20H20O7/c1-11(10-21)6-7-26-14-8-15(23)17-16(9-14)27-20(19(25)18(17)24)12-2-4-13(22)5-3-12/h2-6,8-9,19-23,25H,7,10H2,1H3/b11-6+/t19-,20+/m0/s1

> <Matching Features>
H:14924486185440016873||HBA:14924321692640012300|HBA:14924486112070016868

> <Mol. Index>
429

> <Pharmacophore Match>
Model -1

> <# Confs.>
25

> <Source Database>
Pharm-Screening-input-EANPDB_After_DataWarror.ldb

> <Pharmacophore-Fit Score>
35.2

> <formula>
C20H20O7

> <Mutagenic>
none

> <Reproductive Effective>
none

> <Irritant>
none

$$$$
5,7-dihydroxy-2',3',4'-trimethoxy-6-(3-methylbut-2-enyl)isoflavanone
XX    ILIB03122411353D

 54 56  0  0  1  0              1 V2000
    0.3979   -0.3017    1.4622 O   0  0  0  0  0
    1.0323    1.1651   -2.2889 O   0  0  0  0  0
   -4.3534    3.0072   -2.3283 O   0  0  0  0  0
   -2.0281    2.8141   -0.7761 O   0  0  0  0  0
   -5.1249    1.0329   -3.9089 O   0  0  0  0  0
    3.5732    1.3306   -1.7742 O   0  0  0  0  0
    4.9943   -0.1618    2.5814 O   0  0  0  0  0
    1.6733    0.0051    1.0585 C   0  0  0  0  0
   -0.6237   -0.0818    0.5761 C   0  0  0  0  0
    0.8563    0.7360   -1.1561 C   0  0  0  0  0
   -3.6065    1.8634   -2.3184 C   0  0  0  0  0
   -2.4319    1.7611   -1.5456 C   0  0  0  0  0
   -4.0048    0.8149   -3.1568 C   0  0  0  0  0
    3.3140    0.8046   -0.5351 C   0  0  0  0  0
    4.0098    0.0595    1.6526 C   0  0  0  0  0
    1.9764    0.5104   -0.2076 C   0  0  0  0  0
   -0.5074    0.3969   -0.6799 C   0  0  0  0  0
   -1.7017    0.5678   -1.5058 C   0  0  0  0  0
    4.3551    0.5670    0.3870 C   0  0  0  0  0
    2.6842   -0.2239    1.9875 C   0  0  0  0  0
   -3.2599   -0.3647   -3.1569 C   0  0  0  0  0
   -2.1331   -0.4917   -2.3337 C   0  0  0  0  0
   -3.8653    4.0623   -1.5045 C   0  0  0  0  0
   -0.6222    2.8990   -0.5554 C   0  0  0  0  0
   -5.5119   -0.0477   -4.7547 C   0  0  0  0  0
    5.7941    0.8606    0.0644 C   0  0  0  0  0
    7.0838   -0.3677   -1.7696 C   0  0  0  0  0
    6.4964   -0.3065   -0.5594 C   0  0  0  0  0
    7.7093   -1.6499   -2.2485 C   0  0  0  0  0
    7.1933    0.7767   -2.7384 C   0  0  0  0  0
    4.4918    1.6328   -1.8294 H   0  0  0  0  0
    4.5889   -0.5221    3.3885 H   0  0  0  0  0
   -1.5651   -0.3669    1.0289 H   0  0  0  0  0
    2.4384   -0.6172    2.9708 H   0  0  0  0  0
   -3.5334   -1.2170   -3.7709 H   0  0  0  0  0
   -1.5950   -1.4374   -2.3586 H   0  0  0  0  0
   -4.5465    4.9123   -1.6128 H   0  0  0  0  0
   -3.8611    3.7695   -0.4494 H   0  0  0  0  0
   -2.8708    4.3879   -1.8282 H   0  0  0  0  0
   -0.4345    3.7865    0.0566 H   0  0  0  0  0
   -0.2559    2.0270   -0.0032 H   0  0  0  0  0
   -0.0811    3.0231   -1.5001 H   0  0  0  0  0
   -6.4182    0.2554   -5.2870 H   0  0  0  0  0
   -4.7387   -0.2603   -5.5008 H   0  0  0  0  0
   -5.7495   -0.9421   -4.1677 H   0  0  0  0  0
    5.8415    1.7422   -0.5872 H   0  0  0  0  0
    6.3237    1.1430    0.9824 H   0  0  0  0  0
    6.4962   -1.2095    0.0518 H   0  0  0  0  0
    7.2440   -1.9705   -3.1869 H   0  0  0  0  0
    7.5933   -2.4662   -1.5273 H   0  0  0  0  0
    8.7801   -1.5086   -2.4213 H   0  0  0  0  0
    8.2394    0.9234   -3.0283 H   0  0  0  0  0
    6.6134    0.5630   -3.6424 H   0  0  0  0  0
    6.8424    1.7274   -2.3323 H   0  0  0  0  0
  1  8  1  0  0  0
  1  9  1  0  0  0
  2 10  2  0  0  0
  3 11  1  0  0  0
  3 23  1  0  0  0
  4 12  1  0  0  0
  4 24  1  0  0  0
  5 13  1  0  0  0
  5 25  1  0  0  0
  6 14  1  0  0  0
  6 31  1  0  0  0
  7 15  1  0  0  0
  7 32  1  0  0  0
  8 16  1  0  0  0
  8 20  2  0  0  0
  9 17  2  0  0  0
  9 33  1  0  0  0
 10 16  1  0  0  0
 10 17  1  0  0  0
 11 12  1  0  0  0
 11 13  2  0  0  0
 12 18  2  0  0  0
 13 21  1  0  0  0
 14 16  2  0  0  0
 14 19  1  0  0  0
 15 19  2  0  0  0
 15 20  1  0  0  0
 17 18  1  0  0  0
 18 22  1  0  0  0
 19 26  1  0  0  0
 20 34  1  0  0  0
 21 22  2  0  0  0
 21 35  1  0  0  0
 22 36  1  0  0  0
 23 37  1  0  0  0
 23 38  1  0  0  0
 23 39  1  0  0  0
 24 40  1  0  0  0
 24 41  1  0  0  0
 24 42  1  0  0  0
 25 43  1  0  0  0
 25 44  1  0  0  0
 25 45  1  0  0  0
 26 28  1  0  0  0
 26 46  1  0  0  0
 26 47  1  0  0  0
 27 28  2  0  0  0
 27 29  1  0  0  0
 27 30  1  0  0  0
 28 48  1  0  0  0
 29 49  1  0  0  0
 29 50  1  0  0  0
 29 51  1  0  0  0
 30 52  1  0  0  0
 30 53  1  0  0  0
 30 54  1  0  0  0
M  END
> <Tumorigenic>
none

> <Score>
35.193604

> <Active/Decoy>
active

> <InChI>
InChI=1S/C23H24O7/c1-12(2)6-7-14-16(24)10-18-19(20(14)25)21(26)15(11-30-18)13-8-9-17(27-3)23(29-5)22(13)28-4/h6,8-11,24-25H,7H2,1-5H3

> <Matching Features>
H:14924486185440016873||HBA:14924321692640012300|HBA:14924486112070016868

> <Mol. Index>
322

> <Pharmacophore Match>
Model -1

> <# Confs.>
25

> <Source Database>
Pharm-Screening-input-EANPDB_After_DataWarror.ldb

> <Pharmacophore-Fit Score>
35.19

> <formula>
C23H24O7

> <Mutagenic>
none

> <Reproductive Effective>
none

> <Irritant>
none

$$$$
5,7-dimethoxy-8-(3-hydroxy-3-methylbut-1Z-enyl)flavone
XX    ILIB03122411353D

 49 51  0  0  1  0              1 V2000
   -0.0595    0.4588   -1.5294 O   0  0  0  0  0
   -4.0580    0.3339   -0.8452 O   0  0  0  0  0
   -4.4944    0.8908   -3.3269 O   0  0  0  0  0
   -0.5317    1.4582   -6.1347 O   0  0  0  0  0
    4.0389    1.5728   -2.2506 O   0  0  0  0  0
   -0.9158    0.6640   -2.5876 C   0  0  0  0  0
   -0.5721    0.1716   -0.2763 C   0  0  0  0  0
   -2.8586    0.3745   -1.0863 C   0  0  0  0  0
   -3.1398    0.9199   -3.5368 C   0  0  0  0  0
   -1.1622    1.2048   -4.9432 C   0  0  0  0  0
   -2.3076    0.6587   -2.4341 C   0  0  0  0  0
    0.4459   -0.0619    0.7420 C   0  0  0  0  0
   -0.3200    0.9395   -3.8326 C   0  0  0  0  0
   -1.8840    0.1201   -0.0089 C   0  0  0  0  0
   -2.5562    1.1909   -4.7841 C   0  0  0  0  0
    1.3759    0.9379    1.0512 C   0  0  0  0  0
    0.5028   -1.2886    1.4139 C   0  0  0  0  0
    2.3489    0.7122    2.0263 C   0  0  0  0  0
    1.4776   -1.5095    2.3878 C   0  0  0  0  0
    2.3989   -0.5102    2.6959 C   0  0  0  0  0
    3.4518    1.8431   -3.5280 C   0  0  0  0  0
   -4.9855   -0.4310   -3.5509 C   0  0  0  0  0
   -0.2772    2.8580   -6.2535 C   0  0  0  0  0
    1.1275    0.9507   -4.0033 C   0  0  0  0  0
    1.9592    1.7954   -3.3658 C   0  0  0  0  0
    4.0222    0.8300   -4.5281 C   0  0  0  0  0
    3.8796    3.2573   -3.9270 C   0  0  0  0  0
    3.7911    0.6696   -1.9896 H   0  0  0  0  0
   -2.2870   -0.0958    0.9727 H   0  0  0  0  0
   -3.1934    1.3869   -5.6410 H   0  0  0  0  0
    1.3510    1.8980    0.5420 H   0  0  0  0  0
   -0.2084   -2.0798    1.1890 H   0  0  0  0  0
    3.0668    1.4908    2.2658 H   0  0  0  0  0
    1.5174   -2.4622    2.9088 H   0  0  0  0  0
    3.1551   -0.6830    3.4550 H   0  0  0  0  0
   -4.5208   -1.1493   -2.8662 H   0  0  0  0  0
   -6.0622   -0.4256   -3.3553 H   0  0  0  0  0
   -4.8312   -0.7382   -4.5910 H   0  0  0  0  0
    0.3700    3.2149   -5.4450 H   0  0  0  0  0
    0.2437    3.0243   -7.2016 H   0  0  0  0  0
   -1.2124    3.4284   -6.2746 H   0  0  0  0  0
    1.5286    0.2413   -4.7194 H   0  0  0  0  0
    1.5505    2.5162   -2.6593 H   0  0  0  0  0
    5.1160    0.8826   -4.5502 H   0  0  0  0  0
    3.7742   -0.1974   -4.2373 H   0  0  0  0  0
    3.6511    1.0039   -5.5436 H   0  0  0  0  0
    3.5508    3.9949   -3.1853 H   0  0  0  0  0
    3.4737    3.5457   -4.9026 H   0  0  0  0  0
    4.9715    3.3385   -3.9778 H   0  0  0  0  0
  1  6  1  0  0  0
  1  7  1  0  0  0
  2  8  2  0  0  0
  3  9  1  0  0  0
  3 22  1  0  0  0
  4 10  1  0  0  0
  4 23  1  0  0  0
  5 21  1  0  0  0
  5 28  1  0  0  0
  6 11  2  0  0  0
  6 13  1  0  0  0
  7 12  1  0  0  0
  7 14  2  0  0  0
  8 11  1  0  0  0
  8 14  1  0  0  0
  9 11  1  0  0  0
  9 15  2  0  0  0
 10 13  2  0  0  0
 10 15  1  0  0  0
 12 16  2  0  0  0
 12 17  1  0  0  0
 13 24  1  0  0  0
 14 29  1  0  0  0
 15 30  1  0  0  0
 16 18  1  0  0  0
 16 31  1  0  0  0
 17 19  2  0  0  0
 17 32  1  0  0  0
 18 20  2  0  0  0
 18 33  1  0  0  0
 19 20  1  0  0  0
 19 34  1  0  0  0
 20 35  1  0  0  0
 21 25  1  0  0  0
 21 26  1  0  0  0
 21 27  1  0  0  0
 22 36  1  0  0  0
 22 37  1  0  0  0
 22 38  1  0  0  0
 23 39  1  0  0  0
 23 40  1  0  0  0
 23 41  1  0  0  0
 24 25  2  0  0  0
 24 42  1  0  0  0
 25 43  1  0  0  0
 26 44  1  0  0  0
 26 45  1  0  0  0
 26 46  1  0  0  0
 27 47  1  0  0  0
 27 48  1  0  0  0
 27 49  1  0  0  0
M  END
> <Tumorigenic>
none

> <Score>
35.168842

> <Active/Decoy>
active

> <InChI>
InChI=1S/C22H22O5/c1-22(2,24)11-10-15-18(25-3)13-19(26-4)20-16(23)12-17(27-21(15)20)14-8-6-5-7-9-14/h5-13,24H,1-4H3/b11-10-

> <Matching Features>
H:14924486185440016873||HBA:14924321692640012300|HBA:14924486112070016868

> <Mol. Index>
288

> <Pharmacophore Match>
Model -1

> <# Confs.>
25

> <Source Database>
Pharm-Screening-input-EANPDB_After_DataWarror.ldb

> <Pharmacophore-Fit Score>
35.17

> <formula>
C22H22O5

> <Mutagenic>
none

> <Reproductive Effective>
none

> <Irritant>
none

$$$$
5,7-dihydroxy-3-[3-hydroxy-4-methoxy-5[(E)-3-methylbuta-1,3-dienyl]phenyl-1- benzopyran-4-one
XX    ILIB03122411353D

 45 47  0  0  1  0              1 V2000
   -2.6423   -2.9397   -3.1904 O   0  0  0  0  0
   -2.5709    1.0993   -3.7086 O   0  0  0  0  0
    3.6837    1.5458   -2.2993 O   0  0  0  0  0
    2.4141    1.8032   -4.7490 O   0  0  0  0  0
   -5.1745    1.0855   -4.0630 O   0  0  0  0  0
   -7.2946   -3.2013   -3.9392 O   0  0  0  0  0
   -3.8048   -2.2648   -3.4614 C   0  0  0  0  0
   -1.4960   -2.2047   -3.0343 C   0  0  0  0  0
   -2.5968   -0.1081   -3.5091 C   0  0  0  0  0
    2.4449    1.0040   -2.4948 C   0  0  0  0  0
    1.8009    1.1213   -3.7313 C   0  0  0  0  0
   -5.0904   -0.2713   -3.8992 C   0  0  0  0  0
   -6.1784   -2.4203   -3.8406 C   0  0  0  0  0
   -3.8570   -0.8791   -3.6251 C   0  0  0  0  0
   -1.3625   -0.8755   -3.1583 C   0  0  0  0  0
   -0.0605   -0.2274   -2.9442 C   0  0  0  0  0
    1.8633    0.2529   -1.4628 C   0  0  0  0  0
   -4.9624   -3.0401   -3.5692 C   0  0  0  0  0
   -6.2529   -1.0392   -4.0067 C   0  0  0  0  0
    0.5595    0.5211   -3.9542 C   0  0  0  0  0
    0.6051   -0.3556   -1.7123 C   0  0  0  0  0
    4.2474    2.2029   -3.4316 C   0  0  0  0  0
    2.4574    0.0060   -0.1531 C   0  0  0  0  0
    2.3662   -0.4016    2.2886 C   0  0  0  0  0
    1.7759   -0.1642    0.9875 C   0  0  0  0  0
    1.6384   -0.5804    3.4024 C   0  0  0  0  0
    3.8657   -0.4936    2.3100 C   0  0  0  0  0
    1.8380    1.7829   -5.5333 H   0  0  0  0  0
   -6.1009    1.3224   -4.2479 H   0  0  0  0  0
   -8.0584   -2.6286   -4.1306 H   0  0  0  0  0
   -0.6867   -2.8776   -2.7801 H   0  0  0  0  0
   -4.9138   -4.1180   -3.4434 H   0  0  0  0  0
   -7.2080   -0.5664   -4.2164 H   0  0  0  0  0
    0.0902    0.6326   -4.9293 H   0  0  0  0  0
    0.1474   -0.9429   -0.9161 H   0  0  0  0  0
    5.2272    2.5874   -3.1380 H   0  0  0  0  0
    4.3959    1.5029   -4.2607 H   0  0  0  0  0
    3.6315    3.0545   -3.7410 H   0  0  0  0  0
    3.5498   -0.0023   -0.1458 H   0  0  0  0  0
    0.6879   -0.1409    0.9715 H   0  0  0  0  0
    2.1136   -0.7772    4.3572 H   0  0  0  0  0
    0.5542   -0.5412    3.3962 H   0  0  0  0  0
    4.2503   -0.6962    3.3148 H   0  0  0  0  0
    4.2130   -1.2991    1.6536 H   0  0  0  0  0
    4.3128    0.4471    1.9699 H   0  0  0  0  0
  1  7  1  0  0  0
  1  8  1  0  0  0
  2  9  2  0  0  0
  3 10  1  0  0  0
  3 22  1  0  0  0
  4 11  1  0  0  0
  4 28  1  0  0  0
  5 12  1  0  0  0
  5 29  1  0  0  0
  6 13  1  0  0  0
  6 30  1  0  0  0
  7 14  2  0  0  0
  7 18  1  0  0  0
  8 15  2  0  0  0
  8 31  1  0  0  0
  9 14  1  0  0  0
  9 15  1  0  0  0
 10 11  2  0  0  0
 10 17  1  0  0  0
 11 20  1  0  0  0
 12 14  1  0  0  0
 12 19  2  0  0  0
 13 18  2  0  0  0
 13 19  1  0  0  0
 15 16  1  0  0  0
 16 20  2  0  0  0
 16 21  1  0  0  0
 17 21  2  0  0  0
 17 23  1  0  0  0
 18 32  1  0  0  0
 19 33  1  0  0  0
 20 34  1  0  0  0
 21 35  1  0  0  0
 22 36  1  0  0  0
 22 37  1  0  0  0
 22 38  1  0  0  0
 23 25  2  0  0  0
 23 39  1  0  0  0
 24 25  1  0  0  0
 24 26  2  0  0  0
 24 27  1  0  0  0
 25 40  1  0  0  0
 26 41  1  0  0  0
 26 42  1  0  0  0
 27 43  1  0  0  0
 27 44  1  0  0  0
 27 45  1  0  0  0
M  END
> <Tumorigenic>
none

> <Score>
35.165813

> <Active/Decoy>
active

> <InChI>
InChI=1S/C21H18O6/c1-11(2)4-5-12-6-13(7-17(24)21(12)26-3)15-10-27-18-9-14(22)8-16(23)19(18)20(15)25/h4-10,22-24H,1H2,2-3H3/b5-4+

> <Matching Features>
H:14924486185440016873||HBA:14924321692640012300|HBA:14924486112070016868

> <Mol. Index>
274

> <Pharmacophore Match>
Model -1

> <# Confs.>
25

> <Source Database>
Pharm-Screening-input-EANPDB_After_DataWarror.ldb

> <Pharmacophore-Fit Score>
35.17

> <formula>
C21H18O6

> <Mutagenic>
none

> <Reproductive Effective>
none

> <Irritant>
none

$$$$
crotomacrine
XX    ILIB03122411353D

 46 49  0  0  1  0              1 V2000
    1.9550   -1.0260    3.5855 O   0  0  0  0  0
    3.2627   -0.1782   -0.7948 O   0  0  0  0  0
    3.5610    1.5048   -2.2331 O   0  0  0  0  0
   -4.9557    1.0661   -3.9391 O   0  0  0  0  0
   -3.0918    2.4296   -3.9373 O   0  0  0  0  0
    1.8680    1.7408   -4.1684 O   0  0  0  0  0
    1.8025   -1.6035    2.3674 C   0  0  0  0  0
    2.7015    0.0931    3.3962 C   0  0  0  0  0
    2.4402   -0.8714    1.3856 C   0  0  0  0  0
    3.0246    0.2354    2.0673 C   0  0  0  0  0
    2.4986   -1.1751   -0.0665 C   0  0  1  0  0
   -0.9415   -0.6023   -1.9565 C   0  0  1  0  0
    0.4225   -0.2053   -1.2515 C   0  0  1  0  0
   -1.4952    0.5806   -2.8058 C   0  0  2  0  0
    2.8078    0.6651   -1.7514 C   0  0  0  0  0
   -3.7545    1.2502   -3.8212 C   0  0  0  0  0
    0.9818    1.0977   -3.3222 C   0  0  0  0  0
   -3.9145    3.5727   -4.1921 C   0  0  0  0  0
    1.1537   -1.4585   -0.7284 C   0  0  0  0  0
    1.3787    0.5316   -2.1645 C   0  0  0  0  0
   -2.7580    0.2049   -3.5672 C   0  0  0  0  0
   -0.9810   -1.8815   -2.7832 C   0  0  0  0  0
   -0.4381    1.0871   -3.8182 C   0  0  0  0  0
    0.0765    0.7502   -0.0764 C   0  0  0  0  0
   -2.9225   -1.0703   -3.9963 C   0  0  0  0  0
   -1.9185   -2.0728   -3.7240 C   0  0  0  0  0
    1.3758    2.0423   -4.9513 H   0  0  0  0  0
    1.2220   -2.5135    2.3555 H   0  0  0  0  0
    2.9120    0.6711    4.2830 H   0  0  0  0  0
    3.6105    1.0359    1.6385 H   0  0  0  0  0
    3.0959   -2.0945   -0.1464 H   0  0  0  0  0
   -1.6613   -0.7900   -1.1437 H   0  0  0  0  0
   -1.7430    1.3996   -2.1269 H   0  0  0  0  0
   -4.6160    3.7238   -3.3661 H   0  0  0  0  0
   -3.2658    4.4494   -4.2661 H   0  0  0  0  0
   -4.4501    3.4525   -5.1384 H   0  0  0  0  0
    1.3968   -2.0991   -1.5852 H   0  0  0  0  0
    0.4991   -2.0470   -0.0744 H   0  0  0  0  0
   -0.3024   -2.7011   -2.5786 H   0  0  0  0  0
   -0.7159    2.1061   -4.1194 H   0  0  0  0  0
   -0.4574    0.4839   -4.7361 H   0  0  0  0  0
    0.9657    1.1744    0.3989 H   0  0  0  0  0
   -0.5157    1.6102   -0.4021 H   0  0  0  0  0
   -0.5006    0.2272    0.6945 H   0  0  0  0  0
   -3.7971   -1.4024   -4.5444 H   0  0  0  0  0
   -1.9683   -3.0028   -4.2778 H   0  0  0  0  0
  1  7  1  0  0  0
  1  8  1  0  0  0
  2 11  1  0  0  0
  2 15  1  0  0  0
  3 15  2  0  0  0
  4 16  2  0  0  0
  5 16  1  0  0  0
  5 18  1  0  0  0
  6 17  1  0  0  0
  6 27  1  0  0  0
  7  9  2  0  0  0
  7 28  1  0  0  0
  8 10  2  0  0  0
  8 29  1  0  0  0
  9 10  1  0  0  0
  9 11  1  0  0  0
 10 30  1  0  0  0
 11 19  1  0  0  0
 11 31  1  0  0  0
 12 13  1  0  0  0
 12 14  1  0  0  0
 12 22  1  0  0  0
 12 32  1  0  0  0
 13 19  1  0  0  0
 13 20  1  0  0  0
 13 24  1  0  0  0
 14 21  1  0  0  0
 14 23  1  0  0  0
 14 33  1  0  0  0
 15 20  1  0  0  0
 16 21  1  0  0  0
 17 20  2  0  0  0
 17 23  1  0  0  0
 18 34  1  0  0  0
 18 35  1  0  0  0
 18 36  1  0  0  0
 19 37  1  0  0  0
 19 38  1  0  0  0
 21 25  2  0  0  0
 22 26  2  0  0  0
 22 39  1  0  0  0
 23 40  1  0  0  0
 23 41  1  0  0  0
 24 42  1  0  0  0
 24 43  1  0  0  0
 24 44  1  0  0  0
 25 26  1  0  0  0
 25 45  1  0  0  0
 26 46  1  0  0  0
M  END
> <Tumorigenic>
none

> <Score>
35.115425

> <Active/Decoy>
active

> <InChI>
InChI=1S/C20H20O6/c1-20-9-16(11-6-7-25-10-11)26-19(23)17(20)15(21)8-13-12(18(22)24-2)4-3-5-14(13)20/h3-7,10,13-14,16,21H,8-9H2,1-2H3/t13-,14+,16+,20+/m0/s1

> <Matching Features>
H:14924486185440016873||HBA:14924321692640012300|HBA:14924486112070016868

> <Mol. Index>
211

> <Pharmacophore Match>
Model -1

> <# Confs.>
25

> <Source Database>
Pharm-Screening-input-EANPDB_After_DataWarror.ldb

> <Pharmacophore-Fit Score>
35.12

> <formula>
C20H20O6

> <Mutagenic>
none

> <Reproductive Effective>
none

> <Irritant>
none

$$$$
7-hydroxy-4'-methoxy-3'-prenylisoflavone
XX    ILIB03122411353D

 45 47  0  0  1  0              1 V2000
   -2.1144   -0.3165   -4.1294 O   0  0  0  0  0
   -1.0325    3.1894   -2.3523 O   0  0  0  0  0
    5.1432    1.5624   -1.8538 O   0  0  0  0  0
   -6.6650    0.9712   -4.2636 O   0  0  0  0  0
   -3.0608    0.6295   -3.8348 C   0  0  0  0  0
   -0.8150   -0.0498   -3.7781 C   0  0  0  0  0
   -1.3445    2.1218   -2.8647 C   0  0  0  0  0
    3.8361    1.4424   -2.2334 C   0  0  0  0  0
   -5.3780    1.2750   -3.9100 C   0  0  0  0  0
   -2.7473    1.8389   -3.2186 C   0  0  0  0  0
   -0.3462    1.0538   -3.1811 C   0  0  0  0  0
    1.0780    1.1900   -2.8482 C   0  0  0  0  0
    2.8728    1.4988   -1.1951 C   0  0  0  0  0
   -4.3816    0.3414   -4.1830 C   0  0  0  0  0
    3.4116    1.2786   -3.5546 C   0  0  0  0  0
   -5.0751    2.4881   -3.2943 C   0  0  0  0  0
    1.5139    1.3492   -1.5235 C   0  0  0  0  0
   -3.7540    2.7718   -2.9458 C   0  0  0  0  0
    2.0503    1.1551   -3.8562 C   0  0  0  0  0
    6.0935    1.5105   -2.9146 C   0  0  0  0  0
    3.2659    1.6408    0.2406 C   0  0  0  0  0
    2.8972   -0.1675    1.9928 C   0  0  0  0  0
    3.5155    0.3420    0.9214 C   0  0  0  0  0
    3.3240   -1.4909    2.5690 C   0  0  0  0  0
    1.7416    0.4765    2.7054 C   0  0  0  0  0
   -7.2376    1.7158   -4.0118 H   0  0  0  0  0
   -0.1995   -0.8988   -4.0512 H   0  0  0  0  0
   -4.6299   -0.6012   -4.6628 H   0  0  0  0  0
    4.1132    1.2399   -4.3834 H   0  0  0  0  0
   -5.8527    3.2158   -3.0824 H   0  0  0  0  0
    0.7891    1.3891   -0.7122 H   0  0  0  0  0
   -3.5284    3.7201   -2.4665 H   0  0  0  0  0
    1.7722    1.0277   -4.8993 H   0  0  0  0  0
    7.0892    1.6265   -2.4751 H   0  0  0  0  0
    6.0634    0.5418   -3.4246 H   0  0  0  0  0
    5.9419    2.3335   -3.6216 H   0  0  0  0  0
    4.1529    2.3061    0.2976 H   0  0  0  0  0
    2.4751    2.1808    0.7756 H   0  0  0  0  0
    4.3480   -0.2336    0.4885 H   0  0  0  0  0
    3.6129   -1.3707    3.6181 H   0  0  0  0  0
    4.1787   -1.9220    2.0369 H   0  0  0  0  0
    2.5013   -2.2117    2.5144 H   0  0  0  0  0
    0.9025   -0.2241    2.7680 H   0  0  0  0  0
    2.0345    0.7539    3.7224 H   0  0  0  0  0
    1.3675    1.3738    2.2076 H   0  0  0  0  0
  1  5  1  0  0  0
  1  6  1  0  0  0
  2  7  2  0  0  0
  3  8  1  0  0  0
  3 20  1  0  0  0
  4  9  1  0  0  0
  4 26  1  0  0  0
  5 10  2  0  0  0
  5 14  1  0  0  0
  6 11  2  0  0  0
  6 27  1  0  0  0
  7 10  1  0  0  0
  7 11  1  0  0  0
  8 13  2  0  0  0
  8 15  1  0  0  0
  9 14  2  0  0  0
  9 16  1  0  0  0
 10 18  1  0  0  0
 11 12  1  0  0  0
 12 17  2  0  0  0
 12 19  1  0  0  0
 13 17  1  0  0  0
 13 21  1  0  0  0
 14 28  1  0  0  0
 15 19  2  0  0  0
 15 29  1  0  0  0
 16 18  2  0  0  0
 16 30  1  0  0  0
 17 31  1  0  0  0
 18 32  1  0  0  0
 19 33  1  0  0  0
 20 34  1  0  0  0
 20 35  1  0  0  0
 20 36  1  0  0  0
 21 23  1  0  0  0
 21 37  1  0  0  0
 21 38  1  0  0  0
 22 23  2  0  0  0
 22 24  1  0  0  0
 22 25  1  0  0  0
 23 39  1  0  0  0
 24 40  1  0  0  0
 24 41  1  0  0  0
 24 42  1  0  0  0
 25 43  1  0  0  0
 25 44  1  0  0  0
 25 45  1  0  0  0
M  END
> <Tumorigenic>
none

> <Score>
35.11414

> <Active/Decoy>
active

> <InChI>
InChI=1S/C21H20O4/c1-13(2)4-5-15-10-14(6-9-19(15)24-3)18-12-25-20-11-16(22)7-8-17(20)21(18)23/h4,6-12,22H,5H2,1-3H3

> <Matching Features>
H:14924486185440016873||HBA:14924321692640012300|HBA:14924486112070016868

> <Mol. Index>
304

> <Pharmacophore Match>
Model -1

> <# Confs.>
25

> <Source Database>
Pharm-Screening-input-EANPDB_After_DataWarror.ldb

> <Pharmacophore-Fit Score>
35.11

> <formula>
C21H20O4

> <Mutagenic>
none

> <Reproductive Effective>
none

> <Irritant>
none

$$$$
(20S)-3beta-acetoxy-12beta,16beta,25-tetrahydroxydammar-23-ene
XX    ILIB03122411353D

 89 92  0  0  1  0              1 V2000
    4.7358    2.1273   -0.3957 O   0  0  0  0  0
    2.5289    2.9392   -0.3732 O   0  0  0  0  0
   -1.4586   -1.5748    4.5586 O   0  0  0  0  0
   -5.3998    1.3897    2.6332 O   0  0  0  0  0
    3.8364    1.6276   -2.4615 O   0  0  0  0  0
   -5.2935    1.0942   -4.1256 O   0  0  0  0  0
    3.4431    2.0009    0.2047 C   0  0  2  0  0
   -1.7732   -1.2748    3.1988 C   0  0  1  0  0
   -4.1275    1.4872    2.0211 C   0  0  2  0  0
   -2.7597   -0.1081    3.1671 C   0  0  2  0  0
   -3.4649    0.1204    1.8107 C   0  0  1  0  0
   -2.1280    1.2782    3.4890 C   0  0  1  0  0
    1.6741    0.5059    2.2520 C   0  0  2  0  0
    0.2355    0.2926    2.9265 C   0  0  1  0  0
   -0.7374    1.4871    2.7714 C   0  0  2  0  0
   -4.3564   -1.0406    1.3364 C   0  0  2  0  0
    2.2710    1.9462    2.5482 C   0  0  1  0  0
    4.7830    1.9142   -1.7397 C   0  0  0  0  0
   -5.3451    1.0454   -2.6964 C   0  0  0  0  0
    3.5969    2.3179    1.7354 C   0  0  0  0  0
    2.9127    0.5759   -0.0249 C   0  0  0  0  0
   -3.1767    2.2856    2.9162 C   0  0  0  0  0
   -0.4856   -0.9886    2.4339 C   0  0  0  0  0
    1.6072    0.2874    0.7190 C   0  0  0  0  0
   -0.0407    2.7656    3.2384 C   0  0  0  0  0
    1.1907    3.0426    2.3988 C   0  0  0  0  0
   -5.0288   -0.7427   -0.0212 C   0  0  0  0  0
   -2.0232    1.4718    5.0161 C   0  0  0  0  0
    2.5896   -0.5822    2.8915 C   0  0  0  0  0
   -5.4692   -1.3053    2.3605 C   0  0  0  0  0
   -4.1686    0.2460   -2.2213 C   0  0  0  0  0
   -4.0382   -0.5212   -1.1260 C   0  0  0  0  0
    6.1904    2.0727   -2.2260 C   0  0  0  0  0
   -6.7116    0.4761   -2.2975 C   0  0  0  0  0
   -5.2215    2.4869   -2.1956 C   0  0  0  0  0
    3.9516    3.8242    1.9121 C   0  0  0  0  0
    4.8333    1.5776    2.3260 C   0  0  0  0  0
    2.1170    2.5337   -1.1540 H   0  0  0  0  0
   -0.8544   -2.3369    4.5599 H   0  0  0  0  0
   -5.2767    1.0340    3.5293 H   0  0  0  0  0
   -5.3876    0.1854   -4.4617 H   0  0  0  0  0
   -2.2449   -2.1743    2.7910 H   0  0  0  0  0
   -4.2745    2.0036    1.0549 H   0  0  0  0  0
   -3.5327   -0.3148    3.9201 H   0  0  0  0  0
   -2.6828    0.2590    1.0341 H   0  0  0  0  0
    0.4267    0.1739    4.0027 H   0  0  0  0  0
   -0.9406    1.6001    1.6974 H   0  0  0  0  0
   -3.7643   -1.9444    1.2375 H   0  0  0  0  0
    2.5421    1.9623    3.6139 H   0  0  0  0  0
    2.7220    0.4208   -1.0954 H   0  0  0  0  0
    3.6758   -0.1661    0.2301 H   0  0  0  0  0
   -3.7316    2.7937    3.7140 H   0  0  0  0  0
   -2.6911    3.0673    2.3224 H   0  0  0  0  0
    0.1631   -1.8601    2.5413 H   0  0  0  0  0
   -0.7236   -0.9020    1.3684 H   0  0  0  0  0
    1.3348   -0.7505    0.4958 H   0  0  0  0  0
    0.8150    0.9129    0.2891 H   0  0  0  0  0
   -0.7131    3.6261    3.1625 H   0  0  0  0  0
    0.2594    2.6887    4.2897 H   0  0  0  0  0
    1.5772    4.0084    2.7368 H   0  0  0  0  0
    0.8858    3.1645    1.3552 H   0  0  0  0  0
   -5.6915   -1.5710   -0.3023 H   0  0  0  0  0
   -5.6674    0.1434    0.0893 H   0  0  0  0  0
   -1.2390    0.8507    5.4568 H   0  0  0  0  0
   -1.8112    2.5139    5.2766 H   0  0  0  0  0
   -2.9657    1.2131    5.5130 H   0  0  0  0  0
    3.5228   -0.7317    2.3478 H   0  0  0  0  0
    2.1263   -1.5693    2.8995 H   0  0  0  0  0
    2.8323   -0.3307    3.9242 H   0  0  0  0  0
   -6.1280   -2.1107    2.0197 H   0  0  0  0  0
   -6.0840   -0.4150    2.5304 H   0  0  0  0  0
   -5.0497   -1.6191    3.3205 H   0  0  0  0  0
   -3.2928    0.3049   -2.8623 H   0  0  0  0  0
   -3.0872   -1.0403   -1.0092 H   0  0  0  0  0
    6.2077    1.9906   -3.3173 H   0  0  0  0  0
    6.5710    3.0589   -1.9509 H   0  0  0  0  0
    6.8181    1.2844   -1.8033 H   0  0  0  0  0
   -7.5217    1.0776   -2.7269 H   0  0  0  0  0
   -6.8478   -0.5394   -2.6877 H   0  0  0  0  0
   -6.8438    0.4515   -1.2096 H   0  0  0  0  0
   -4.2853    2.9454   -2.5337 H   0  0  0  0  0
   -5.2567    2.5417   -1.1016 H   0  0  0  0  0
   -6.0291    3.1104   -2.5984 H   0  0  0  0  0
    4.0173    4.0857    2.9747 H   0  0  0  0  0
    3.2229    4.4915    1.4431 H   0  0  0  0  0
    4.9199    4.0663    1.4564 H   0  0  0  0  0
    4.9496    0.5628    1.9477 H   0  0  0  0  0
    5.7695    2.0870    2.0644 H   0  0  0  0  0
    4.7891    1.5413    3.4193 H   0  0  0  0  0
  1  7  1  0  0  0
  1 18  1  0  0  0
  2  7  1  0  0  0
  2 38  1  0  0  0
  3  8  1  0  0  0
  3 39  1  0  0  0
  4  9  1  0  0  0
  4 40  1  0  0  0
  5 18  2  0  0  0
  6 19  1  0  0  0
  6 41  1  0  0  0
  7 20  1  0  0  0
  7 21  1  0  0  0
  8 10  1  0  0  0
  8 23  1  0  0  0
  8 42  1  0  0  0
  9 11  1  0  0  0
  9 22  1  0  0  0
  9 43  1  0  0  0
 10 11  1  0  0  0
 10 12  1  0  0  0
 10 44  1  0  0  0
 11 16  1  0  0  0
 11 45  1  0  0  0
 12 15  1  0  0  0
 12 22  1  0  0  0
 12 28  1  0  0  0
 13 14  1  0  0  0
 13 17  1  0  0  0
 13 24  1  0  0  0
 13 29  1  0  0  0
 14 15  1  0  0  0
 14 23  1  0  0  0
 14 46  1  0  0  0
 15 25  1  0  0  0
 15 47  1  0  0  0
 16 27  1  0  0  0
 16 30  1  0  0  0
 16 48  1  0  0  0
 17 20  1  0  0  0
 17 26  1  0  0  0
 17 49  1  0  0  0
 18 33  1  0  0  0
 19 31  1  0  0  0
 19 34  1  0  0  0
 19 35  1  0  0  0
 20 36  1  0  0  0
 20 37  1  0  0  0
 21 24  1  0  0  0
 21 50  1  0  0  0
 21 51  1  0  0  0
 22 52  1  0  0  0
 22 53  1  0  0  0
 23 54  1  0  0  0
 23 55  1  0  0  0
 24 56  1  0  0  0
 24 57  1  0  0  0
 25 26  1  0  0  0
 25 58  1  0  0  0
 25 59  1  0  0  0
 26 60  1  0  0  0
 26 61  1  0  0  0
 27 32  1  0  0  0
 27 62  1  0  0  0
 27 63  1  0  0  0
 28 64  1  0  0  0
 28 65  1  0  0  0
 28 66  1  0  0  0
 29 67  1  0  0  0
 29 68  1  0  0  0
 29 69  1  0  0  0
 30 70  1  0  0  0
 30 71  1  0  0  0
 30 72  1  0  0  0
 31 32  2  0  0  0
 31 73  1  0  0  0
 32 74  1  0  0  0
 33 75  1  0  0  0
 33 76  1  0  0  0
 33 77  1  0  0  0
 34 78  1  0  0  0
 34 79  1  0  0  0
 34 80  1  0  0  0
 35 81  1  0  0  0
 35 82  1  0  0  0
 35 83  1  0  0  0
 36 84  1  0  0  0
 36 85  1  0  0  0
 36 86  1  0  0  0
 37 87  1  0  0  0
 37 88  1  0  0  0
 37 89  1  0  0  0
M  END
> <Tumorigenic>
none

> <Score>
35.098938

> <Active/Decoy>
active

> <InChI>
InChI=1S/C31H52O6/c1-18(10-9-13-27(3,4)35)25-23(34)17-30(8)20-11-12-24-28(5,6)31(36,37-19(2)32)15-14-29(24,7)21(20)16-22(33)26(25)30/h9,13,18,20-26,33-36H,10-12,14-17H2,1-8H3/b13-9+/t18-,20-,21+,22+,23-,24+,25-,26+,29+,30+,31-/m0/s1

> <Matching Features>
H:14924486185440016873||HBA:14924321692640012300|HBA:14924486112070016868

> <Mol. Index>
113

> <Pharmacophore Match>
Model -1

> <# Confs.>
25

> <Source Database>
Pharm-Screening-input-EANPDB_After_DataWarror.ldb

> <Pharmacophore-Fit Score>
35.1

> <formula>
C31H52O6

> <Mutagenic>
none

> <Reproductive Effective>
none

> <Irritant>
none

$$$$
sigmoidin A
XX    ILIB03122411353D

 59 61  0  0  1  0              1 V2000
   -0.7372   -0.1753   -2.2569 O   0  0  0  0  0
    4.6108    1.9473   -3.0373 O   0  0  0  0  0
    4.7599    2.0736   -0.2370 O   0  0  0  0  0
   -5.1801    0.9867   -3.8068 O   0  0  0  0  0
   -3.8308   -3.5761   -3.2947 O   0  0  0  0  0
   -3.4064    2.8144   -3.1055 O   0  0  0  0  0
   -2.0007   -0.4815   -2.6963 C   0  0  0  0  0
    3.4857    1.7898   -2.2666 C   0  0  0  0  0
    3.5731    1.8209   -0.8711 C   0  0  0  0  0
   -4.2255    0.0660   -3.4725 C   0  0  0  0  0
   -3.5664   -2.2372   -3.2176 C   0  0  0  0  0
    1.0991    1.3488   -2.1394 C   0  0  0  0  0
   -2.9635    0.4811   -3.0271 C   0  0  0  0  0
    2.2467    1.5714   -2.9330 C   0  0  0  0  0
    2.4392    1.6040   -0.0863 C   0  0  0  0  0
   -2.3068   -1.8412   -2.7754 C   0  0  0  0  0
   -4.5278   -1.2945   -3.5733 C   0  0  0  0  0
    1.2175    1.3671   -0.7327 C   0  0  0  0  0
   -0.2847    1.1116   -2.7005 C   0  0  2  0  0
   -2.6162    1.9140   -2.8355 C   0  0  0  0  0
    2.2381    1.5611   -4.4277 C   0  0  0  0  0
    2.4977    1.5944    1.4151 C   0  0  0  0  0
   -1.2585    2.1988   -2.2589 C   0  0  0  0  0
    0.9281    3.2801   -5.8113 C   0  0  0  0  0
    1.9950   -0.4885    2.8109 C   0  0  0  0  0
    1.9398    2.9159   -5.0146 C   0  0  0  0  0
    2.7676    0.2310    1.9757 C   0  0  0  0  0
    0.7974    4.7050   -6.2799 C   0  0  0  0  0
   -0.1467    2.3603   -6.3154 C   0  0  0  0  0
    2.4214   -1.8661    3.2441 C   0  0  0  0  0
    0.6882   -0.0319    3.3943 C   0  0  0  0  0
    5.3988    1.7818   -2.4958 H   0  0  0  0  0
    5.3612    2.5280   -0.8493 H   0  0  0  0  0
   -5.9846    0.5188   -4.0872 H   0  0  0  0  0
   -4.7431   -3.6937   -3.6143 H   0  0  0  0  0
   -1.5632   -2.5865   -2.5034 H   0  0  0  0  0
   -5.5039   -1.6155   -3.9182 H   0  0  0  0  0
    0.3327    1.1910   -0.1232 H   0  0  0  0  0
   -0.2149    1.0779   -3.7979 H   0  0  0  0  0
    3.1964    1.2100   -4.8042 H   0  0  0  0  0
    1.4892    0.8317   -4.7696 H   0  0  0  0  0
    3.2872    2.2785    1.7519 H   0  0  0  0  0
    1.5609    2.0043    1.8152 H   0  0  0  0  0
   -1.3711    2.2320   -1.1688 H   0  0  0  0  0
   -0.9211    3.1804   -2.6092 H   0  0  0  0  0
    2.6728    3.6847   -4.7323 H   0  0  0  0  0
    3.7020   -0.2143    1.6345 H   0  0  0  0  0
    1.5937    5.3476   -5.8891 H   0  0  0  0  0
   -0.1582    5.1251   -5.9490 H   0  0  0  0  0
    0.8394    4.7519   -7.3730 H   0  0  0  0  0
   -0.2070    2.4159   -7.4079 H   0  0  0  0  0
    0.0193    1.3121   -6.0597 H   0  0  0  0  0
   -1.1179    2.6564   -5.9040 H   0  0  0  0  0
    3.3740   -2.1680    2.7959 H   0  0  0  0  0
    1.6686   -2.6030    2.9501 H   0  0  0  0  0
    2.5399   -1.9031    4.3326 H   0  0  0  0  0
    0.7150   -0.1149    4.4866 H   0  0  0  0  0
    0.4444    1.0065    3.1624 H   0  0  0  0  0
   -0.1287   -0.6595    3.0242 H   0  0  0  0  0
  1  7  1  0  0  0
  1 19  1  0  0  0
  2  8  1  0  0  0
  2 32  1  0  0  0
  3  9  1  0  0  0
  3 33  1  0  0  0
  4 10  1  0  0  0
  4 34  1  0  0  0
  5 11  1  0  0  0
  5 35  1  0  0  0
  6 20  2  0  0  0
  7 13  2  0  0  0
  7 16  1  0  0  0
  8  9  2  0  0  0
  8 14  1  0  0  0
  9 15  1  0  0  0
 10 13  1  0  0  0
 10 17  2  0  0  0
 11 16  2  0  0  0
 11 17  1  0  0  0
 12 14  2  0  0  0
 12 18  1  0  0  0
 12 19  1  0  0  0
 13 20  1  0  0  0
 14 21  1  0  0  0
 15 18  2  0  0  0
 15 22  1  0  0  0
 16 36  1  0  0  0
 17 37  1  0  0  0
 18 38  1  0  0  0
 19 23  1  0  0  0
 19 39  1  0  0  0
 20 23  1  0  0  0
 21 26  1  0  0  0
 21 40  1  0  0  0
 21 41  1  0  0  0
 22 27  1  0  0  0
 22 42  1  0  0  0
 22 43  1  0  0  0
 23 44  1  0  0  0
 23 45  1  0  0  0
 24 26  2  0  0  0
 24 28  1  0  0  0
 24 29  1  0  0  0
 25 27  2  0  0  0
 25 30  1  0  0  0
 25 31  1  0  0  0
 26 46  1  0  0  0
 27 47  1  0  0  0
 28 48  1  0  0  0
 28 49  1  0  0  0
 28 50  1  0  0  0
 29 51  1  0  0  0
 29 52  1  0  0  0
 29 53  1  0  0  0
 30 54  1  0  0  0
 30 55  1  0  0  0
 30 56  1  0  0  0
 31 57  1  0  0  0
 31 58  1  0  0  0
 31 59  1  0  0  0
M  END
> <Tumorigenic>
none

> <Score>
35.090828

> <Active/Decoy>
active

> <InChI>
InChI=1S/C25H28O6/c1-13(2)5-7-15-9-18(17(8-6-14(3)4)25(30)24(15)29)21-12-20(28)23-19(27)10-16(26)11-22(23)31-21/h5-6,9-11,21,26-27,29-30H,7-8,12H2,1-4H3/t21-/m0/s1

> <Matching Features>
H:14924486185440016873||HBA:14924321692640012300|HBA:14924486112070016868

> <Mol. Index>
259

> <Pharmacophore Match>
Model -1

> <# Confs.>
25

> <Source Database>
Pharm-Screening-input-EANPDB_After_DataWarror.ldb

> <Pharmacophore-Fit Score>
35.09

> <formula>
C25H28O6

> <Mutagenic>
none

> <Reproductive Effective>
none

> <Irritant>
none

$$$$
2-(p-hydroxybenzyl)-7-methoxybenzofuran-6-ol
XX    ILIB03122411353D

 34 36  0  0  1  0              1 V2000
    0.4973    1.3086    0.0016 O   0  0  0  0  0
    2.3173    2.5535   -2.0756 O   0  0  0  0  0
    4.8404    1.6267   -2.1230 O   0  0  0  0  0
   -4.8029    0.7578   -3.0827 O   0  0  0  0  0
    1.8247    1.0469   -0.1802 C   0  0  0  0  0
    0.0521    0.5329    1.0240 C   0  0  0  0  0
    2.6699    1.6243   -1.1385 C   0  0  0  0  0
    3.9795    1.1248   -1.1799 C   0  0  0  0  0
   -3.9738    0.7626   -1.9961 C   0  0  0  0  0
    2.2299    0.0553    0.7117 C   0  0  0  0  0
   -2.2855    0.7087    0.2296 C   0  0  0  0  0
    1.0950   -0.2448    1.5101 C   0  0  0  0  0
    4.4289    0.1513   -0.2855 C   0  0  0  0  0
   -3.6762   -0.4524   -1.3871 C   0  0  0  0  0
   -3.4377    1.9532   -1.5099 C   0  0  0  0  0
    3.5657   -0.3836    0.6767 C   0  0  0  0  0
   -2.8310   -0.4790   -0.2780 C   0  0  0  0  0
   -2.5925    1.9233   -0.3994 C   0  0  0  0  0
    0.9511    2.9613   -2.0477 C   0  0  0  0  0
   -1.3641    0.6570    1.4163 C   0  0  0  0  0
    5.7013    1.1854   -2.0258 H   0  0  0  0  0
   -4.9056    1.6721   -3.3962 H   0  0  0  0  0
    1.0328   -0.9557    2.3222 H   0  0  0  0  0
    5.4541   -0.2049   -0.3278 H   0  0  0  0  0
   -4.0940   -1.3790   -1.7674 H   0  0  0  0  0
   -3.6671    2.9022   -1.9833 H   0  0  0  0  0
    3.9221   -1.1426    1.3662 H   0  0  0  0  0
   -2.5988   -1.4330    0.1887 H   0  0  0  0  0
   -2.1744    2.8550   -0.0272 H   0  0  0  0  0
    0.8116    3.7096   -2.8318 H   0  0  0  0  0
    0.2840    2.1200   -2.2641 H   0  0  0  0  0
    0.6983    3.4287   -1.0898 H   0  0  0  0  0
   -1.4992    1.5910    2.0074 H   0  0  0  0  0
   -1.6529   -0.1468    2.0790 H   0  0  0  0  0
  1  5  1  0  0  0
  1  6  1  0  0  0
  2  7  1  0  0  0
  2 19  1  0  0  0
  3  8  1  0  0  0
  3 21  1  0  0  0
  4  9  1  0  0  0
  4 22  1  0  0  0
  5  7  2  0  0  0
  5 10  1  0  0  0
  6 12  2  0  0  0
  6 20  1  0  0  0
  7  8  1  0  0  0
  8 13  2  0  0  0
  9 14  2  0  0  0
  9 15  1  0  0  0
 10 12  1  0  0  0
 10 16  2  0  0  0
 11 17  2  0  0  0
 11 18  1  0  0  0
 11 20  1  0  0  0
 12 23  1  0  0  0
 13 16  1  0  0  0
 13 24  1  0  0  0
 14 17  1  0  0  0
 14 25  1  0  0  0
 15 18  2  0  0  0
 15 26  1  0  0  0
 16 27  1  0  0  0
 17 28  1  0  0  0
 18 29  1  0  0  0
 19 30  1  0  0  0
 19 31  1  0  0  0
 19 32  1  0  0  0
 20 33  1  0  0  0
 20 34  1  0  0  0
M  END
> <Tumorigenic>
none

> <Score>
35.01557

> <Active/Decoy>
active

> <InChI>
InChI=1S/C16H14O4/c1-19-16-14(18)7-4-11-9-13(20-15(11)16)8-10-2-5-12(17)6-3-10/h2-7,9,17-18H,8H2,1H3

> <Matching Features>
H:14924486185440016873||HBA:14924321692640012300|HBA:14924486112070016868

> <Mol. Index>
547

> <Pharmacophore Match>
Model -1

> <# Confs.>
10

> <Source Database>
Pharm-Screening-input-EANPDB_After_DataWarror.ldb

> <Pharmacophore-Fit Score>
35.02

> <formula>
C16H14O4

> <Mutagenic>
none

> <Reproductive Effective>
none

> <Irritant>
none

$$$$
diphenylpentanoid (E)-1,5-bis(4-hydroxyphenyl)-pent-1-en-3-one
XX    ILIB03122411353D

 36 37  0  0  1  0              1 V2000
   -4.7695    1.0228   -3.7637 O   0  0  0  0  0
    0.6072    0.1537    4.0603 O   0  0  0  0  0
    3.4643    1.3958   -1.9809 O   0  0  0  0  0
   -3.4429    1.0295   -3.4341 C   0  0  0  0  0
    1.5179   -0.0458    3.0614 C   0  0  0  0  0
   -0.7132    1.0918   -2.8019 C   0  0  0  0  0
    3.3745   -0.5167    1.0270 C   0  0  0  0  0
   -2.6089    1.9398   -4.0731 C   0  0  0  0  0
   -2.9355    0.1476   -2.4858 C   0  0  0  0  0
    1.8624   -1.3537    2.7331 C   0  0  0  0  0
    2.0860    1.0313    2.3840 C   0  0  0  0  0
   -1.2496    1.9699   -3.7571 C   0  0  0  0  0
   -1.5749    0.1789   -2.1720 C   0  0  0  0  0
    2.7877   -1.5876    1.7149 C   0  0  0  0  0
    3.0108    0.7941    1.3676 C   0  0  0  0  0
    2.9037    0.2939   -1.8551 C   0  0  0  0  0
    0.7228    1.1601   -2.5131 C   0  0  0  0  0
    4.3531   -0.7741   -0.0783 C   0  0  0  0  0
    1.4684    0.1165   -2.1213 C   0  0  0  0  0
    3.6850   -0.9164   -1.4352 C   0  0  0  0  0
   -5.2167    0.3398   -3.2353 H   0  0  0  0  0
    0.4662    1.1106    4.1636 H   0  0  0  0  0
   -3.0043    2.6302   -4.8151 H   0  0  0  0  0
   -3.5842   -0.5668   -1.9852 H   0  0  0  0  0
    1.4191   -2.1914    3.2607 H   0  0  0  0  0
    1.8177    2.0521    2.6371 H   0  0  0  0  0
   -0.6133    2.6898   -4.2678 H   0  0  0  0  0
   -1.2035   -0.5243   -1.4298 H   0  0  0  0  0
    3.0479   -2.6121    1.4615 H   0  0  0  0  0
    3.4477    1.6385    0.8407 H   0  0  0  0  0
    1.1782    2.1399   -2.6339 H   0  0  0  0  0
    5.0981    0.0417   -0.1023 H   0  0  0  0  0
    4.9226   -1.6815    0.1628 H   0  0  0  0  0
    1.0530   -0.8774   -1.9874 H   0  0  0  0  0
    2.9904   -1.7624   -1.4062 H   0  0  0  0  0
    4.4516   -1.1344   -2.2058 H   0  0  0  0  0
  1  4  1  0  0  0
  1 21  1  0  0  0
  2  5  1  0  0  0
  2 22  1  0  0  0
  3 16  2  0  0  0
  4  8  2  0  0  0
  4  9  1  0  0  0
  5 10  2  0  0  0
  5 11  1  0  0  0
  6 12  2  0  0  0
  6 13  1  0  0  0
  6 17  1  0  0  0
  7 14  2  0  0  0
  7 15  1  0  0  0
  7 18  1  0  0  0
  8 12  1  0  0  0
  8 23  1  0  0  0
  9 13  2  0  0  0
  9 24  1  0  0  0
 10 14  1  0  0  0
 10 25  1  0  0  0
 11 15  2  0  0  0
 11 26  1  0  0  0
 12 27  1  0  0  0
 13 28  1  0  0  0
 14 29  1  0  0  0
 15 30  1  0  0  0
 16 19  1  0  0  0
 16 20  1  0  0  0
 17 19  2  0  0  0
 17 31  1  0  0  0
 18 20  1  0  0  0
 18 32  1  0  0  0
 18 33  1  0  0  0
 19 34  1  0  0  0
 20 35  1  0  0  0
 20 36  1  0  0  0
M  END
> <Tumorigenic>
none

> <Score>
35.006832

> <Active/Decoy>
active

> <InChI>
InChI=1S/C17H16O3/c18-15-7-1-13(2-8-15)5-11-17(20)12-6-14-3-9-16(19)10-4-14/h1-5,7-11,18-19H,6,12H2/b11-5+

> <Matching Features>
H:14924486185440016873||HBA:14924321692640012300|HBA:14924486112070016868

> <Mol. Index>
39

> <Pharmacophore Match>
Model -1

> <# Confs.>
25

> <Source Database>
Pharm-Screening-input-EANPDB_After_DataWarror.ldb

> <Pharmacophore-Fit Score>
35.01

> <formula>
C17H16O3

> <Mutagenic>
none

> <Reproductive Effective>
none

> <Irritant>
none

$$$$
neo-clerodan-3,13-dien-16,15:18,19-diolide
XX    ILIB03122411353D

 54 57  0  0  1  0              1 V2000
   -3.1078    1.1427   -4.3102 O   0  0  0  0  0
   -5.2984    0.8270   -3.4293 O   0  0  0  0  0
   -0.9048    0.7598   -3.7810 O   0  0  0  0  0
    5.3028    1.9341   -2.7710 O   0  0  0  0  0
    3.2057    1.0061   -3.0215 O   0  0  0  0  0
   -4.2263    1.7404   -3.6414 C   0  0  1  0  0
    0.1758    0.9669    0.6155 C   0  0  2  0  0
    1.3982    1.8811    0.1588 C   0  0  2  0  0
    2.4120    1.1635   -0.7840 C   0  0  1  0  0
    0.6287   -0.4772    1.0601 C   0  0  1  0  0
   -2.0114    1.1839   -3.4973 C   0  0  0  0  0
    4.1912    1.6729   -2.3544 C   0  0  0  0  0
    1.9866    1.0316   -2.2483 C   0  0  0  0  0
   -5.8162    0.2860   -4.6392 C   0  0  0  0  0
   -3.6698    2.1449   -2.3346 C   0  0  0  0  0
    3.6252    2.0046   -1.0367 C   0  0  0  0  0
   -0.8105    0.7942   -0.5433 C   0  0  0  0  0
    2.1795    2.5260    1.3443 C   0  0  0  0  0
    2.8390   -0.2016   -0.2027 C   0  0  0  0  0
    1.6488   -1.1072    0.0970 C   0  0  0  0  0
   -0.6344    1.6523    1.7384 C   0  0  0  0  0
    1.1279   -0.6215    2.5049 C   0  0  0  0  0
   -2.3914    1.8236   -2.2211 C   0  0  0  0  0
    4.0443    3.0423   -0.3119 C   0  0  0  0  0
   -1.4301    2.0735   -1.0872 C   0  0  0  0  0
    3.2920    3.4870    0.9004 C   0  0  0  0  0
   -4.5668    2.6154   -4.2067 H   0  0  0  0  0
    0.9799    2.7373   -0.3895 H   0  0  0  0  0
   -0.2635   -1.1197    1.0216 H   0  0  0  0  0
    1.3836    1.8763   -2.6020 H   0  0  0  0  0
    1.4494    0.1076   -2.4705 H   0  0  0  0  0
   -6.2607    1.0693   -5.2581 H   0  0  0  0  0
   -6.5951   -0.4357   -4.3812 H   0  0  0  0  0
   -5.0309   -0.2335   -5.1955 H   0  0  0  0  0
   -4.2413    2.6466   -1.5665 H   0  0  0  0  0
   -1.6185    0.1148   -0.2358 H   0  0  0  0  0
   -0.2932    0.2835   -1.3835 H   0  0  0  0  0
    1.5061    3.0956    1.9915 H   0  0  0  0  0
    2.6363    1.7544    1.9662 H   0  0  0  0  0
    3.5066   -0.7301   -0.8973 H   0  0  0  0  0
    3.4244   -0.0585    0.7132 H   0  0  0  0  0
    2.0190   -2.0541    0.5085 H   0  0  0  0  0
    1.1480   -1.3800   -0.8380 H   0  0  0  0  0
   -0.0640    1.7645    2.6643 H   0  0  0  0  0
   -0.9636    2.6544    1.4428 H   0  0  0  0  0
   -1.5286    1.0692    1.9852 H   0  0  0  0  0
    2.0330   -0.0495    2.7047 H   0  0  0  0  0
    1.3620   -1.6713    2.7201 H   0  0  0  0  0
    0.3618   -0.3272    3.2281 H   0  0  0  0  0
    4.8931    3.6387   -0.6278 H   0  0  0  0  0
   -1.9580    2.6043   -0.2990 H   0  0  0  0  0
   -0.6181    2.7315   -1.4303 H   0  0  0  0  0
    2.8521    4.4685    0.6839 H   0  0  0  0  0
    3.9924    3.6325    1.7323 H   0  0  0  0  0
  1  6  1  0  0  0
  1 11  1  0  0  0
  2  6  1  0  0  0
  2 14  1  0  0  0
  3 11  2  0  0  0
  4 12  2  0  0  0
  5 12  1  0  0  0
  5 13  1  0  0  0
  6 15  1  0  0  0
  6 27  1  0  0  0
  7  8  1  0  0  0
  7 10  1  0  0  0
  7 17  1  0  0  0
  7 21  1  0  0  0
  8  9  1  0  0  0
  8 18  1  0  0  0
  8 28  1  0  0  0
  9 13  1  0  0  0
  9 16  1  0  0  0
  9 19  1  0  0  0
 10 20  1  0  0  0
 10 22  1  0  0  0
 10 29  1  0  0  0
 11 23  1  0  0  0
 12 16  1  0  0  0
 13 30  1  0  0  0
 13 31  1  0  0  0
 14 32  1  0  0  0
 14 33  1  0  0  0
 14 34  1  0  0  0
 15 23  2  0  0  0
 15 35  1  0  0  0
 16 24  2  0  0  0
 17 25  1  0  0  0
 17 36  1  0  0  0
 17 37  1  0  0  0
 18 26  1  0  0  0
 18 38  1  0  0  0
 18 39  1  0  0  0
 19 20  1  0  0  0
 19 40  1  0  0  0
 19 41  1  0  0  0
 20 42  1  0  0  0
 20 43  1  0  0  0
 21 44  1  0  0  0
 21 45  1  0  0  0
 21 46  1  0  0  0
 22 47  1  0  0  0
 22 48  1  0  0  0
 22 49  1  0  0  0
 23 25  1  0  0  0
 24 26  1  0  0  0
 24 50  1  0  0  0
 25 51  1  0  0  0
 25 52  1  0  0  0
 26 53  1  0  0  0
 26 54  1  0  0  0
M  END
> <Tumorigenic>
none

> <Score>
35.003235

> <Active/Decoy>
active

> <InChI>
InChI=1S/C21H28O5/c1-13-7-10-21-12-25-19(23)15(21)5-4-6-16(21)20(13,2)9-8-14-11-17(24-3)26-18(14)22/h5,11,13,16-17H,4,6-10,12H2,1-3H3/t13-,16-,17-,20+,21+/m1/s1

> <Matching Features>
H:14924486185440016873||HBA:14924321692640012300|HBA:14924486112070016868

> <Mol. Index>
447

> <Pharmacophore Match>
Model -1

> <# Confs.>
25

> <Source Database>
Pharm-Screening-input-EANPDB_After_DataWarror.ldb

> <Pharmacophore-Fit Score>
35.0

> <formula>
C21H28O5

> <Mutagenic>
none

> <Reproductive Effective>
none

> <Irritant>
none

$$$$
methyl uguenenoate
XX    ILIB03122411353D

 70 75  0  0  1  0              1 V2000
    3.9498   -1.2122    3.2850 O   0  0  0  0  0
    0.5563    1.4651   -1.4322 O   0  0  0  0  0
    3.1658    0.6632   -0.3739 O   0  0  0  0  0
   -4.4632   -2.1743   -3.7864 O   0  0  0  0  0
    3.8430    1.5797   -2.3343 O   0  0  0  0  0
   -5.5122    1.1131   -4.2480 O   0  0  0  0  0
    0.6232   -1.4816   -4.0834 O   0  0  0  0  0
   -7.2288   -0.2093   -3.4555 O   0  0  0  0  0
   -4.4020   -1.6508    0.0036 O   0  0  0  0  0
    3.7910   -0.8801    1.9788 C   0  0  0  0  0
    2.8399   -0.7764    3.9341 C   0  0  0  0  0
    2.5906   -0.2303    1.7721 C   0  0  0  0  0
    1.9775   -0.1660    3.0573 C   0  0  0  0  0
    2.0570    0.2844    0.4859 C   0  0  2  0  0
    0.5589    0.0235   -1.5269 C   0  0  1  0  0
    1.6033    0.8837   -2.2174 C   0  0  2  0  0
   -3.9475   -1.1489   -2.9320 C   0  0  2  0  0
   -2.9893   -1.9027   -1.9528 C   0  0  2  0  0
    1.0703   -0.6834   -0.2684 C   0  0  2  0  0
   -0.6946   -0.5281   -2.3012 C   0  0  2  0  0
   -1.8292   -1.0243   -1.3041 C   0  0  2  0  0
   -2.4333   -3.0232   -2.8795 C   0  0  1  0  0
    2.9546    1.0837   -1.6532 C   0  0  0  0  0
   -5.9584    0.2840   -3.4646 C   0  0  0  0  0
   -0.2777   -1.6529   -3.2566 C   0  0  0  0  0
   -3.3687   -3.0470   -4.1187 C   0  0  0  0  0
   -3.8437   -2.5947   -0.8995 C   0  0  0  0  0
   -8.0947    0.3096   -4.4693 C   0  0  0  0  0
   -5.1370   -0.3713   -2.3614 C   0  0  0  0  0
   -0.1322   -0.9791    0.6320 C   0  0  0  0  0
   -1.2239   -1.7592   -0.0751 C   0  0  0  0  0
   -0.9307   -3.0111   -3.1440 C   0  0  0  0  0
    1.8183   -1.9783   -0.6563 C   0  0  0  0  0
   -1.2523    0.5933   -3.2345 C   0  0  0  0  0
   -2.7576   -2.5648   -5.4391 C   0  0  0  0  0
   -3.9705   -4.4395   -4.3388 C   0  0  0  0  0
   -3.6691   -1.2361    0.4893 H   0  0  0  0  0
    4.6011   -1.1678    1.3254 H   0  0  0  0  0
    2.8146   -0.9672    4.9982 H   0  0  0  0  0
    1.0213    0.2717    3.3059 H   0  0  0  0  0
    1.5402    1.2223    0.7337 H   0  0  0  0  0
    1.5530    0.9793   -3.2946 H   0  0  0  0  0
   -3.4170   -0.4645   -3.5694 H   0  0  0  0  0
   -2.2973   -0.1230   -0.8884 H   0  0  0  0  0
   -2.5822   -3.9857   -2.3670 H   0  0  0  0  0
   -4.6725   -3.1290   -1.3763 H   0  0  0  0  0
   -3.2734   -3.3382   -0.3301 H   0  0  0  0  0
   -7.7111    0.0522   -5.4611 H   0  0  0  0  0
   -9.0782   -0.1517   -4.3451 H   0  0  0  0  0
   -8.1985    1.3918   -4.3627 H   0  0  0  0  0
   -4.7790    0.4274   -1.7146 H   0  0  0  0  0
   -5.7888   -1.0362   -1.7983 H   0  0  0  0  0
    0.1774   -1.5529    1.5143 H   0  0  0  0  0
   -0.5631   -0.0396    1.0037 H   0  0  0  0  0
   -1.9945   -1.9210    0.6845 H   0  0  0  0  0
   -0.8631   -2.7549   -0.3441 H   0  0  0  0  0
   -0.4229   -3.5389   -2.3309 H   0  0  0  0  0
   -0.6882   -3.5881   -4.0367 H   0  0  0  0  0
    1.2083   -2.6522   -1.2542 H   0  0  0  0  0
    2.7135   -1.7676   -1.2506 H   0  0  0  0  0
    2.1275   -2.5456    0.2268 H   0  0  0  0  0
   -0.4793    1.2399   -3.6559 H   0  0  0  0  0
   -1.7381    0.1962   -4.1262 H   0  0  0  0  0
   -1.9452    1.2516   -2.7010 H   0  0  0  0  0
   -2.3132   -1.5720   -5.3466 H   0  0  0  0  0
   -3.5348   -2.4731   -6.2077 H   0  0  0  0  0
   -1.9949   -3.2520   -5.8160 H   0  0  0  0  0
   -4.6977   -4.4272   -5.1591 H   0  0  0  0  0
   -4.5189   -4.7752   -3.4521 H   0  0  0  0  0
   -3.1965   -5.1782   -4.5706 H   0  0  0  0  0
  1 10  1  0  0  0
  1 11  1  0  0  0
  2 15  1  0  0  0
  2 16  1  0  0  0
  3 14  1  0  0  0
  3 23  1  0  0  0
  4 17  1  0  0  0
  4 26  1  0  0  0
  5 23  2  0  0  0
  6 24  2  0  0  0
  7 25  2  0  0  0
  8 24  1  0  0  0
  8 28  1  0  0  0
  9 27  1  0  0  0
  9 37  1  0  0  0
 10 12  2  0  0  0
 10 38  1  0  0  0
 11 13  2  0  0  0
 11 39  1  0  0  0
 12 13  1  0  0  0
 12 14  1  0  0  0
 13 40  1  0  0  0
 14 19  1  0  0  0
 14 41  1  0  0  0
 15 16  1  0  0  0
 15 19  1  0  0  0
 15 20  1  0  0  0
 16 23  1  0  0  0
 16 42  1  0  0  0
 17 18  1  0  0  0
 17 29  1  0  0  0
 17 43  1  0  0  0
 18 21  1  0  0  0
 18 22  1  0  0  0
 18 27  1  0  0  0
 19 30  1  0  0  0
 19 33  1  0  0  0
 20 21  1  0  0  0
 20 25  1  0  0  0
 20 34  1  0  0  0
 21 31  1  0  0  0
 21 44  1  0  0  0
 22 26  1  0  0  0
 22 32  1  0  0  0
 22 45  1  0  0  0
 24 29  1  0  0  0
 25 32  1  0  0  0
 26 35  1  0  0  0
 26 36  1  0  0  0
 27 46  1  0  0  0
 27 47  1  0  0  0
 28 48  1  0  0  0
 28 49  1  0  0  0
 28 50  1  0  0  0
 29 51  1  0  0  0
 29 52  1  0  0  0
 30 31  1  0  0  0
 30 53  1  0  0  0
 30 54  1  0  0  0
 31 55  1  0  0  0
 31 56  1  0  0  0
 32 57  1  0  0  0
 32 58  1  0  0  0
 33 59  1  0  0  0
 33 60  1  0  0  0
 33 61  1  0  0  0
 34 62  1  0  0  0
 34 63  1  0  0  0
 34 64  1  0  0  0
 35 65  1  0  0  0
 35 66  1  0  0  0
 35 67  1  0  0  0
 36 68  1  0  0  0
 36 69  1  0  0  0
 36 70  1  0  0  0
M  END
> <Tumorigenic>
none

> <Score>
34.99539

> <Active/Decoy>
active

> <InChI>
InChI=1S/C27H34O9/c1-23(2)16-10-17(29)25(4)15(26(16,13-28)18(35-23)11-19(30)32-5)6-8-24(3)20(14-7-9-33-12-14)34-22(31)21-27(24,25)36-21/h7,9,12,15-16,18,20-21,28H,6,8,10-11,13H2,1-5H3/t15-,16+,18-,20+,21-,24+,25+,26+,27-/m0/s1

> <Matching Features>
H:14924486185440016873||HBA:14924321692640012300|HBA:14924486112070016868

> <Mol. Index>
434

> <Pharmacophore Match>
Model -1

> <# Confs.>
25

> <Source Database>
Pharm-Screening-input-EANPDB_After_DataWarror.ldb

> <Pharmacophore-Fit Score>
35.0

> <formula>
C27H34O9

> <Mutagenic>
none

> <Reproductive Effective>
none

> <Irritant>
none

$$$$
loganic acid
XX    ILIB03122411353D

 50 52  0  0  1  0              1 V2000
   -0.9322    3.1154    0.1314 O   0  0  0  0  0
   -1.7640    2.5725   -2.0068 O   0  0  0  0  0
    0.5000    3.6078   -1.6724 O   0  0  0  0  0
   -3.1324    1.8052    1.2933 O   0  0  0  0  0
   -5.4712    1.7288   -0.4428 O   0  0  0  0  0
   -4.7678    0.7616   -3.0810 O   0  0  0  0  0
    2.9877    1.3297    2.8975 O   0  0  0  0  0
    4.1330    3.1303   -3.6467 O   0  0  0  0  0
    4.7706    1.6030   -2.0847 O   0  0  0  0  0
   -0.9600    1.9810   -4.5908 O   0  0  0  0  0
   -1.7448    2.2187   -0.6227 C   0  0  2  0  0
    0.4061    3.1511   -0.3134 C   0  0  2  0  0
   -3.1609    2.2914   -0.0485 C   0  0  1  0  0
   -4.1350    1.4471   -0.8660 C   0  0  2  0  0
   -4.0092    1.7292   -2.3636 C   0  0  1  0  0
   -2.5383    1.6708   -2.8006 C   0  0  1  0  0
    2.3930    1.9800    1.7897 C   0  0  2  0  0
    0.9912    1.7413   -0.1350 C   0  0  2  0  0
    1.0967    1.2995    1.3298 C   0  0  1  0  0
    2.4408    1.6676   -0.6524 C   0  0  2  0  0
    3.9065    2.4882   -2.6337 C   0  0  0  0  0
   -2.3394    2.0736   -4.2508 C   0  0  0  0  0
    1.7185    3.4027   -2.2640 C   0  0  0  0  0
    3.3203    1.9852    0.5707 C   0  0  0  0  0
    2.6694    2.5601   -1.8364 C   0  0  0  0  0
    1.1296   -0.2251    1.4701 C   0  0  0  0  0
   -4.0440    1.8349    1.6328 H   0  0  0  0  0
   -5.6445    2.6708   -0.6094 H   0  0  0  0  0
   -5.6832    0.8124   -2.7583 H   0  0  0  0  0
    3.8304    1.7777    3.0830 H   0  0  0  0  0
    5.6031    1.5346   -2.5980 H   0  0  0  0  0
   -0.4730    2.5707   -3.9922 H   0  0  0  0  0
   -1.3313    1.2090   -0.4958 H   0  0  0  0  0
    0.9600    3.8791    0.3168 H   0  0  0  0  0
   -3.4979    3.3341   -0.0038 H   0  0  0  0  0
   -3.9786    0.3799   -0.6655 H   0  0  0  0  0
   -4.4315    2.7162   -2.5904 H   0  0  0  0  0
   -2.1569    0.6481   -2.6772 H   0  0  0  0  0
    2.1787    3.0125    2.0899 H   0  0  0  0  0
    0.3552    1.0444   -0.7095 H   0  0  0  0  0
    0.2510    1.6627    1.9251 H   0  0  0  0  0
    2.6339    0.6298   -0.9562 H   0  0  0  0  0
   -2.6601    3.1043   -4.4339 H   0  0  0  0  0
   -2.8898    1.4073   -4.9221 H   0  0  0  0  0
    1.7882    4.0066   -3.1591 H   0  0  0  0  0
    3.8133    2.9607    0.4861 H   0  0  0  0  0
    4.1174    1.2394    0.6705 H   0  0  0  0  0
    1.9940   -0.6677    0.9663 H   0  0  0  0  0
    1.1706   -0.5159    2.5246 H   0  0  0  0  0
    0.2241   -0.6678    1.0427 H   0  0  0  0  0
  1 11  1  0  0  0
  1 12  1  0  0  0
  2 11  1  0  0  0
  2 16  1  0  0  0
  3 12  1  0  0  0
  3 23  1  0  0  0
  4 13  1  0  0  0
  4 27  1  0  0  0
  5 14  1  0  0  0
  5 28  1  0  0  0
  6 15  1  0  0  0
  6 29  1  0  0  0
  7 17  1  0  0  0
  7 30  1  0  0  0
  8 21  2  0  0  0
  9 21  1  0  0  0
  9 31  1  0  0  0
 10 22  1  0  0  0
 10 32  1  0  0  0
 11 13  1  0  0  0
 11 33  1  0  0  0
 12 18  1  0  0  0
 12 34  1  0  0  0
 13 14  1  0  0  0
 13 35  1  0  0  0
 14 15  1  0  0  0
 14 36  1  0  0  0
 15 16  1  0  0  0
 15 37  1  0  0  0
 16 22  1  0  0  0
 16 38  1  0  0  0
 17 19  1  0  0  0
 17 24  1  0  0  0
 17 39  1  0  0  0
 18 19  1  0  0  0
 18 20  1  0  0  0
 18 40  1  0  0  0
 19 26  1  0  0  0
 19 41  1  0  0  0
 20 24  1  0  0  0
 20 25  1  0  0  0
 20 42  1  0  0  0
 21 25  1  0  0  0
 22 43  1  0  0  0
 22 44  1  0  0  0
 23 25  2  0  0  0
 23 45  1  0  0  0
 24 46  1  0  0  0
 24 47  1  0  0  0
 26 48  1  0  0  0
 26 49  1  0  0  0
 26 50  1  0  0  0
M  END
> <Tumorigenic>
none

> <Score>
35.004906

> <Active/Decoy>
active

> <InChI>
InChI=1S/C16H24O10/c1-5-8(18)2-6-7(14(22)23)4-24-15(10(5)6)26-16-13(21)12(20)11(19)9(3-17)25-16/h4-6,8-13,15-21H,2-3H2,1H3,(H,22,23)/t5-,6+,8-,9+,10+,11+,12-,13+,15-,16-/m0/s1

> <Matching Features>
H:14924486185440016873||HBA:14924321692640012300|HBA:14924486112070016868

> <Mol. Index>
346

> <Pharmacophore Match>
Model -1

> <# Confs.>
25

> <Source Database>
Pharm-Screening-input-EANPDB_After_DataWarror.ldb

> <Pharmacophore-Fit Score>
35.0

> <formula>
C16H24O10

> <Mutagenic>
none

> <Reproductive Effective>
none

> <Irritant>
none

$$$$
5'-methoxy-3'-(3-methylbut-2-enyl)biochanin A
XX    ILIB03122411353D

 50 52  0  0  1  0              1 V2000
   -3.7207    1.9589    0.3931 O   0  0  0  0  0
   -2.6762    1.0623   -3.4383 O   0  0  0  0  0
    3.6038    1.5203   -2.2593 O   0  0  0  0  0
    2.0794    3.2860   -3.6140 O   0  0  0  0  0
   -5.2146    1.1039   -4.1243 O   0  0  0  0  0
   -8.3570    1.8906   -0.6474 O   0  0  0  0  0
   -4.6938    1.7940   -0.5584 C   0  0  0  0  0
   -2.4125    1.8948   -0.0091 C   0  0  0  0  0
   -2.9851    1.3823   -2.2982 C   0  0  0  0  0
    2.2626    1.5789   -2.0065 C   0  0  0  0  0
    1.4482    2.4810   -2.7090 C   0  0  0  0  0
   -5.4628    1.3694   -2.8050 C   0  0  0  0  0
   -7.0522    1.7705   -1.0394 C   0  0  0  0  0
   -4.4053    1.5163   -1.8964 C   0  0  0  0  0
   -1.9553    1.6332   -1.2433 C   0  0  0  0  0
   -0.5099    1.6157   -1.5227 C   0  0  0  0  0
    1.7189    0.6499   -1.1100 C   0  0  0  0  0
   -6.0157    1.9195   -0.1239 C   0  0  0  0  0
   -6.7880    1.4979   -2.3784 C   0  0  0  0  0
    0.0703    2.4991   -2.4524 C   0  0  0  0  0
    0.3261    0.7022   -0.8613 C   0  0  0  0  0
    4.0789    2.4320   -3.2470 C   0  0  0  0  0
    1.2364    4.2003   -4.3112 C   0  0  0  0  0
    2.5630   -0.3275   -0.3565 C   0  0  0  0  0
    2.8204   -0.3010    2.1841 C   0  0  0  0  0
    3.0588    0.1995    0.9473 C   0  0  0  0  0
    3.3682    0.3972    3.3993 C   0  0  0  0  0
    2.0428   -1.5512    2.4836 C   0  0  0  0  0
   -6.0601    1.0381   -4.5987 H   0  0  0  0  0
   -8.3766    2.0745    0.3083 H   0  0  0  0  0
   -1.7795    2.1024    0.8450 H   0  0  0  0  0
   -6.2268    2.1335    0.9196 H   0  0  0  0  0
   -7.6093    1.3870   -3.0821 H   0  0  0  0  0
   -0.5698    3.2024   -2.9798 H   0  0  0  0  0
   -0.0928    0.0022   -0.1408 H   0  0  0  0  0
    5.1606    2.2904   -3.3380 H   0  0  0  0  0
    3.6310    2.2243   -4.2243 H   0  0  0  0  0
    3.9023    3.4700   -2.9446 H   0  0  0  0  0
    1.8661    4.7825   -4.9899 H   0  0  0  0  0
    0.4933    3.6690   -4.9155 H   0  0  0  0  0
    0.7550    4.8988   -3.6184 H   0  0  0  0  0
    1.9814   -1.2611   -0.2169 H   0  0  0  0  0
    3.4188   -0.6145   -0.9751 H   0  0  0  0  0
    3.6407    1.1068    0.8738 H   0  0  0  0  0
    2.5536    0.6734    4.0768 H   0  0  0  0  0
    3.9124    1.3131    3.1457 H   0  0  0  0  0
    4.0586   -0.2610    3.9356 H   0  0  0  0  0
    2.6437   -2.2279    3.0987 H   0  0  0  0  0
    1.1302   -1.3043    3.0366 H   0  0  0  0  0
    1.7524   -2.1087    1.5908 H   0  0  0  0  0
  1  7  1  0  0  0
  1  8  1  0  0  0
  2  9  2  0  0  0
  3 10  1  0  0  0
  3 22  1  0  0  0
  4 11  1  0  0  0
  4 23  1  0  0  0
  5 12  1  0  0  0
  5 29  1  0  0  0
  6 13  1  0  0  0
  6 30  1  0  0  0
  7 14  2  0  0  0
  7 18  1  0  0  0
  8 15  2  0  0  0
  8 31  1  0  0  0
  9 14  1  0  0  0
  9 15  1  0  0  0
 10 11  2  0  0  0
 10 17  1  0  0  0
 11 20  1  0  0  0
 12 14  1  0  0  0
 12 19  2  0  0  0
 13 18  2  0  0  0
 13 19  1  0  0  0
 15 16  1  0  0  0
 16 20  2  0  0  0
 16 21  1  0  0  0
 17 21  2  0  0  0
 17 24  1  0  0  0
 18 32  1  0  0  0
 19 33  1  0  0  0
 20 34  1  0  0  0
 21 35  1  0  0  0
 22 36  1  0  0  0
 22 37  1  0  0  0
 22 38  1  0  0  0
 23 39  1  0  0  0
 23 40  1  0  0  0
 23 41  1  0  0  0
 24 26  1  0  0  0
 24 42  1  0  0  0
 24 43  1  0  0  0
 25 26  2  0  0  0
 25 27  1  0  0  0
 25 28  1  0  0  0
 26 44  1  0  0  0
 27 45  1  0  0  0
 27 46  1  0  0  0
 27 47  1  0  0  0
 28 48  1  0  0  0
 28 49  1  0  0  0
 28 50  1  0  0  0
M  END
> <Tumorigenic>
none

> <Score>
34.968056

> <Active/Decoy>
active

> <InChI>
InChI=1S/C22H22O6/c1-12(2)5-6-13-7-14(8-19(26-3)22(13)27-4)16-11-28-18-10-15(23)9-17(24)20(18)21(16)25/h5,7-11,23-24H,6H2,1-4H3

> <Matching Features>
H:14924486185440016873||HBA:14924321692640012300|HBA:14924486112070016868

> <Mol. Index>
279

> <Pharmacophore Match>
Model -1

> <# Confs.>
25

> <Source Database>
Pharm-Screening-input-EANPDB_After_DataWarror.ldb

> <Pharmacophore-Fit Score>
34.97

> <formula>
C22H22O6

> <Mutagenic>
none

> <Reproductive Effective>
none

> <Irritant>
none

$$$$
aloin B
XX    ILIB03122411353D

 52 55  0  0  1  0              1 V2000
   -3.1694   -3.8321   -0.1867 O   0  0  0  0  0
    0.9543   -3.4728    2.7355 O   0  0  0  0  0
    0.7983   -1.0240   -2.0952 O   0  0  0  0  0
    1.4910    2.4446   -1.1163 O   0  0  0  0  0
    3.9157    1.6495   -2.4924 O   0  0  0  0  0
    3.4004   -0.2801   -4.5794 O   0  0  0  0  0
   -0.6170   -3.7434    0.5197 O   0  0  0  0  0
   -4.4340    0.9377   -3.4290 O   0  0  0  0  0
    0.3447   -3.1579   -3.8577 O   0  0  0  0  0
   -2.9931   -2.5270   -0.5566 C   0  0  0  0  0
    1.0511   -2.1886    2.2762 C   0  0  0  0  0
   -1.6371   -0.5223   -0.6156 C   0  0  0  0  0
    0.4331   -0.3449    0.8199 C   0  0  0  0  0
   -1.8045   -1.8554   -0.2428 C   0  0  0  0  0
    0.2834   -1.6837    1.2147 C   0  0  0  0  0
   -3.8785   -0.5282   -1.6029 C   0  0  0  0  0
   -4.0216   -1.8693   -1.2360 C   0  0  0  0  0
    1.9597   -1.3675    2.9442 C   0  0  0  0  0
   -2.6849    0.1365   -1.2969 C   0  0  0  0  0
    1.3454    0.4707    1.5098 C   0  0  0  0  0
    2.1042   -0.0373    2.5627 C   0  0  0  0  0
    0.5128    0.3044   -1.6376 C   0  0  2  0  0
    1.8028    1.0983   -1.4638 C   0  0  1  0  0
    2.6314    1.0834   -2.7513 C   0  0  2  0  0
    2.7933   -0.3328   -3.2903 C   0  0  1  0  0
    1.4420   -1.0490   -3.3733 C   0  0  1  0  0
   -0.3412    0.2153   -0.3637 C   0  0  1  0  0
   -0.7057   -2.5230    0.4959 C   0  0  0  0  0
   -4.9651    0.1752   -2.3537 C   0  0  0  0  0
    1.6061   -2.5091   -3.7733 C   0  0  0  0  0
   -4.0432   -4.1313   -0.4913 H   0  0  0  0  0
    0.2761   -3.9467    2.2274 H   0  0  0  0  0
    2.3327    2.9226   -1.0204 H   0  0  0  0  0
    4.3531    1.0981   -1.8211 H   0  0  0  0  0
    2.7945    0.1922   -5.1751 H   0  0  0  0  0
   -3.8164    0.3730   -3.9240 H   0  0  0  0  0
   -0.0422   -3.1702   -2.9654 H   0  0  0  0  0
   -4.9399   -2.3993   -1.4774 H   0  0  0  0  0
    2.5522   -1.7556    3.7682 H   0  0  0  0  0
   -2.5593    1.1745   -1.5992 H   0  0  0  0  0
    1.4739    1.5127    1.2269 H   0  0  0  0  0
    2.8070    0.6039    3.0836 H   0  0  0  0  0
   -0.1142    0.8013   -2.4121 H   0  0  0  0  0
    2.4024    0.6765   -0.6483 H   0  0  0  0  0
    2.1667    1.7367   -3.5077 H   0  0  0  0  0
    3.4770   -0.8884   -2.6371 H   0  0  0  0  0
    0.7849   -0.5633   -4.1068 H   0  0  0  0  0
   -0.6216    1.2484   -0.0598 H   0  0  0  0  0
   -5.5200    0.8505   -1.6935 H   0  0  0  0  0
   -5.6858   -0.5442   -2.7576 H   0  0  0  0  0
    2.0827   -2.5806   -4.7558 H   0  0  0  0  0
    2.2435   -3.0591   -3.0706 H   0  0  0  0  0
  1 10  1  0  0  0
  1 31  1  0  0  0
  2 11  1  0  0  0
  2 32  1  0  0  0
  3 22  1  0  0  0
  3 26  1  0  0  0
  4 23  1  0  0  0
  4 33  1  0  0  0
  5 24  1  0  0  0
  5 34  1  0  0  0
  6 25  1  0  0  0
  6 35  1  0  0  0
  7 28  2  0  0  0
  8 29  1  0  0  0
  8 36  1  0  0  0
  9 30  1  0  0  0
  9 37  1  0  0  0
 10 14  2  0  0  0
 10 17  1  0  0  0
 11 15  2  0  0  0
 11 18  1  0  0  0
 12 14  1  0  0  0
 12 19  2  0  0  0
 12 27  1  0  0  0
 13 15  1  0  0  0
 13 20  2  0  0  0
 13 27  1  0  0  0
 14 28  1  0  0  0
 15 28  1  0  0  0
 16 17  2  0  0  0
 16 19  1  0  0  0
 16 29  1  0  0  0
 17 38  1  0  0  0
 18 21  2  0  0  0
 18 39  1  0  0  0
 19 40  1  0  0  0
 20 21  1  0  0  0
 20 41  1  0  0  0
 21 42  1  0  0  0
 22 23  1  0  0  0
 22 27  1  0  0  0
 22 43  1  0  0  0
 23 24  1  0  0  0
 23 44  1  0  0  0
 24 25  1  0  0  0
 24 45  1  0  0  0
 25 26  1  0  0  0
 25 46  1  0  0  0
 26 30  1  0  0  0
 26 47  1  0  0  0
 27 48  1  0  0  0
 29 49  1  0  0  0
 29 50  1  0  0  0
 30 51  1  0  0  0
 30 52  1  0  0  0
M  END
> <Tumorigenic>
none

> <Score>
34.965668

> <Active/Decoy>
active

> <InChI>
InChI=1S/C21H22O9/c22-6-8-4-10-14(21-20(29)19(28)17(26)13(7-23)30-21)9-2-1-3-11(24)15(9)18(27)16(10)12(25)5-8/h1-5,13-14,17,19-26,28-29H,6-7H2/t13-,14-,17-,19+,20-,21+/m1/s1

> <Matching Features>
H:14924486185440016873||HBA:14924321692640012300|HBA:14924486112070016868

> <Mol. Index>
61

> <Pharmacophore Match>
Model -1

> <# Confs.>
10

> <Source Database>
Pharm-Screening-input-EANPDB_After_DataWarror.ldb

> <Pharmacophore-Fit Score>
34.97

> <formula>
C21H22O9

> <Mutagenic>
none

> <Reproductive Effective>
none

> <Irritant>
none

$$$$
3'-prenylbiochanin
XX    ILIB03122411353D

 50 52  0  0  1  0              1 V2000
   -3.7563    2.0785    0.3911 O   0  0  0  0  0
   -2.6960    1.4640   -3.4899 O   0  0  0  0  0
    3.5761    1.5155   -2.2561 O   0  0  0  0  0
   -5.1678    1.1014   -4.1023 O   0  0  0  0  0
    2.0086    3.4252   -3.5212 O   0  0  0  0  0
   -8.3625    1.6980   -0.5150 O   0  0  0  0  0
   -4.7264    1.8500   -0.5495 C   0  0  0  0  0
   -2.4472    1.9964   -0.0038 C   0  0  0  0  0
   -3.0154    1.5907   -2.3143 C   0  0  0  0  0
    2.2288    1.5614   -2.0425 C   0  0  0  0  0
   -5.4979    1.3593   -2.8013 C   0  0  0  0  0
    1.4328    2.5288   -2.6616 C   0  0  0  0  0
   -7.0797    1.6578   -0.9885 C   0  0  0  0  0
   -4.4423    1.5941   -1.8951 C   0  0  0  0  0
   -1.9914    1.7702   -1.2595 C   0  0  0  0  0
   -0.5341    1.7088   -1.5109 C   0  0  0  0  0
    1.6602    0.6769   -1.1148 C   0  0  0  0  0
   -6.0424    1.8858   -0.0931 C   0  0  0  0  0
   -6.8199    1.3939   -2.3340 C   0  0  0  0  0
    0.0577    2.5820   -2.4191 C   0  0  0  0  0
    0.2766    0.7537   -0.8652 C   0  0  0  0  0
    4.0970    2.4957   -3.1399 C   0  0  0  0  0
   -6.2690    0.8717   -4.9764 C   0  0  0  0  0
    2.4846   -0.3426   -0.3815 C   0  0  0  0  0
    2.7978   -0.2995    2.1552 C   0  0  0  0  0
    3.0214    0.1800    0.9167 C   0  0  0  0  0
    3.3916    0.3879    3.3560 C   0  0  0  0  0
    1.9846   -1.5214    2.4789 C   0  0  0  0  0
    1.3171    4.0143   -3.8686 H   0  0  0  0  0
   -8.9706    1.5180   -1.2517 H   0  0  0  0  0
   -1.8145    2.1382    0.8639 H   0  0  0  0  0
   -6.2551    2.0884    0.9531 H   0  0  0  0  0
   -7.6627    1.2190   -2.9975 H   0  0  0  0  0
   -0.5331    3.3466   -2.9182 H   0  0  0  0  0
   -0.1549    0.0609   -0.1444 H   0  0  0  0  0
    5.1784    2.3455   -3.2085 H   0  0  0  0  0
    3.6774    2.3808   -4.1453 H   0  0  0  0  0
    3.9227    3.5063   -2.7536 H   0  0  0  0  0
   -5.8661    0.6889   -5.9780 H   0  0  0  0  0
   -6.8330   -0.0175   -4.6756 H   0  0  0  0  0
   -6.9191    1.7511   -5.0330 H   0  0  0  0  0
    1.8837   -1.2482   -0.2221 H   0  0  0  0  0
    3.3282   -0.6550   -1.0113 H   0  0  0  0  0
    3.6410    1.0711    0.8201 H   0  0  0  0  0
    2.5983    0.6957    4.0444 H   0  0  0  0  0
    3.9614    1.2835    3.0850 H   0  0  0  0  0
    4.0693   -0.2896    3.8851 H   0  0  0  0  0
    2.5740   -2.2145    3.0886 H   0  0  0  0  0
    1.0915   -1.2392    3.0453 H   0  0  0  0  0
    1.6599   -2.0753    1.5959 H   0  0  0  0  0
  1  7  1  0  0  0
  1  8  1  0  0  0
  2  9  2  0  0  0
  3 10  1  0  0  0
  3 22  1  0  0  0
  4 11  1  0  0  0
  4 23  1  0  0  0
  5 12  1  0  0  0
  5 29  1  0  0  0
  6 13  1  0  0  0
  6 30  1  0  0  0
  7 14  2  0  0  0
  7 18  1  0  0  0
  8 15  2  0  0  0
  8 31  1  0  0  0
  9 14  1  0  0  0
  9 15  1  0  0  0
 10 12  2  0  0  0
 10 17  1  0  0  0
 11 14  1  0  0  0
 11 19  2  0  0  0
 12 20  1  0  0  0
 13 18  2  0  0  0
 13 19  1  0  0  0
 15 16  1  0  0  0
 16 20  2  0  0  0
 16 21  1  0  0  0
 17 21  2  0  0  0
 17 24  1  0  0  0
 18 32  1  0  0  0
 19 33  1  0  0  0
 20 34  1  0  0  0
 21 35  1  0  0  0
 22 36  1  0  0  0
 22 37  1  0  0  0
 22 38  1  0  0  0
 23 39  1  0  0  0
 23 40  1  0  0  0
 23 41  1  0  0  0
 24 26  1  0  0  0
 24 42  1  0  0  0
 24 43  1  0  0  0
 25 26  2  0  0  0
 25 27  1  0  0  0
 25 28  1  0  0  0
 26 44  1  0  0  0
 27 45  1  0  0  0
 27 46  1  0  0  0
 27 47  1  0  0  0
 28 48  1  0  0  0
 28 49  1  0  0  0
 28 50  1  0  0  0
M  END
> <Tumorigenic>
none

> <Score>
34.956627

> <Active/Decoy>
active

> <InChI>
InChI=1S/C22H22O6/c1-12(2)5-6-13-7-14(8-17(24)22(13)27-4)16-11-28-19-10-15(23)9-18(26-3)20(19)21(16)25/h5,7-11,23-24H,6H2,1-4H3

> <Matching Features>
H:14924486185440016873||HBA:14924321692640012300|HBA:14924486112070016868

> <Mol. Index>
308

> <Pharmacophore Match>
Model -1

> <# Confs.>
25

> <Source Database>
Pharm-Screening-input-EANPDB_After_DataWarror.ldb

> <Pharmacophore-Fit Score>
34.96

> <formula>
C22H22O6

> <Mutagenic>
none

> <Reproductive Effective>
none

> <Irritant>
none

$$$$
turranolide
XX    ILIB03122411353D

 73 77  0  0  1  0              1 V2000
    3.2852    2.2231   -0.6262 O   0  0  0  0  0
    4.2100    1.7616   -2.6863 O   0  0  0  0  0
   -5.5446    1.0867   -4.1900 O   0  0  0  0  0
    4.4943    3.7697    4.8733 O   0  0  0  0  0
   -4.8278    1.2783   -2.0212 O   0  0  0  0  0
    3.3686    0.8465   -0.2742 C   0  0  2  0  0
    1.9533    0.2997    0.0373 C   0  0  1  0  0
    2.4265    0.7523    2.6450 C   0  0  1  0  0
    1.4653    0.9106    1.3980 C   0  0  2  0  0
   -1.1630    0.6834   -2.0634 C   0  0  1  0  0
   -0.4346    1.1691   -0.7676 C   0  0  2  0  0
    3.9113    1.1734    2.3075 C   0  0  1  0  0
   -2.5223    1.2967   -2.3969 C   0  0  2  0  0
    3.7475    2.5401   -1.8635 C   0  0  0  0  0
   -4.6517    1.0662   -3.3604 C   0  0  0  0  0
    3.9624    2.8813    4.2023 C   0  0  0  0  0
   -3.5859    1.0780   -1.3377 C   0  0  0  0  0
    0.9755    0.6907   -1.0707 C   0  0  0  0  0
    4.3647    0.6899    0.9030 C   0  0  0  0  0
    4.3342    2.6363    2.7255 C   0  0  0  0  0
    1.8662    1.6241    3.8106 C   0  0  0  0  0
   -0.0297    0.5965    1.7076 C   0  0  0  0  0
   -0.0978    0.8292   -3.1651 C   0  0  0  0  0
   -0.9478    0.4485    0.4835 C   0  0  0  0  0
   -3.2080    0.7664   -3.6449 C   0  0  0  0  0
    1.9804   -1.2472    0.0565 C   0  0  0  0  0
    2.4666   -0.7087    3.1808 C   0  0  0  0  0
   -0.5022    2.6986   -0.5995 C   0  0  0  0  0
    1.1541    0.5529   -2.3962 C   0  0  0  0  0
    2.9216    1.9951    4.8350 C   0  0  0  0  0
    3.6074    4.0150   -2.0921 C   0  0  0  0  0
    5.8735    2.7945    2.6418 C   0  0  0  0  0
    3.7072    3.7771    1.9176 C   0  0  0  0  0
    3.7913    0.2840   -1.1196 H   0  0  0  0  0
    1.4756    1.9902    1.2228 H   0  0  0  0  0
   -1.3438   -0.3993   -1.9444 H   0  0  0  0  0
    4.5341    0.5642    2.9853 H   0  0  0  0  0
   -2.3957    2.3817   -2.5233 H   0  0  0  0  0
   -3.4999    1.8029   -0.5232 H   0  0  0  0  0
   -3.5884    0.0690   -0.9132 H   0  0  0  0  0
    4.6087   -0.3764    0.9929 H   0  0  0  0  0
    5.3087    1.1656    0.6245 H   0  0  0  0  0
    1.0469    1.0994    4.3169 H   0  0  0  0  0
    1.4309    2.5514    3.4172 H   0  0  0  0  0
   -0.4311    1.4054    2.3302 H   0  0  0  0  0
   -0.1325   -0.3138    2.3046 H   0  0  0  0  0
   -0.2492    0.0885   -3.9555 H   0  0  0  0  0
   -0.0524    1.8270   -3.6116 H   0  0  0  0  0
   -1.9569    0.7922    0.7417 H   0  0  0  0  0
   -1.0536   -0.6251    0.2766 H   0  0  0  0  0
   -2.8748    1.2994   -4.5379 H   0  0  0  0  0
   -3.0952   -0.3127   -3.7750 H   0  0  0  0  0
    2.8581   -1.6535    0.5578 H   0  0  0  0  0
    2.0252   -1.6597   -0.9594 H   0  0  0  0  0
    1.0931   -1.6727    0.5337 H   0  0  0  0  0
    3.0238   -1.3831    2.5318 H   0  0  0  0  0
    2.9729   -0.7600    4.1516 H   0  0  0  0  0
    1.4708   -1.1297    3.3342 H   0  0  0  0  0
   -0.1441    3.2219   -1.4928 H   0  0  0  0  0
    0.0963    3.0710    0.2332 H   0  0  0  0  0
   -1.5283    3.0252   -0.4019 H   0  0  0  0  0
    2.0630    0.2047   -2.8647 H   0  0  0  0  0
    2.4492    2.5507    5.6536 H   0  0  0  0  0
    3.4173    1.1206    5.2643 H   0  0  0  0  0
    3.8861    4.2499   -3.1232 H   0  0  0  0  0
    2.5686    4.3181   -1.9399 H   0  0  0  0  0
    4.2701    4.5576   -1.4145 H   0  0  0  0  0
    6.3834    2.0184    3.2234 H   0  0  0  0  0
    6.2016    3.7616    3.0408 H   0  0  0  0  0
    6.2404    2.7489    1.6122 H   0  0  0  0  0
    4.1572    3.8640    0.9267 H   0  0  0  0  0
    2.6274    3.6748    1.8052 H   0  0  0  0  0
    3.8717    4.7440    2.4103 H   0  0  0  0  0
  1  6  1  0  0  0
  1 14  1  0  0  0
  2 14  2  0  0  0
  3 15  2  0  0  0
  4 16  2  0  0  0
  5 15  1  0  0  0
  5 17  1  0  0  0
  6  7  1  0  0  0
  6 19  1  0  0  0
  6 34  1  0  0  0
  7  9  1  0  0  0
  7 18  1  0  0  0
  7 26  1  0  0  0
  8  9  1  0  0  0
  8 12  1  0  0  0
  8 21  1  0  0  0
  8 27  1  0  0  0
  9 22  1  0  0  0
  9 35  1  0  0  0
 10 11  1  0  0  0
 10 13  1  0  0  0
 10 23  1  0  0  0
 10 36  1  0  0  0
 11 18  1  0  0  0
 11 24  1  0  0  0
 11 28  1  0  0  0
 12 19  1  0  0  0
 12 20  1  0  0  0
 12 37  1  0  0  0
 13 17  1  0  0  0
 13 25  1  0  0  0
 13 38  1  0  0  0
 14 31  1  0  0  0
 15 25  1  0  0  0
 16 20  1  0  0  0
 16 30  1  0  0  0
 17 39  1  0  0  0
 17 40  1  0  0  0
 18 29  2  0  0  0
 19 41  1  0  0  0
 19 42  1  0  0  0
 20 32  1  0  0  0
 20 33  1  0  0  0
 21 30  1  0  0  0
 21 43  1  0  0  0
 21 44  1  0  0  0
 22 24  1  0  0  0
 22 45  1  0  0  0
 22 46  1  0  0  0
 23 29  1  0  0  0
 23 47  1  0  0  0
 23 48  1  0  0  0
 24 49  1  0  0  0
 24 50  1  0  0  0
 25 51  1  0  0  0
 25 52  1  0  0  0
 26 53  1  0  0  0
 26 54  1  0  0  0
 26 55  1  0  0  0
 27 56  1  0  0  0
 27 57  1  0  0  0
 27 58  1  0  0  0
 28 59  1  0  0  0
 28 60  1  0  0  0
 28 61  1  0  0  0
 29 62  1  0  0  0
 30 63  1  0  0  0
 30 64  1  0  0  0
 31 65  1  0  0  0
 31 66  1  0  0  0
 31 67  1  0  0  0
 32 68  1  0  0  0
 32 69  1  0  0  0
 32 70  1  0  0  0
 33 71  1  0  0  0
 33 72  1  0  0  0
 33 73  1  0  0  0
M  END
> <Tumorigenic>
none

> <Score>
34.94728

> <Active/Decoy>
active

> <InChI>
InChI=1S/C28H40O5/c1-16(29)33-23-14-21-25(2,3)22(30)10-12-27(21,5)20-9-11-26(4)18(17-13-24(31)32-15-17)7-8-19(26)28(20,23)6/h8,17-18,20-21,23H,7,9-15H2,1-6H3/t17-,18+,20-,21-,23-,26+,27-,28+/m0/s1

> <Matching Features>
H:14924486185440016873||HBA:14924321692640012300|HBA:14924486112070016868

> <Mol. Index>
371

> <Pharmacophore Match>
Model -1

> <# Confs.>
7

> <Source Database>
Pharm-Screening-input-EANPDB_After_DataWarror.ldb

> <Pharmacophore-Fit Score>
34.95

> <formula>
C28H40O5

> <Mutagenic>
none

> <Reproductive Effective>
none

> <Irritant>
none

$$$$
(+)-lariciresinol
XX    ILIB03122411353D

 50 52  0  0  1  0              1 V2000
   -4.0053    1.4726   -1.2125 O   0  0  0  0  0
    0.6386   -3.0524    3.5298 O   0  0  0  0  0
   -4.7120    1.0417   -3.7937 O   0  0  0  0  0
    1.4517   -1.2547    5.3876 O   0  0  0  0  0
    0.9016    2.7533   -1.4552 O   0  0  0  0  0
    3.6871    1.6485   -2.5661 O   0  0  0  0  0
   -3.0055    1.4762   -2.1437 C   0  0  0  0  0
    1.3131   -1.9522    3.0826 C   0  0  0  0  0
   -3.3993    1.2538   -3.4673 C   0  0  0  0  0
    1.7230   -1.0422    4.0627 C   0  0  0  0  0
   -0.6976    1.6582   -2.9036 C   0  0  0  0  0
    2.3092   -0.5107    1.3873 C   0  0  0  0  0
   -1.6488    1.6800   -1.8691 C   0  0  0  0  0
    1.6124   -1.6792    1.7426 C   0  0  0  0  0
   -2.4681    1.2402   -4.5038 C   0  0  0  0  0
    2.4240    0.1137    3.7264 C   0  0  0  0  0
   -1.1207    1.4455   -4.2216 C   0  0  0  0  0
    2.7177    0.3769    2.3901 C   0  0  0  0  0
    0.7616    1.8881   -2.5988 C   0  0  2  0  0
    1.5246    0.5833   -2.2919 C   0  0  2  0  0
    1.5541    0.5854   -0.7461 C   0  0  2  0  0
    1.6229    2.0684   -0.4259 C   0  0  0  0  0
    2.8776    0.5608   -2.9905 C   0  0  0  0  0
   -3.5896    1.7009    0.1307 C   0  0  0  0  0
    0.2290   -3.9689    2.5184 C   0  0  0  0  0
    2.6258   -0.2303   -0.0414 C   0  0  0  0  0
   -5.2347    1.0690   -2.9733 H   0  0  0  0  0
    0.9541   -2.0865    5.4628 H   0  0  0  0  0
    3.2548    2.4696   -2.8553 H   0  0  0  0  0
   -1.3010    1.8566   -0.8545 H   0  0  0  0  0
    1.3127   -2.3596    0.9495 H   0  0  0  0  0
   -2.7851    1.0727   -5.5297 H   0  0  0  0  0
    2.7426    0.8115    4.4960 H   0  0  0  0  0
   -0.4000    1.4351   -5.0356 H   0  0  0  0  0
    3.2663    1.2805    2.1360 H   0  0  0  0  0
    1.1999    2.4247   -3.4494 H   0  0  0  0  0
    0.9779   -0.2978   -2.6507 H   0  0  0  0  0
    0.5726    0.2294   -0.4144 H   0  0  0  0  0
    1.1728    2.2991    0.5380 H   0  0  0  0  0
    2.6482    2.4517   -0.4131 H   0  0  0  0  0
    3.4116   -0.3642   -2.7497 H   0  0  0  0  0
    2.7773    0.5947   -4.0808 H   0  0  0  0  0
   -4.4820    1.6811    0.7641 H   0  0  0  0  0
   -2.9164    0.9084    0.4749 H   0  0  0  0  0
   -3.1240    2.6876    0.2380 H   0  0  0  0  0
   -0.2867   -4.7985    3.0112 H   0  0  0  0  0
   -0.4785   -3.5013    1.8246 H   0  0  0  0  0
    1.0923   -4.3808    1.9845 H   0  0  0  0  0
    3.6052    0.2794   -0.1138 H   0  0  0  0  0
    2.7691   -1.1921   -0.5682 H   0  0  0  0  0
  1  7  1  0  0  0
  1 24  1  0  0  0
  2  8  1  0  0  0
  2 25  1  0  0  0
  3  9  1  0  0  0
  3 27  1  0  0  0
  4 10  1  0  0  0
  4 28  1  0  0  0
  5 19  1  0  0  0
  5 22  1  0  0  0
  6 23  1  0  0  0
  6 29  1  0  0  0
  7  9  2  0  0  0
  7 13  1  0  0  0
  8 10  2  0  0  0
  8 14  1  0  0  0
  9 15  1  0  0  0
 10 16  1  0  0  0
 11 13  2  0  0  0
 11 17  1  0  0  0
 11 19  1  0  0  0
 12 14  2  0  0  0
 12 18  1  0  0  0
 12 26  1  0  0  0
 13 30  1  0  0  0
 14 31  1  0  0  0
 15 17  2  0  0  0
 15 32  1  0  0  0
 16 18  2  0  0  0
 16 33  1  0  0  0
 17 34  1  0  0  0
 18 35  1  0  0  0
 19 20  1  0  0  0
 19 36  1  0  0  0
 20 21  1  0  0  0
 20 23  1  0  0  0
 20 37  1  0  0  0
 21 22  1  0  0  0
 21 26  1  0  0  0
 21 38  1  0  0  0
 22 39  1  0  0  0
 22 40  1  0  0  0
 23 41  1  0  0  0
 23 42  1  0  0  0
 24 43  1  0  0  0
 24 44  1  0  0  0
 24 45  1  0  0  0
 25 46  1  0  0  0
 25 47  1  0  0  0
 25 48  1  0  0  0
 26 49  1  0  0  0
 26 50  1  0  0  0
M  END
> <Tumorigenic>
none

> <Score>
34.939392

> <Active/Decoy>
active

> <InChI>
InChI=1S/C20H24O6/c1-24-18-8-12(3-5-16(18)22)7-14-11-26-20(15(14)10-21)13-4-6-17(23)19(9-13)25-2/h3-6,8-9,14-15,20-23H,7,10-11H2,1-2H3/t14-,15-,20+/m0/s1

> <Matching Features>
H:14924486185440016873||HBA:14924321692640012300|HBA:14924486112070016868

> <Mol. Index>
467

> <Pharmacophore Match>
Model -1

> <# Confs.>
25

> <Source Database>
Pharm-Screening-input-EANPDB_After_DataWarror.ldb

> <Pharmacophore-Fit Score>
34.94

> <formula>
C20H24O6

> <Mutagenic>
none

> <Reproductive Effective>
none

> <Irritant>
none

$$$$
8-O-methylretusin
XX    ILIB03122411353D

 36 38  0  0  1  0              1 V2000
    1.8256    1.2241   -1.8994 O   0  0  0  0  0
   -1.1352   -0.0636    0.5803 O   0  0  0  0  0
    4.4889    1.1803   -1.0750 O   0  0  0  0  0
   -5.7945    0.8628   -3.6890 O   0  0  0  0  0
    5.1275    0.2867    1.4414 O   0  0  0  0  0
    2.1412    0.7326   -0.6588 C   0  0  0  0  0
    0.5108    1.1951   -2.2917 C   0  0  0  0  0
   -0.2526    0.2853   -0.1942 C   0  0  0  0  0
    3.4870    0.7178   -0.2702 C   0  0  0  0  0
   -4.5015    0.7905   -3.2541 C   0  0  0  0  0
    3.8289    0.2856    1.0128 C   0  0  0  0  0
    1.1616    0.2758    0.2247 C   0  0  0  0  0
   -0.5461    0.7726   -1.5853 C   0  0  0  0  0
   -1.9019    0.7996   -2.1280 C   0  0  0  0  0
   -4.2209    1.5262   -2.0983 C   0  0  0  0  0
   -3.4811    0.0513   -3.8480 C   0  0  0  0  0
    2.8523   -0.1701    1.8942 C   0  0  0  0  0
    1.5151   -0.1806    1.4996 C   0  0  0  0  0
   -2.9347    1.5268   -1.5492 C   0  0  0  0  0
   -2.1933    0.0542   -3.2974 C   0  0  0  0  0
    4.0712    1.6812   -2.3423 C   0  0  0  0  0
   -6.0832    0.1092   -4.8638 C   0  0  0  0  0
    5.6822    0.6322    0.7207 H   0  0  0  0  0
    0.4456    1.5640   -3.3084 H   0  0  0  0  0
   -5.0025    2.1092   -1.6156 H   0  0  0  0  0
   -3.6474   -0.5379   -4.7446 H   0  0  0  0  0
    3.1231   -0.5157    2.8885 H   0  0  0  0  0
    0.7648   -0.5378    2.1991 H   0  0  0  0  0
   -2.7668    2.1153   -0.6500 H   0  0  0  0  0
   -1.4274   -0.5336   -3.7984 H   0  0  0  0  0
    4.9625    2.0232   -2.8756 H   0  0  0  0  0
    3.6026    0.8943   -2.9436 H   0  0  0  0  0
    3.4002    2.5399   -2.2264 H   0  0  0  0  0
   -7.1423    0.2501   -5.0973 H   0  0  0  0  0
   -5.5002    0.4705   -5.7176 H   0  0  0  0  0
   -5.9156   -0.9611   -4.6973 H   0  0  0  0  0
  1  6  1  0  0  0
  1  7  1  0  0  0
  2  8  2  0  0  0
  3  9  1  0  0  0
  3 21  1  0  0  0
  4 10  1  0  0  0
  4 22  1  0  0  0
  5 11  1  0  0  0
  5 23  1  0  0  0
  6  9  1  0  0  0
  6 12  2  0  0  0
  7 13  2  0  0  0
  7 24  1  0  0  0
  8 12  1  0  0  0
  8 13  1  0  0  0
  9 11  2  0  0  0
 10 15  2  0  0  0
 10 16  1  0  0  0
 11 17  1  0  0  0
 12 18  1  0  0  0
 13 14  1  0  0  0
 14 19  2  0  0  0
 14 20  1  0  0  0
 15 19  1  0  0  0
 15 25  1  0  0  0
 16 20  2  0  0  0
 16 26  1  0  0  0
 17 18  2  0  0  0
 17 27  1  0  0  0
 18 28  1  0  0  0
 19 29  1  0  0  0
 20 30  1  0  0  0
 21 31  1  0  0  0
 21 32  1  0  0  0
 21 33  1  0  0  0
 22 34  1  0  0  0
 22 35  1  0  0  0
 22 36  1  0  0  0
M  END
> <Tumorigenic>
none

> <Score>
34.927307

> <Active/Decoy>
active

> <InChI>
InChI=1S/C17H14O5/c1-20-11-5-3-10(4-6-11)13-9-22-16-12(15(13)19)7-8-14(18)17(16)21-2/h3-9,18H,1-2H3

> <Matching Features>
H:14924486185440016873||HBA:14924321692640012300|HBA:14924486112070016868

> <Mol. Index>
313

> <Pharmacophore Match>
Model -1

> <# Confs.>
5

> <Source Database>
Pharm-Screening-input-EANPDB_After_DataWarror.ldb

> <Pharmacophore-Fit Score>
34.93

> <formula>
C17H14O5

> <Mutagenic>
none

> <Reproductive Effective>
none

> <Irritant>
none

$$$$
7-hydroxy-8,3',4'-trimethoxyisoflavone
XX    ILIB03122411353D

 40 42  0  0  1  0              1 V2000
    1.8296    1.1598   -1.9269 O   0  0  0  0  0
   -1.1117   -0.2486    0.5099 O   0  0  0  0  0
    4.4941    1.1802   -1.0730 O   0  0  0  0  0
   -4.7806   -1.4210   -2.9636 O   0  0  0  0  0
   -5.7988    0.8621   -3.6887 O   0  0  0  0  0
    5.1183    0.3464    1.4622 O   0  0  0  0  0
    2.1449    0.6952   -0.6759 C   0  0  0  0  0
    0.5124    1.1483   -2.3099 C   0  0  0  0  0
   -0.2427    0.1947   -0.2292 C   0  0  0  0  0
    3.4862    0.7138   -0.2755 C   0  0  0  0  0
   -3.9781   -0.3293   -2.7973 C   0  0  0  0  0
   -4.5294    0.8990   -3.1830 C   0  0  0  0  0
    3.8237    0.3130    1.0200 C   0  0  0  0  0
    1.1663    0.2336    0.2067 C   0  0  0  0  0
   -0.5428    0.7179   -1.6058 C   0  0  0  0  0
   -1.9037    0.7790   -2.1352 C   0  0  0  0  0
   -2.6730   -0.3772   -2.2807 C   0  0  0  0  0
   -3.7701    2.0669   -3.0466 C   0  0  0  0  0
    2.8477   -0.1445    1.9016 C   0  0  0  0  0
    1.5158   -0.1910    1.4931 C   0  0  0  0  0
   -2.4744    2.0090   -2.5261 C   0  0  0  0  0
    4.0861    1.6523   -2.3546 C   0  0  0  0  0
   -4.2113   -2.6646   -2.5616 C   0  0  0  0  0
   -6.3395    2.1213   -4.0812 C   0  0  0  0  0
    5.6759    0.6762    0.7365 H   0  0  0  0  0
    0.4409    1.5589   -3.3099 H   0  0  0  0  0
   -2.2405   -1.3315   -1.9891 H   0  0  0  0  0
   -4.1566    3.0429   -3.3281 H   0  0  0  0  0
    3.1147   -0.4639    2.9049 H   0  0  0  0  0
    0.7659   -0.5500    2.1932 H   0  0  0  0  0
   -1.9253    2.9438   -2.4300 H   0  0  0  0  0
    3.4085    2.5082   -2.2633 H   0  0  0  0  0
    3.6295    0.8495   -2.9440 H   0  0  0  0  0
    4.9803    1.9897   -2.8863 H   0  0  0  0  0
   -3.9868   -2.6684   -1.4898 H   0  0  0  0  0
   -3.3187   -2.8982   -3.1523 H   0  0  0  0  0
   -4.9514   -3.4485   -2.7512 H   0  0  0  0  0
   -5.7543    2.5661   -4.8935 H   0  0  0  0  0
   -6.4098    2.8037   -3.2271 H   0  0  0  0  0
   -7.3526    1.9476   -4.4552 H   0  0  0  0  0
  1  7  1  0  0  0
  1  8  1  0  0  0
  2  9  2  0  0  0
  3 10  1  0  0  0
  3 22  1  0  0  0
  4 11  1  0  0  0
  4 23  1  0  0  0
  5 12  1  0  0  0
  5 24  1  0  0  0
  6 13  1  0  0  0
  6 25  1  0  0  0
  7 10  1  0  0  0
  7 14  2  0  0  0
  8 15  2  0  0  0
  8 26  1  0  0  0
  9 14  1  0  0  0
  9 15  1  0  0  0
 10 13  2  0  0  0
 11 12  2  0  0  0
 11 17  1  0  0  0
 12 18  1  0  0  0
 13 19  1  0  0  0
 14 20  1  0  0  0
 15 16  1  0  0  0
 16 17  2  0  0  0
 16 21  1  0  0  0
 17 27  1  0  0  0
 18 21  2  0  0  0
 18 28  1  0  0  0
 19 20  2  0  0  0
 19 29  1  0  0  0
 20 30  1  0  0  0
 21 31  1  0  0  0
 22 32  1  0  0  0
 22 33  1  0  0  0
 22 34  1  0  0  0
 23 35  1  0  0  0
 23 36  1  0  0  0
 23 37  1  0  0  0
 24 38  1  0  0  0
 24 39  1  0  0  0
 24 40  1  0  0  0
M  END
> <Tumorigenic>
none

> <Score>
34.922783

> <Active/Decoy>
active

> <InChI>
InChI=1S/C18H16O6/c1-21-14-7-4-10(8-15(14)22-2)12-9-24-17-11(16(12)20)5-6-13(19)18(17)23-3/h4-9,19H,1-3H3

> <Matching Features>
H:14924486185440016873||HBA:14924321692640012300|HBA:14924486112070016868

> <Mol. Index>
310

> <Pharmacophore Match>
Model -1

> <# Confs.>
12

> <Source Database>
Pharm-Screening-input-EANPDB_After_DataWarror.ldb

> <Pharmacophore-Fit Score>
34.92

> <formula>
C18H16O6

> <Mutagenic>
none

> <Reproductive Effective>
none

> <Irritant>
none

$$$$
elgonene K
XX    ILIB03122411353D

 44 44  0  0  1  0              1 V2000
    5.1835    1.5175   -1.7231 O   0  0  0  0  0
   -4.3057    2.2461   -0.4915 O   0  0  0  0  0
   -5.2376    0.7071   -3.0959 O   0  0  0  0  0
    2.7941    1.8700   -1.5213 C   0  0  2  0  0
    1.4813    1.1498   -1.0399 C   0  0  1  0  0
    3.9628    0.9237   -1.3049 C   0  0  0  0  0
   -3.0044    2.6408   -0.9360 C   0  0  0  0  0
   -4.1013    1.4158   -3.5742 C   0  0  0  0  0
    1.4304    1.0738    0.4908 C   0  0  0  0  0
    3.0378    3.1953   -0.7284 C   0  0  0  0  0
    0.1522    1.6860   -1.5892 C   0  0  0  0  0
    2.7327    2.2170   -3.0183 C   0  0  0  0  0
   -2.3654    1.5370   -1.6999 C   0  0  0  0  0
   -2.8743    0.9952   -2.8326 C   0  0  0  0  0
    1.1866   -0.0848    1.1236 C   0  0  0  0  0
    1.7102    2.3406    1.2576 C   0  0  0  0  0
   -1.1036    0.9727   -1.1074 C   0  0  0  0  0
    2.9974    3.0115    0.7888 C   0  0  0  0  0
    5.1288    1.6627   -2.6828 H   0  0  0  0  0
   -4.2011    1.4787    0.0967 H   0  0  0  0  0
   -5.3507    0.9307   -2.1562 H   0  0  0  0  0
    1.5427    0.1273   -1.4158 H   0  0  0  0  0
    4.0600    0.6729   -0.2437 H   0  0  0  0  0
    3.8227   -0.0211   -1.8422 H   0  0  0  0  0
   -3.1171    3.5205   -1.5636 H   0  0  0  0  0
   -2.4227    2.9213   -0.0525 H   0  0  0  0  0
   -3.9897    1.1980   -4.6416 H   0  0  0  0  0
   -4.2989    2.4881   -3.4732 H   0  0  0  0  0
    2.2897    3.9456   -1.0096 H   0  0  0  0  0
    4.0032    3.6342   -1.0055 H   0  0  0  0  0
    0.0747    2.7508   -1.3553 H   0  0  0  0  0
    0.2061    1.6088   -2.6898 H   0  0  0  0  0
    3.6753    2.6489   -3.3725 H   0  0  0  0  0
    1.9515    2.9514   -3.2405 H   0  0  0  0  0
    2.5341    1.3204   -3.6154 H   0  0  0  0  0
   -2.3380    0.1640   -3.2892 H   0  0  0  0  0
    1.1663   -0.1438    2.2062 H   0  0  0  0  0
    0.9975   -1.0000    0.5729 H   0  0  0  0  0
    0.8693    3.0312    1.1394 H   0  0  0  0  0
    1.7900    2.1419    2.3337 H   0  0  0  0  0
   -1.0378   -0.1062   -1.3577 H   0  0  0  0  0
   -1.1355    1.0204   -0.0117 H   0  0  0  0  0
    3.0923    3.9908    1.2740 H   0  0  0  0  0
    3.8625    2.4238    1.1157 H   0  0  0  0  0
  1  6  1  0  0  0
  1 19  1  0  0  0
  2  7  1  0  0  0
  2 20  1  0  0  0
  3  8  1  0  0  0
  3 21  1  0  0  0
  4  5  1  0  0  0
  4  6  1  0  0  0
  4 10  1  0  0  0
  4 12  1  0  0  0
  5  9  1  0  0  0
  5 11  1  0  0  0
  5 22  1  0  0  0
  6 23  1  0  0  0
  6 24  1  0  0  0
  7 13  1  0  0  0
  7 25  1  0  0  0
  7 26  1  0  0  0
  8 14  1  0  0  0
  8 27  1  0  0  0
  8 28  1  0  0  0
  9 15  2  0  0  0
  9 16  1  0  0  0
 10 18  1  0  0  0
 10 29  1  0  0  0
 10 30  1  0  0  0
 11 17  1  0  0  0
 11 31  1  0  0  0
 11 32  1  0  0  0
 12 33  1  0  0  0
 12 34  1  0  0  0
 12 35  1  0  0  0
 13 14  2  0  0  0
 13 17  1  0  0  0
 14 36  1  0  0  0
 15 37  1  0  0  0
 15 38  1  0  0  0
 16 18  1  0  0  0
 16 39  1  0  0  0
 16 40  1  0  0  0
 17 41  1  0  0  0
 17 42  1  0  0  0
 18 43  1  0  0  0
 18 44  1  0  0  0
M  END
> <Tumorigenic>
none

> <Score>
34.85484

> <Active/Decoy>
active

> <InChI>
InChI=1S/C15H26O3/c1-12-4-3-8-15(2,11-18)14(12)6-5-13(10-17)7-9-16/h7,14,16-18H,1,3-6,8-11H2,2H3/b13-7-/t14-,15+/m1/s1

> <Matching Features>
H:14924486185440016873||HBA:14924321692640012300|HBA:14924486112070016868

> <Mol. Index>
543

> <Pharmacophore Match>
Model -1

> <# Confs.>
25

> <Source Database>
Pharm-Screening-input-EANPDB_After_DataWarror.ldb

> <Pharmacophore-Fit Score>
34.85

> <formula>
C15H26O3

> <Mutagenic>
none

> <Reproductive Effective>
none

> <Irritant>
none

$$$$
10-hydroxy-Nb-methylcorynantheol
XX    ILIB03122411353D

 47 50  0  0  1  0              1 V2000
   -6.6499    1.0340   -4.4225 O   0  0  0  0  0
    4.8950    1.5699   -1.9565 O   0  0  0  0  0
   -1.6795    2.1049   -2.3652 N   0  0  0  0  0
   -0.8755    0.1794    0.7456 N   0  0  0  0  0
   -5.4015    1.3216   -3.9385 C   0  0  0  0  0
   -2.8756    1.9456   -3.0331 C   0  0  0  0  0
   -1.7002    1.3873   -1.2029 C   0  0  0  0  0
   -3.6860    1.1147   -2.2510 C   0  0  0  0  0
   -2.9339    0.7823   -1.0921 C   0  0  0  0  0
   -4.9776    0.7952   -2.7141 C   0  0  0  0  0
   -4.5810    2.1459   -4.7009 C   0  0  0  0  0
   -3.2975    2.4738   -4.2587 C   0  0  0  0  0
   -0.6129    1.3190   -0.1743 C   0  0  2  0  0
    1.5282    0.0067    1.3394 C   0  0  2  0  0
    1.8903    1.0772    0.2835 C   0  0  2  0  0
    3.6263    1.8810   -1.3944 C   0  0  0  0  0
    0.0846    0.1828    1.8549 C   0  0  0  0  0
   -2.2693    0.1785    1.2395 C   0  0  0  0  0
   -3.2734   -0.0592    0.0878 C   0  0  0  0  0
    0.7767    1.1438   -0.8006 C   0  0  0  0  0
    2.4705    0.0243    2.4966 C   0  0  0  0  0
    3.2490    0.8226   -0.3474 C   0  0  0  0  0
    3.3047   -0.9535    2.8710 C   0  0  0  0  0
   -7.1019    0.4512   -3.7871 H   0  0  0  0  0
    5.5384    1.5751   -1.2173 H   0  0  0  0  0
   -0.9072    2.6682   -2.6934 H   0  0  0  0  0
   -5.6294    0.1535   -2.1279 H   0  0  0  0  0
   -4.9318    2.5425   -5.6494 H   0  0  0  0  0
   -2.6523    3.1181   -4.8484 H   0  0  0  0  0
   -0.6380    2.2624    0.3909 H   0  0  0  0  0
    1.5821   -0.9832    0.8446 H   0  0  0  0  0
    1.9153    2.0597    0.7759 H   0  0  0  0  0
    3.6565    2.8798   -0.9704 H   0  0  0  0  0
    2.8968    1.8892   -2.2246 H   0  0  0  0  0
   -0.1419   -0.6482    2.5352 H   0  0  0  0  0
   -0.0032    1.1084    2.4403 H   0  0  0  0  0
   -2.4118   -0.6205    1.9771 H   0  0  0  0  0
   -2.4929    1.1287    1.7412 H   0  0  0  0  0
   -3.2452   -1.1141   -0.2117 H   0  0  0  0  0
   -4.2887    0.1608    0.4372 H   0  0  0  0  0
    0.8014    0.2312   -1.4124 H   0  0  0  0  0
    0.9803    1.9786   -1.4818 H   0  0  0  0  0
    2.4772    0.9344    3.0955 H   0  0  0  0  0
    4.0089    0.8331    0.4301 H   0  0  0  0  0
    3.2611   -0.1767   -0.8062 H   0  0  0  0  0
    3.3736   -1.8950    2.3397 H   0  0  0  0  0
    3.9452   -0.8193    3.7366 H   0  0  0  0  0
  1  5  1  0  0  0
  1 24  1  0  0  0
  2 16  1  0  0  0
  2 25  1  0  0  0
  3  6  1  0  0  0
  3  7  1  0  0  0
  3 26  1  0  0  0
  4 13  1  0  0  0
  4 17  1  0  0  0
  4 18  1  0  0  0
  5 10  2  0  0  0
  5 11  1  0  0  0
  6  8  2  0  0  0
  6 12  1  0  0  0
  7  9  2  0  0  0
  7 13  1  0  0  0
  8  9  1  0  0  0
  8 10  1  0  0  0
  9 19  1  0  0  0
 10 27  1  0  0  0
 11 12  2  0  0  0
 11 28  1  0  0  0
 12 29  1  0  0  0
 13 20  1  0  0  0
 13 30  1  0  0  0
 14 15  1  0  0  0
 14 17  1  0  0  0
 14 21  1  0  0  0
 14 31  1  0  0  0
 15 20  1  0  0  0
 15 22  1  0  0  0
 15 32  1  0  0  0
 16 22  1  0  0  0
 16 33  1  0  0  0
 16 34  1  0  0  0
 17 35  1  0  0  0
 17 36  1  0  0  0
 18 19  1  0  0  0
 18 37  1  0  0  0
 18 38  1  0  0  0
 19 39  1  0  0  0
 19 40  1  0  0  0
 20 41  1  0  0  0
 20 42  1  0  0  0
 21 23  2  0  0  0
 21 43  1  0  0  0
 22 44  1  0  0  0
 22 45  1  0  0  0
 23 46  1  0  0  0
 23 47  1  0  0  0
M  END
> <Tumorigenic>
none

> <Score>
34.79399

> <Active/Decoy>
active

> <InChI>
InChI=1S/C19H24N2O2/c1-2-12-11-21-7-5-15-16-10-14(23)3-4-17(16)20-19(15)18(21)9-13(12)6-8-22/h2-4,10,12-13,18,20,22-23H,1,5-9,11H2/t12-,13-,18-/m0/s1

> <Matching Features>
H:14924486185440016873||HBA:14924321692640012300|HBA:14924486112070016868

> <Mol. Index>
350

> <Pharmacophore Match>
Model -1

> <# Confs.>
15

> <Source Database>
Pharm-Screening-input-EANPDB_After_DataWarror.ldb

> <Pharmacophore-Fit Score>
34.79

> <formula>
C19H24N2O2

> <Mutagenic>
none

> <Reproductive Effective>
none

> <Irritant>
none

$$$$
abyssinone II
XX    ILIB03122411353D

 44 46  0  0  1  0              1 V2000
   -1.7427    0.1166   -3.3149 O   0  0  0  0  0
    4.2502    1.5203   -2.0429 O   0  0  0  0  0
   -6.2146    1.1077   -4.4691 O   0  0  0  0  0
   -2.5847   -3.8729   -2.9011 O   0  0  0  0  0
   -3.0180   -0.3517   -3.5053 C   0  0  0  0  0
    2.9804    1.0064   -2.1057 C   0  0  0  0  0
   -5.2931    0.1695   -4.0975 C   0  0  0  0  0
    0.4033   -0.1014   -2.2870 C   0  0  0  0  0
   -3.3736   -1.6951   -3.3536 C   0  0  0  0  0
    2.2183    0.9138   -0.9295 C   0  0  0  0  0
   -3.9767    0.5830   -3.8961 C   0  0  0  0  0
    2.4851    0.5901   -3.3408 C   0  0  0  0  0
   -5.6591   -1.1657   -3.9269 C   0  0  0  0  0
    0.9272    0.3301   -1.0522 C   0  0  0  0  0
    1.2063    0.0446   -3.4290 C   0  0  0  0  0
   -4.6948   -2.1041   -3.5569 C   0  0  0  0  0
   -0.9781   -0.7078   -2.4130 C   0  0  2  0  0
   -2.3265   -2.6828   -3.0196 C   0  0  0  0  0
    2.7443    1.3610    0.3961 C   0  0  0  0  0
   -0.9228   -2.1445   -2.9104 C   0  0  0  0  0
    3.1911   -0.2624    2.3328 C   0  0  0  0  0
    3.4661    0.2637    1.1334 C   0  0  0  0  0
    4.0340   -1.3780    2.8911 C   0  0  0  0  0
    2.0672    0.1737    3.2284 C   0  0  0  0  0
    4.6378    1.5120   -2.9350 H   0  0  0  0  0
   -7.0783    0.6695   -4.5709 H   0  0  0  0  0
   -3.7053    1.6258   -4.0297 H   0  0  0  0  0
    3.0864    0.6823   -4.2414 H   0  0  0  0  0
   -6.6853   -1.4858   -4.0856 H   0  0  0  0  0
    0.3063    0.2393   -0.1643 H   0  0  0  0  0
    0.8496   -0.2719   -4.4062 H   0  0  0  0  0
   -4.9875   -3.1435   -3.4425 H   0  0  0  0  0
   -1.4722   -0.6595   -1.4295 H   0  0  0  0  0
    3.4188    2.2028    0.2552 H   0  0  0  0  0
    1.9099    1.7365    1.0068 H   0  0  0  0  0
   -0.4644   -2.2216   -3.9031 H   0  0  0  0  0
   -0.3576   -2.7678   -2.2087 H   0  0  0  0  0
    4.3317   -0.1342    0.5850 H   0  0  0  0  0
    4.8393   -1.6737    2.2100 H   0  0  0  0  0
    3.4156   -2.2628    3.0749 H   0  0  0  0  0
    4.4943   -1.0714    3.8361 H   0  0  0  0  0
    2.4545    0.4265    4.2215 H   0  0  0  0  0
    1.5327    1.0527    2.8631 H   0  0  0  0  0
    1.3403   -0.6380    3.3414 H   0  0  0  0  0
  1  5  1  0  0  0
  1 17  1  0  0  0
  2  6  1  0  0  0
  2 25  1  0  0  0
  3  7  1  0  0  0
  3 26  1  0  0  0
  4 18  2  0  0  0
  5  9  2  0  0  0
  5 11  1  0  0  0
  6 10  2  0  0  0
  6 12  1  0  0  0
  7 11  2  0  0  0
  7 13  1  0  0  0
  8 14  2  0  0  0
  8 15  1  0  0  0
  8 17  1  0  0  0
  9 16  1  0  0  0
  9 18  1  0  0  0
 10 14  1  0  0  0
 10 19  1  0  0  0
 11 27  1  0  0  0
 12 15  2  0  0  0
 12 28  1  0  0  0
 13 16  2  0  0  0
 13 29  1  0  0  0
 14 30  1  0  0  0
 15 31  1  0  0  0
 16 32  1  0  0  0
 17 20  1  0  0  0
 17 33  1  0  0  0
 18 20  1  0  0  0
 19 22  1  0  0  0
 19 34  1  0  0  0
 19 35  1  0  0  0
 20 36  1  0  0  0
 20 37  1  0  0  0
 21 22  2  0  0  0
 21 23  1  0  0  0
 21 24  1  0  0  0
 22 38  1  0  0  0
 23 39  1  0  0  0
 23 40  1  0  0  0
 23 41  1  0  0  0
 24 42  1  0  0  0
 24 43  1  0  0  0
 24 44  1  0  0  0
M  END
> <Tumorigenic>
none

> <Score>
34.754284

> <Active/Decoy>
active

> <InChI>
InChI=1S/C20H20O4/c1-12(2)3-4-13-9-14(5-8-17(13)22)19-11-18(23)16-7-6-15(21)10-20(16)24-19/h3,5-10,19,21-22H,4,11H2,1-2H3/t19-/m0/s1

> <Matching Features>
H:14924486185440016873||HBA:14924321692640012300|HBA:14924486112070016868

> <Mol. Index>
532

> <Pharmacophore Match>
Model -1

> <# Confs.>
25

> <Source Database>
Pharm-Screening-input-EANPDB_After_DataWarror.ldb

> <Pharmacophore-Fit Score>
34.75

> <formula>
C20H20O4

> <Mutagenic>
none

> <Reproductive Effective>
none

> <Irritant>
none

$$$$
11-epi-toonacilin
XX    ILIB03122411353D

 78 82  0  0  1  0              1 V2000
    1.3028    3.8090    3.9642 O   0  0  0  0  0
    3.6459    1.1775   -1.3500 O   0  0  0  0  0
   -0.2711    2.1903    0.0838 O   0  0  0  0  0
    0.0113   -1.4565    0.4402 O   0  0  0  0  0
   -1.9413    2.1361    1.6778 O   0  0  0  0  0
   -1.8157   -1.3774    1.8485 O   0  0  0  0  0
   -5.0862    0.9566   -3.6967 O   0  0  0  0  0
   -3.6996   -3.8614   -1.0447 O   0  0  0  0  0
   -4.1749    1.1768   -1.5890 O   0  0  0  0  0
    1.9114    2.8687    3.1966 C   0  0  0  0  0
    0.9229    4.8075    3.1270 C   0  0  0  0  0
    1.9310    3.2463    1.8686 C   0  0  0  0  0
    1.2830    4.5142    1.8335 C   0  0  0  0  0
    2.2880    0.7911   -1.0177 C   0  0  2  0  0
    0.3265    0.9830    0.5906 C   0  0  1  0  0
   -0.3408   -0.1935   -0.1693 C   0  0  1  0  0
    2.5984    2.1135   -1.6505 C   0  0  1  0  0
    2.4959    2.4838    0.7378 C   0  0  1  0  0
    1.8897    1.0503    0.4457 C   0  0  2  0  0
   -0.8197   -1.1962   -2.5372 C   0  0  2  0  0
    0.0597   -0.2183   -1.6753 C   0  0  2  0  0
   -2.3596   -0.8586   -2.5121 C   0  0  2  0  0
   -1.3871    2.6499    0.7151 C   0  0  0  0  0
   -0.8063   -1.9231    1.4246 C   0  0  0  0  0
   -4.1455    0.8732   -2.9161 C   0  0  0  0  0
   -2.8966   -3.1749   -1.6752 C   0  0  0  0  0
   -5.4367    1.6332   -1.0917 C   0  0  0  0  0
    1.5927   -0.2826   -1.7687 C   0  0  0  0  0
    2.4569    3.2086   -0.6455 C   0  0  0  0  0
   -0.5432   -2.5866   -1.9606 C   0  0  0  0  0
   -3.3184   -2.1010   -2.6868 C   0  0  0  0  0
   -2.7823    0.3735   -3.3023 C   0  0  0  0  0
    2.5725    0.0054    1.3515 C   0  0  0  0  0
   -0.2075   -1.2035   -3.9717 C   0  0  0  0  0
   -1.4554   -3.4592   -1.5276 C   0  0  0  0  0
    2.2768   -1.2426   -2.4164 C   0  0  0  0  0
   -1.8723    3.8953    0.0362 C   0  0  0  0  0
   -0.2748   -3.2235    1.9467 C   0  0  0  0  0
   -4.7800   -1.7012   -2.3757 C   0  0  0  0  0
   -3.3086   -2.7842   -4.0630 C   0  0  0  0  0
    2.2713    1.9989    3.7281 H   0  0  0  0  0
    0.4175    5.6404    3.5909 H   0  0  0  0  0
    1.1028    5.1349    0.9670 H   0  0  0  0  0
    0.0927    0.9018    1.6611 H   0  0  0  0  0
   -1.4252   -0.0722   -0.1095 H   0  0  0  0  0
    2.3642    2.3347   -2.6732 H   0  0  0  0  0
    3.5712    2.3573    0.9601 H   0  0  0  0  0
   -0.1908    0.7916   -2.0739 H   0  0  0  0  0
   -2.5478   -0.5533   -1.4709 H   0  0  0  0  0
   -6.1917    0.8499   -1.2075 H   0  0  0  0  0
   -5.3230    1.8553   -0.0276 H   0  0  0  0  0
   -5.7406    2.5464   -1.6099 H   0  0  0  0  0
    3.2690    3.9364   -0.7349 H   0  0  0  0  0
    1.5134    3.7363   -0.8179 H   0  0  0  0  0
    0.5007   -2.8785   -1.8533 H   0  0  0  0  0
   -2.8121    0.1225   -4.3682 H   0  0  0  0  0
   -2.0542    1.1785   -3.1517 H   0  0  0  0  0
    2.3544   -1.0188    1.0376 H   0  0  0  0  0
    2.2606    0.1128    2.3941 H   0  0  0  0  0
    3.6630    0.1045    1.3175 H   0  0  0  0  0
   -0.2228   -0.2101   -4.4287 H   0  0  0  0  0
    0.8434   -1.5187   -3.9576 H   0  0  0  0  0
   -0.7274   -1.8854   -4.6471 H   0  0  0  0  0
   -1.1654   -4.4003   -1.0755 H   0  0  0  0  0
    3.3630   -1.2441   -2.4195 H   0  0  0  0  0
    1.8066   -2.0531   -2.9554 H   0  0  0  0  0
   -1.0480    4.6048   -0.0746 H   0  0  0  0  0
   -2.2943    3.6435   -0.9389 H   0  0  0  0  0
   -2.6441    4.3659    0.6505 H   0  0  0  0  0
   -0.0743   -3.9048    1.1160 H   0  0  0  0  0
    0.6350   -3.0443    2.5241 H   0  0  0  0  0
   -1.0233   -3.6890    2.5922 H   0  0  0  0  0
   -4.8574   -1.2101   -1.3980 H   0  0  0  0  0
   -5.1888   -1.0254   -3.1337 H   0  0  0  0  0
   -5.4409   -2.5759   -2.3473 H   0  0  0  0  0
   -3.6226   -2.1163   -4.8677 H   0  0  0  0  0
   -2.3343   -3.2064   -4.3183 H   0  0  0  0  0
   -4.0073   -3.6320   -4.0739 H   0  0  0  0  0
  1 10  1  0  0  0
  1 11  1  0  0  0
  2 14  1  0  0  0
  2 17  1  0  0  0
  3 15  1  0  0  0
  3 23  1  0  0  0
  4 16  1  0  0  0
  4 24  1  0  0  0
  5 23  2  0  0  0
  6 24  2  0  0  0
  7 25  2  0  0  0
  8 26  2  0  0  0
  9 25  1  0  0  0
  9 27  1  0  0  0
 10 12  2  0  0  0
 10 41  1  0  0  0
 11 13  2  0  0  0
 11 42  1  0  0  0
 12 13  1  0  0  0
 12 18  1  0  0  0
 13 43  1  0  0  0
 14 17  1  0  0  0
 14 19  1  0  0  0
 14 28  1  0  0  0
 15 16  1  0  0  0
 15 19  1  0  0  0
 15 44  1  0  0  0
 16 21  1  0  0  0
 16 45  1  0  0  0
 17 29  1  0  0  0
 17 46  1  0  0  0
 18 19  1  0  0  0
 18 29  1  0  0  0
 18 47  1  0  0  0
 19 33  1  0  0  0
 20 21  1  0  0  0
 20 22  1  0  0  0
 20 30  1  0  0  0
 20 34  1  0  0  0
 21 28  1  0  0  0
 21 48  1  0  0  0
 22 31  1  0  0  0
 22 32  1  0  0  0
 22 49  1  0  0  0
 23 37  1  0  0  0
 24 38  1  0  0  0
 25 32  1  0  0  0
 26 31  1  0  0  0
 26 35  1  0  0  0
 27 50  1  0  0  0
 27 51  1  0  0  0
 27 52  1  0  0  0
 28 36  2  0  0  0
 29 53  1  0  0  0
 29 54  1  0  0  0
 30 35  2  0  0  0
 30 55  1  0  0  0
 31 39  1  0  0  0
 31 40  1  0  0  0
 32 56  1  0  0  0
 32 57  1  0  0  0
 33 58  1  0  0  0
 33 59  1  0  0  0
 33 60  1  0  0  0
 34 61  1  0  0  0
 34 62  1  0  0  0
 34 63  1  0  0  0
 35 64  1  0  0  0
 36 65  1  0  0  0
 36 66  1  0  0  0
 37 67  1  0  0  0
 37 68  1  0  0  0
 37 69  1  0  0  0
 38 70  1  0  0  0
 38 71  1  0  0  0
 38 72  1  0  0  0
 39 73  1  0  0  0
 39 74  1  0  0  0
 39 75  1  0  0  0
 40 76  1  0  0  0
 40 77  1  0  0  0
 40 78  1  0  0  0
M  END
> <Tumorigenic>
none

> <Score>
34.735077

> <Active/Decoy>
active

> <InChI>
InChI=1S/C31H38O9/c1-16-25(29(6)11-9-22(34)28(4,5)21(29)14-24(35)36-8)26(38-17(2)32)27(39-18(3)33)30(7)20(19-10-12-37-15-19)13-23-31(16,30)40-23/h9-12,15,20-21,23,25-27H,1,13-14H2,2-8H3/t20-,21-,23?,25+,26+,27-,29-,30-,31+/m0/s1

> <Matching Features>
H:14924486185440016873||HBA:14924321692640012300|HBA:14924486112070016868

> <Mol. Index>
367

> <Pharmacophore Match>
Model -1

> <# Confs.>
6

> <Source Database>
Pharm-Screening-input-EANPDB_After_DataWarror.ldb

> <Pharmacophore-Fit Score>
34.74

> <formula>
C31H38O9

> <Mutagenic>
none

> <Reproductive Effective>
none

> <Irritant>
none

$$$$
3-O-benzoylhosloquinone
XX    ILIB03122411353D

 59 62  0  0  1  0              1 V2000
   -4.1156    0.3522   -5.7031 O   0  0  0  0  0
   -5.6580    1.0420   -4.1113 O   0  0  0  0  0
    2.2455    0.8170   -3.5436 O   0  0  0  0  0
    3.7118    1.1966   -1.3779 O   0  0  0  0  0
   -6.2858    0.8320   -6.3921 C   0  0  0  0  0
   -5.8013    1.1244   -7.6671 C   0  0  0  0  0
   -7.6460    0.6217   -6.1637 C   0  0  0  0  0
   -6.6976    1.2018   -8.7322 C   0  0  0  0  0
   -8.5332    0.6993   -7.2352 C   0  0  0  0  0
   -8.0603    0.9888   -8.5170 C   0  0  0  0  0
   -3.0991    0.2434   -4.6903 C   0  0  1  0  0
   -1.4753   -1.3168   -3.4490 C   0  0  1  0  0
   -5.3442    0.7651   -5.2574 C   0  0  0  0  0
    1.7598    0.5116   -2.4645 C   0  0  0  0  0
    2.6190    0.6641   -1.2430 C   0  0  0  0  0
   -2.5717   -1.2114   -4.6188 C   0  0  0  0  0
   -0.5614   -0.0652   -3.4201 C   0  0  0  0  0
   -2.0585   -1.4390   -2.0345 C   0  0  0  0  0
   -1.9836    1.2352   -5.0229 C   0  0  0  0  0
   -0.6000   -2.5871   -3.6689 C   0  0  0  0  0
    0.3847   -0.0212   -2.2988 C   0  0  0  0  0
    2.1107    0.1589    0.0594 C   0  0  0  0  0
   -0.0062   -0.4684   -1.0830 C   0  0  0  0  0
   -0.7843    1.0410   -4.1543 C   0  0  0  0  0
   -1.3592   -1.0300   -0.9593 C   0  0  0  0  0
    0.8769   -0.3692    0.0699 C   0  0  0  0  0
    3.0375    0.2619    1.2466 C   0  0  0  0  0
   -3.7778   -2.1674   -4.3881 C   0  0  0  0  0
   -1.9834   -1.6101   -5.9990 C   0  0  0  0  0
    2.2785    0.5543    2.5449 C   0  0  0  0  0
    3.9109   -0.9863    1.4015 C   0  0  0  0  0
   -4.7421    1.2920   -7.8393 H   0  0  0  0  0
   -8.0189    0.3989   -5.1681 H   0  0  0  0  0
   -6.3348    1.4289   -9.7297 H   0  0  0  0  0
   -9.5943    0.5354   -7.0731 H   0  0  0  0  0
   -8.7559    1.0498   -9.3496 H   0  0  0  0  0
   -3.5503    0.5127   -3.7149 H   0  0  0  0  0
   -3.0160   -1.9206   -1.8717 H   0  0  0  0  0
   -1.6973    1.1786   -6.0792 H   0  0  0  0  0
   -2.3614    2.2556   -4.8791 H   0  0  0  0  0
    0.0648   -2.7971   -2.8226 H   0  0  0  0  0
   -1.2169   -3.4819   -3.8022 H   0  0  0  0  0
    0.0485   -2.4853   -4.5462 H   0  0  0  0  0
   -0.1522    1.9178   -4.0354 H   0  0  0  0  0
   -1.7687   -1.1637    0.0368 H   0  0  0  0  0
    0.4672   -0.7546    1.0003 H   0  0  0  0  0
    3.7190    1.1081    1.0808 H   0  0  0  0  0
   -4.4108   -1.8366   -3.5586 H   0  0  0  0  0
   -3.4493   -3.1909   -4.1818 H   0  0  0  0  0
   -4.4229   -2.2111   -5.2731 H   0  0  0  0  0
   -2.6774   -1.3825   -6.8154 H   0  0  0  0  0
   -1.0444   -1.0909   -6.2132 H   0  0  0  0  0
   -1.7842   -2.6863   -6.0560 H   0  0  0  0  0
    1.6234   -0.2763    2.8301 H   0  0  0  0  0
    2.9787    0.7232    3.3699 H   0  0  0  0  0
    1.6618    1.4530    2.4446 H   0  0  0  0  0
    4.4681   -1.1928    0.4814 H   0  0  0  0  0
    4.6390   -0.8467    2.2065 H   0  0  0  0  0
    3.3150   -1.8730    1.6434 H   0  0  0  0  0
  1 11  1  0  0  0
  1 13  1  0  0  0
  2 13  2  0  0  0
  3 14  2  0  0  0
  4 15  2  0  0  0
  5  6  2  0  0  0
  5  7  1  0  0  0
  5 13  1  0  0  0
  6  8  1  0  0  0
  6 32  1  0  0  0
  7  9  2  0  0  0
  7 33  1  0  0  0
  8 10  2  0  0  0
  8 34  1  0  0  0
  9 10  1  0  0  0
  9 35  1  0  0  0
 10 36  1  0  0  0
 11 16  1  0  0  0
 11 19  1  0  0  0
 11 37  1  0  0  0
 12 16  1  0  0  0
 12 17  1  0  0  0
 12 18  1  0  0  0
 12 20  1  0  0  0
 14 15  1  0  0  0
 14 21  1  0  0  0
 15 22  1  0  0  0
 16 28  1  0  0  0
 16 29  1  0  0  0
 17 21  1  0  0  0
 17 24  2  0  0  0
 18 25  2  0  0  0
 18 38  1  0  0  0
 19 24  1  0  0  0
 19 39  1  0  0  0
 19 40  1  0  0  0
 20 41  1  0  0  0
 20 42  1  0  0  0
 20 43  1  0  0  0
 21 23  2  0  0  0
 22 26  2  0  0  0
 22 27  1  0  0  0
 23 25  1  0  0  0
 23 26  1  0  0  0
 24 44  1  0  0  0
 25 45  1  0  0  0
 26 46  1  0  0  0
 27 30  1  0  0  0
 27 31  1  0  0  0
 27 47  1  0  0  0
 28 48  1  0  0  0
 28 49  1  0  0  0
 28 50  1  0  0  0
 29 51  1  0  0  0
 29 52  1  0  0  0
 29 53  1  0  0  0
 30 54  1  0  0  0
 30 55  1  0  0  0
 30 56  1  0  0  0
 31 57  1  0  0  0
 31 58  1  0  0  0
 31 59  1  0  0  0
M  END
> <Tumorigenic>
none

> <Score>
34.73387

> <Active/Decoy>
active

> <InChI>
InChI=1S/C27H28O4/c1-16(2)19-15-18-13-14-27(5)20(22(18)24(29)23(19)28)11-12-21(26(27,3)4)31-25(30)17-9-7-6-8-10-17/h6-11,13-16,21H,12H2,1-5H3/t21-,27-/m1/s1

> <Matching Features>
H:14924486185440016873||HBA:14924321692640012300|HBA:14924486112070016868

> <Mol. Index>
492

> <Pharmacophore Match>
Model -1

> <# Confs.>
25

> <Source Database>
Pharm-Screening-input-EANPDB_After_DataWarror.ldb

> <Pharmacophore-Fit Score>
34.73

> <formula>
C27H28O4

> <Mutagenic>
none

> <Reproductive Effective>
none

> <Irritant>
none

$$$$
tricoccin S13 acetate
XX    ILIB03122411353D

 72 76  0  0  1  0              1 V2000
   -2.3611   -0.4502    1.3829 O   0  0  0  0  0
   -2.3193   -0.7189    3.6853 O   0  0  0  0  0
   -6.5641    1.0424   -4.4158 O   0  0  0  0  0
    4.5748    1.3964   -1.6107 O   0  0  0  0  0
    3.5304    0.4069    0.1268 O   0  0  0  0  0
   -7.3340   -0.2613   -2.6940 O   0  0  0  0  0
   -1.1894   -1.2513    1.2763 C   0  0  1  0  0
   -1.1962   -2.0148   -0.1091 C   0  0  2  0  0
    0.9311   -0.5964   -0.9043 C   0  0  2  0  0
   -0.5897   -1.0270   -1.1597 C   0  0  1  0  0
   -4.5915   -2.6083   -1.8792 C   0  0  2  0  0
   -3.0204   -2.6450   -1.9747 C   0  0  2  0  0
    1.2538   -0.5588    0.6344 C   0  0  1  0  0
   -5.3231   -1.2827   -2.0781 C   0  0  2  0  0
   -2.8157   -0.2661    2.6628 C   0  0  0  0  0
   -6.3958    0.1498   -3.5995 C   0  0  0  0  0
    3.5328    1.1064   -1.0309 C   0  0  0  0  0
    2.4477    0.3607    1.1025 C   0  0  0  0  0
   -6.8305   -1.3841   -1.9605 C   0  0  0  0  0
   -2.6125   -2.4652   -0.5199 C   0  0  0  0  0
   -0.0114   -0.2844    1.4640 C   0  0  0  0  0
    1.1236    0.7828   -1.5326 C   0  0  0  0  0
   -0.8650   -1.4545   -2.6222 C   0  0  0  0  0
   -4.8711   -3.1591   -0.4612 C   0  0  0  0  0
   -2.3691   -1.5884   -2.8759 C   0  0  0  0  0
   -5.1568   -0.6827   -3.4626 C   0  0  0  0  0
   -0.4075   -3.3413    0.0469 C   0  0  0  0  0
    1.8925   -1.5877   -1.6197 C   0  0  0  0  0
   -2.6238   -4.0577   -2.4787 C   0  0  0  0  0
    2.2419    1.5140   -1.5908 C   0  0  0  0  0
   -3.6335   -2.7979    0.2884 C   0  0  0  0  0
   -4.0467    0.5889    2.6365 C   0  0  0  0  0
    2.0717    1.7926    1.5362 C   0  0  0  0  0
    3.1223   -0.2985    2.3305 C   0  0  0  0  0
   -1.1865   -2.0020    2.0870 H   0  0  0  0  0
   -1.1842   -0.1059   -1.0336 H   0  0  0  0  0
   -5.0273   -3.3061   -2.6080 H   0  0  0  0  0
    1.5758   -1.5723    0.8927 H   0  0  0  0  0
   -4.9686   -0.5467   -1.3425 H   0  0  0  0  0
   -7.1668   -1.3125   -0.9223 H   0  0  0  0  0
   -7.2389   -2.2985   -2.4061 H   0  0  0  0  0
    0.2323   -0.2774    2.5335 H   0  0  0  0  0
   -0.3584    0.7340    1.2424 H   0  0  0  0  0
    0.2576    1.2274   -2.0217 H   0  0  0  0  0
   -0.3537   -2.3901   -2.8648 H   0  0  0  0  0
   -0.4749   -0.7001   -3.3150 H   0  0  0  0  0
   -4.9968   -4.2477   -0.4710 H   0  0  0  0  0
   -5.7598   -2.7156   -0.0039 H   0  0  0  0  0
   -2.8014   -0.5973   -2.7146 H   0  0  0  0  0
   -2.5390   -1.8327   -3.9311 H   0  0  0  0  0
   -5.1520   -1.4404   -4.2529 H   0  0  0  0  0
   -4.2635   -0.0577   -3.5245 H   0  0  0  0  0
    0.5438   -3.2246    0.5644 H   0  0  0  0  0
   -0.1971   -3.8117   -0.9160 H   0  0  0  0  0
   -0.9693   -4.0725    0.6426 H   0  0  0  0  0
    1.8566   -1.4747   -2.7096 H   0  0  0  0  0
    1.6554   -2.6287   -1.3946 H   0  0  0  0  0
    2.9370   -1.4576   -1.3268 H   0  0  0  0  0
   -2.9877   -4.8496   -1.8156 H   0  0  0  0  0
   -3.0495   -4.2417   -3.4722 H   0  0  0  0  0
   -1.5440   -4.1912   -2.5711 H   0  0  0  0  0
    2.2357    2.4538   -2.1360 H   0  0  0  0  0
   -3.5876   -2.8232    1.3672 H   0  0  0  0  0
   -4.3538    0.8133    3.6619 H   0  0  0  0  0
   -3.8337    1.5324    2.1278 H   0  0  0  0  0
   -4.8559    0.0546    2.1342 H   0  0  0  0  0
    1.5104    1.7993    2.4776 H   0  0  0  0  0
    1.4609    2.3125    0.7954 H   0  0  0  0  0
    2.9718    2.4007    1.6814 H   0  0  0  0  0
    3.5153   -1.2899    2.0743 H   0  0  0  0  0
    2.4362   -0.4045    3.1759 H   0  0  0  0  0
    3.9854    0.2910    2.6623 H   0  0  0  0  0
  1  7  1  0  0  0
  1 15  1  0  0  0
  2 15  2  0  0  0
  3 16  2  0  0  0
  4 17  2  0  0  0
  5 17  1  0  0  0
  5 18  1  0  0  0
  6 16  1  0  0  0
  6 19  1  0  0  0
  7  8  1  0  0  0
  7 21  1  0  0  0
  7 35  1  0  0  0
  8 10  1  0  0  0
  8 20  1  0  0  0
  8 27  1  0  0  0
  9 10  1  0  0  0
  9 13  1  0  0  0
  9 22  1  0  0  0
  9 28  1  0  0  0
 10 23  1  0  0  0
 10 36  1  0  0  0
 11 12  1  0  0  0
 11 14  1  0  0  0
 11 24  1  0  0  0
 11 37  1  0  0  0
 12 20  1  0  0  0
 12 25  1  0  0  0
 12 29  1  0  0  0
 13 18  1  0  0  0
 13 21  1  0  0  0
 13 38  1  0  0  0
 14 19  1  0  0  0
 14 26  1  0  0  0
 14 39  1  0  0  0
 15 32  1  0  0  0
 16 26  1  0  0  0
 17 30  1  0  0  0
 18 33  1  0  0  0
 18 34  1  0  0  0
 19 40  1  0  0  0
 19 41  1  0  0  0
 20 31  2  0  0  0
 21 42  1  0  0  0
 21 43  1  0  0  0
 22 30  2  0  0  0
 22 44  1  0  0  0
 23 25  1  0  0  0
 23 45  1  0  0  0
 23 46  1  0  0  0
 24 31  1  0  0  0
 24 47  1  0  0  0
 24 48  1  0  0  0
 25 49  1  0  0  0
 25 50  1  0  0  0
 26 51  1  0  0  0
 26 52  1  0  0  0
 27 53  1  0  0  0
 27 54  1  0  0  0
 27 55  1  0  0  0
 28 56  1  0  0  0
 28 57  1  0  0  0
 28 58  1  0  0  0
 29 59  1  0  0  0
 29 60  1  0  0  0
 29 61  1  0  0  0
 30 62  1  0  0  0
 31 63  1  0  0  0
 32 64  1  0  0  0
 32 65  1  0  0  0
 32 66  1  0  0  0
 33 67  1  0  0  0
 33 68  1  0  0  0
 33 69  1  0  0  0
 34 70  1  0  0  0
 34 71  1  0  0  0
 34 72  1  0  0  0
M  END
> <Tumorigenic>
none

> <Score>
34.734875

> <Active/Decoy>
active

> <InChI>
InChI=1S/C28H38O6/c1-16(29)33-22-14-21-25(2,3)34-23(30)10-12-27(21,5)20-9-11-26(4)18(17-13-24(31)32-15-17)7-8-19(26)28(20,22)6/h8,10,12,17-18,20-22H,7,9,11,13-15H2,1-6H3/t17-,18-,20+,21+,22+,26+,27+,28-/m0/s1

> <Matching Features>
H:14924486185440016873||HBA:14924321692640012300|HBA:14924486112070016868

> <Mol. Index>
436

> <Pharmacophore Match>
Model -1

> <# Confs.>
5

> <Source Database>
Pharm-Screening-input-EANPDB_After_DataWarror.ldb

> <Pharmacophore-Fit Score>
34.73

> <formula>
C28H38O6

> <Mutagenic>
none

> <Reproductive Effective>
none

> <Irritant>
none

$$$$
cinnamolide-3beta-acetate
XX    ILIB03122411353D

 45 47  0  0  1  0              1 V2000
    3.2854    0.2447   -0.5154 O   0  0  0  0  0
    4.7245    1.4958   -1.8202 O   0  0  0  0  0
   -4.7794    0.7392   -3.0264 O   0  0  0  0  0
   -3.4745    2.4991   -3.7474 O   0  0  0  0  0
    2.2091    1.1080   -0.8651 C   0  0  2  0  0
   -0.3270    2.2518   -1.6713 C   0  0  1  0  0
   -1.8159    2.4919   -2.0729 C   0  0  1  0  0
   -0.3152    1.4624   -0.3035 C   0  0  2  0  0
    4.4905    0.5564   -1.0720 C   0  0  0  0  0
   -3.7805    1.4274   -2.9551 C   0  0  0  0  0
   -2.1276    2.9439   -3.4875 C   0  0  0  0  0
    1.1454    1.1875    0.2740 C   0  0  0  0  0
    1.6152    0.5938   -2.1887 C   0  0  0  0  0
   -2.6715    1.2897   -2.0021 C   0  0  0  0  0
    0.4623    1.4422   -2.7366 C   0  0  0  0  0
   -1.1777    0.1521   -0.4068 C   0  0  0  0  0
    0.2845    3.6693   -1.5525 C   0  0  0  0  0
   -2.4171    0.2232   -1.2481 C   0  0  0  0  0
    5.5213   -0.4368   -0.6268 C   0  0  0  0  0
    1.1870   -0.0957    1.1519 C   0  0  0  0  0
    1.5455    2.3277    1.2371 C   0  0  0  0  0
    2.6175    2.1036   -1.0713 H   0  0  0  0  0
   -2.2570    3.2220   -1.3773 H   0  0  0  0  0
   -0.8396    2.0922    0.4306 H   0  0  0  0  0
   -2.0978    4.0334   -3.5766 H   0  0  0  0  0
   -1.4773    2.5158   -4.2564 H   0  0  0  0  0
    1.2821   -0.4425   -2.0539 H   0  0  0  0  0
    2.4008    0.5289   -2.9489 H   0  0  0  0  0
    0.8627    2.1290   -3.4938 H   0  0  0  0  0
   -0.2010    0.7630   -3.2859 H   0  0  0  0  0
   -0.5816   -0.6688   -0.8177 H   0  0  0  0  0
   -1.4833   -0.1467    0.6030 H   0  0  0  0  0
   -0.1589    4.2190   -0.7151 H   0  0  0  0  0
    0.0988    4.2552   -2.4604 H   0  0  0  0  0
    1.3656    3.6702   -1.4197 H   0  0  0  0  0
   -3.0708   -0.6439   -1.2693 H   0  0  0  0  0
    6.5044   -0.1271   -0.9920 H   0  0  0  0  0
    5.5566   -0.4722    0.4650 H   0  0  0  0  0
    5.2857   -1.4213   -1.0365 H   0  0  0  0  0
    1.0739   -1.0096    0.5604 H   0  0  0  0  0
    0.4039   -0.0768    1.9175 H   0  0  0  0  0
    2.1425   -0.1797    1.6883 H   0  0  0  0  0
    2.5435    2.1581    1.6568 H   0  0  0  0  0
    0.8445    2.3976    2.0766 H   0  0  0  0  0
    1.5669    3.3032    0.7495 H   0  0  0  0  0
  1  5  1  0  0  0
  1  9  1  0  0  0
  2  9  2  0  0  0
  3 10  2  0  0  0
  4 10  1  0  0  0
  4 11  1  0  0  0
  5 12  1  0  0  0
  5 13  1  0  0  0
  5 22  1  0  0  0
  6  7  1  0  0  0
  6  8  1  0  0  0
  6 15  1  0  0  0
  6 17  1  0  0  0
  7 11  1  0  0  0
  7 14  1  0  0  0
  7 23  1  0  0  0
  8 12  1  0  0  0
  8 16  1  0  0  0
  8 24  1  0  0  0
  9 19  1  0  0  0
 10 14  1  0  0  0
 11 25  1  0  0  0
 11 26  1  0  0  0
 12 20  1  0  0  0
 12 21  1  0  0  0
 13 15  1  0  0  0
 13 27  1  0  0  0
 13 28  1  0  0  0
 14 18  2  0  0  0
 15 29  1  0  0  0
 15 30  1  0  0  0
 16 18  1  0  0  0
 16 31  1  0  0  0
 16 32  1  0  0  0
 17 33  1  0  0  0
 17 34  1  0  0  0
 17 35  1  0  0  0
 18 36  1  0  0  0
 19 37  1  0  0  0
 19 38  1  0  0  0
 19 39  1  0  0  0
 20 40  1  0  0  0
 20 41  1  0  0  0
 20 42  1  0  0  0
 21 43  1  0  0  0
 21 44  1  0  0  0
 21 45  1  0  0  0
M  END
> <Tumorigenic>
none

> <Score>
34.719784

> <Active/Decoy>
active

> <InChI>
InChI=1S/C17H24O4/c1-10(18)21-14-7-8-17(4)12-9-20-15(19)11(12)5-6-13(17)16(14,2)3/h5,12-14H,6-9H2,1-4H3/t12-,13-,14-,17-/m0/s1

> <Matching Features>
H:14924486185440016873||HBA:14924321692640012300|HBA:14924486112070016868

> <Mol. Index>
128

> <Pharmacophore Match>
Model -1

> <# Confs.>
4

> <Source Database>
Pharm-Screening-input-EANPDB_After_DataWarror.ldb

> <Pharmacophore-Fit Score>
34.72

> <formula>
C17H24O4

> <Mutagenic>
none

> <Reproductive Effective>
none

> <Irritant>
none

$$$$
hellebrigenin 3,5-diacetate
XX    ILIB03122411353D

 72 76  0  0  1  0              1 V2000
    7.0543   -0.9035   -2.5741 O   0  0  0  0  0
    8.1223   -2.8473   -3.0722 O   0  0  0  0  0
   -3.1424    0.8478   -3.6579 O   0  0  0  0  0
   -0.6157    1.7421   -2.8687 O   0  0  0  0  0
    3.4990    1.2445   -1.5742 O   0  0  0  0  0
   -5.3985    1.0685   -4.0936 O   0  0  0  0  0
   -1.4310    3.8707   -3.2847 O   0  0  0  0  0
   -1.9156   -0.5810    0.9511 O   0  0  0  0  0
    7.4602   -2.1791   -2.2843 C   0  0  0  0  0
    6.2863   -0.1853   -1.6462 C   0  0  0  0  0
    5.9019   -0.6668   -0.4568 C   0  0  0  0  0
    7.0677   -2.7296   -0.9728 C   0  0  0  0  0
    6.3357   -2.0029   -0.1225 C   0  0  0  0  0
   -3.3678    0.7832   -2.2377 C   0  0  2  0  0
    3.0927    1.2715   -0.1947 C   0  0  2  0  0
   -1.0918    1.7824   -1.5191 C   0  0  2  0  0
    5.0806    0.0747    0.5642 C   0  0  2  0  0
    3.5189   -0.0534    0.4939 C   0  0  2  0  0
   -0.6860    0.3942   -0.8746 C   0  0  1  0  0
    1.5625    1.4553   -0.1638 C   0  0  2  0  0
    0.8737    0.2542   -0.9005 C   0  0  1  0  0
   -4.2334    0.9899   -4.4597 C   0  0  0  0  0
   -0.8515    2.8511   -3.6349 C   0  0  0  0  0
   -1.1451    0.2866    0.5516 C   0  0  0  0  0
   -2.6388    1.9301   -1.5163 C   0  0  0  0  0
   -2.9070   -0.5916   -1.7569 C   0  0  0  0  0
    3.9639    2.3072    0.5061 C   0  0  0  0  0
   -0.4104    2.9491   -0.7828 C   0  0  0  0  0
    5.3351    1.6119    0.6174 C   0  0  0  0  0
   -1.3808   -0.7448   -1.6844 C   0  0  0  0  0
    2.9266   -1.2295   -0.3008 C   0  0  0  0  0
    1.1097    2.7999   -0.7538 C   0  0  0  0  0
    1.3929   -1.1274   -0.4092 C   0  0  0  0  0
    3.0332   -0.1739    1.9726 C   0  0  0  0  0
   -3.8036    1.0158   -5.8960 C   0  0  0  0  0
   -0.3172    2.6253   -5.0176 C   0  0  0  0  0
    3.4686    2.1507   -1.9227 H   0  0  0  0  0
    6.0534    0.7926   -2.0448 H   0  0  0  0  0
    7.3930   -3.7312   -0.7225 H   0  0  0  0  0
    6.0603   -2.4171    0.8417 H   0  0  0  0  0
   -4.4462    0.8696   -2.0481 H   0  0  0  0  0
    5.4100   -0.3167    1.5394 H   0  0  0  0  0
    1.2379    1.4676    0.8820 H   0  0  0  0  0
    1.1798    0.3086   -1.9553 H   0  0  0  0  0
   -0.7477    1.0470    1.2467 H   0  0  0  0  0
   -2.9085    2.8762   -2.0004 H   0  0  0  0  0
   -3.0048    1.9886   -0.4839 H   0  0  0  0  0
   -3.3396   -0.7841   -0.7686 H   0  0  0  0  0
   -3.2992   -1.3673   -2.4266 H   0  0  0  0  0
    3.5791    2.5572    1.5001 H   0  0  0  0  0
    4.0630    3.2404   -0.0584 H   0  0  0  0  0
   -0.7836    3.0510    0.2413 H   0  0  0  0  0
   -0.6490    3.8992   -1.2763 H   0  0  0  0  0
    5.8217    1.8933    1.5587 H   0  0  0  0  0
    5.9937    1.9523   -0.1890 H   0  0  0  0  0
   -0.9751   -0.7822   -2.7029 H   0  0  0  0  0
   -1.1719   -1.7248   -1.2387 H   0  0  0  0  0
    3.1928   -2.1839    0.1698 H   0  0  0  0  0
    3.3338   -1.2660   -1.3172 H   0  0  0  0  0
    1.5362    3.6254   -0.1781 H   0  0  0  0  0
    1.4953    2.9151   -1.7817 H   0  0  0  0  0
    1.0605   -1.9085   -1.1019 H   0  0  0  0  0
    0.9520   -1.3793    0.5599 H   0  0  0  0  0
    3.3662   -1.1276    2.4004 H   0  0  0  0  0
    1.9459   -0.1446    2.0787 H   0  0  0  0  0
    3.4378    0.6186    2.6101 H   0  0  0  0  0
   -3.0009    1.7455   -6.0309 H   0  0  0  0  0
   -3.4709    0.0211   -6.1986 H   0  0  0  0  0
   -4.6470    1.3198   -6.5221 H   0  0  0  0  0
    0.7198    2.2840   -4.9605 H   0  0  0  0  0
   -0.9334    1.8925   -5.5438 H   0  0  0  0  0
   -0.3325    3.5691   -5.5705 H   0  0  0  0  0
  1  9  1  0  0  0
  1 10  1  0  0  0
  2  9  2  0  0  0
  3 14  1  0  0  0
  3 22  1  0  0  0
  4 16  1  0  0  0
  4 23  1  0  0  0
  5 15  1  0  0  0
  5 37  1  0  0  0
  6 22  2  0  0  0
  7 23  2  0  0  0
  8 24  2  0  0  0
  9 12  1  0  0  0
 10 11  2  0  0  0
 10 38  1  0  0  0
 11 13  1  0  0  0
 11 17  1  0  0  0
 12 13  2  0  0  0
 12 39  1  0  0  0
 13 40  1  0  0  0
 14 25  1  0  0  0
 14 26  1  0  0  0
 14 41  1  0  0  0
 15 18  1  0  0  0
 15 20  1  0  0  0
 15 27  1  0  0  0
 16 19  1  0  0  0
 16 25  1  0  0  0
 16 28  1  0  0  0
 17 18  1  0  0  0
 17 29  1  0  0  0
 17 42  1  0  0  0
 18 31  1  0  0  0
 18 34  1  0  0  0
 19 21  1  0  0  0
 19 24  1  0  0  0
 19 30  1  0  0  0
 20 21  1  0  0  0
 20 32  1  0  0  0
 20 43  1  0  0  0
 21 33  1  0  0  0
 21 44  1  0  0  0
 22 35  1  0  0  0
 23 36  1  0  0  0
 24 45  1  0  0  0
 25 46  1  0  0  0
 25 47  1  0  0  0
 26 30  1  0  0  0
 26 48  1  0  0  0
 26 49  1  0  0  0
 27 29  1  0  0  0
 27 50  1  0  0  0
 27 51  1  0  0  0
 28 32  1  0  0  0
 28 52  1  0  0  0
 28 53  1  0  0  0
 29 54  1  0  0  0
 29 55  1  0  0  0
 30 56  1  0  0  0
 30 57  1  0  0  0
 31 33  1  0  0  0
 31 58  1  0  0  0
 31 59  1  0  0  0
 32 60  1  0  0  0
 32 61  1  0  0  0
 33 62  1  0  0  0
 33 63  1  0  0  0
 34 64  1  0  0  0
 34 65  1  0  0  0
 34 66  1  0  0  0
 35 67  1  0  0  0
 35 68  1  0  0  0
 35 69  1  0  0  0
 36 70  1  0  0  0
 36 71  1  0  0  0
 36 72  1  0  0  0
M  END
> <Tumorigenic>
none

> <Score>
34.712906

> <Active/Decoy>
active

> <InChI>
InChI=1S/C28H36O8/c1-17(30)35-20-6-11-26(16-29)22-7-10-25(3)21(19-4-5-24(32)34-15-19)9-13-28(25,33)23(22)8-12-27(26,14-20)36-18(2)31/h4-5,15-16,20-23,33H,6-14H2,1-3H3/t20-,21+,22+,23-,25-,26+,27-,28-/m0/s1

> <Matching Features>
H:14924486185440016873||HBA:14924321692640012300|HBA:14924486112070016868

> <Mol. Index>
511

> <Pharmacophore Match>
Model -1

> <# Confs.>
5

> <Source Database>
Pharm-Screening-input-EANPDB_After_DataWarror.ldb

> <Pharmacophore-Fit Score>
34.71

> <formula>
C28H36O8

> <Mutagenic>
none

> <Reproductive Effective>
none

> <Irritant>
none

$$$$
kihadalactone A
XX    ILIB03122411353D

 77 81  0  0  1  0              1 V2000
    1.7426    7.4009    2.4568 O   0  0  0  0  0
   -3.3542    1.7771   -0.0336 O   0  0  0  0  0
    2.2804    2.2700   -1.0787 O   0  0  0  0  0
   -3.9843    3.9984   -0.0153 O   0  0  0  0  0
    4.1883    1.5601   -2.1676 O   0  0  0  0  0
   -4.3599    0.8263   -3.1133 O   0  0  0  0  0
   -2.3483   -0.1417   -2.8709 O   0  0  0  0  0
    1.9751    6.4038    3.3476 C   0  0  0  0  0
    1.8186    6.8450    1.2211 C   0  0  0  0  0
    2.2017    5.2045    2.7040 C   0  0  0  0  0
    2.0970    5.5021    1.3136 C   0  0  0  0  0
   -2.1890    2.0614   -0.8152 C   0  0  1  0  0
    2.0658    0.9722   -0.4937 C   0  0  1  0  0
    2.4871    3.8889    3.3300 C   0  0  1  0  0
   -1.0052    1.0316   -0.4562 C   0  0  2  0  0
    1.3473    1.1295    0.8804 C   0  0  2  0  0
   -0.0665    1.7623    0.6075 C   0  0  2  0  0
    1.4659    2.7367    3.0138 C   0  0  2  0  0
   -0.1744    0.7098   -1.7708 C   0  0  2  0  0
   -4.1526    2.8285    0.3007 C   0  0  0  0  0
    3.3661    2.4215   -1.8851 C   0  0  0  0  0
   -3.1748    0.9163   -2.8049 C   0  0  0  0  0
   -0.8904   -0.1390   -2.9048 C   0  0  0  0  0
    2.1308    2.0546    1.8257 C   0  0  0  0  0
    1.2396    0.1420   -1.4815 C   0  0  0  0  0
   -2.5921    2.1848   -2.2784 C   0  0  0  0  0
    3.8411    3.3204    2.8601 C   0  0  0  0  0
   -0.7750    2.1391    1.9372 C   0  0  0  0  0
    0.0335    3.1971    2.6964 C   0  0  0  0  0
   -1.6062   -0.2677    0.1384 C   0  0  0  0  0
    1.3050   -0.2483    1.5862 C   0  0  0  0  0
    1.4293    1.7909    4.2405 C   0  0  0  0  0
    3.4358    2.3717    1.7788 C   0  0  0  0  0
   -5.2982    2.3438    1.1376 C   0  0  0  0  0
    3.4334    3.8358   -2.3797 C   0  0  0  0  0
   -0.4620    0.3505   -4.3037 C   0  0  0  0  0
   -0.5616   -1.6478   -2.8504 C   0  0  0  0  0
    1.9452    6.6946    4.3879 H   0  0  0  0  0
    1.6544    7.5189    0.3932 H   0  0  0  0  0
    2.2127    4.8185    0.4861 H   0  0  0  0  0
   -1.8304    3.0689   -0.5395 H   0  0  0  0  0
    3.0363    0.4758   -0.3515 H   0  0  0  0  0
    2.5426    4.0635    4.4140 H   0  0  0  0  0
    0.1547    2.7331    0.1325 H   0  0  0  0  0
    0.0273    1.6956   -2.2125 H   0  0  0  0  0
    1.7913    0.0961   -2.4285 H   0  0  0  0  0
    1.1755   -0.8865   -1.1202 H   0  0  0  0  0
   -3.3810    2.9438   -2.3658 H   0  0  0  0  0
   -1.7910    2.5442   -2.9253 H   0  0  0  0  0
    4.5246    4.0887    2.4865 H   0  0  0  0  0
    4.3447    2.7669    3.6608 H   0  0  0  0  0
   -1.7599    2.5718    1.7512 H   0  0  0  0  0
   -0.9453    1.2634    2.5676 H   0  0  0  0  0
   -0.4928    3.4688    3.6204 H   0  0  0  0  0
    0.0253    4.0968    2.0728 H   0  0  0  0  0
   -0.8726   -1.0697    0.2145 H   0  0  0  0  0
   -2.0156   -0.1060    1.1395 H   0  0  0  0  0
   -2.4295   -0.6599   -0.4658 H   0  0  0  0  0
    0.5608   -0.2939    2.3835 H   0  0  0  0  0
    2.2773   -0.4926    2.0355 H   0  0  0  0  0
    1.0853   -1.0782    0.9153 H   0  0  0  0  0
    0.7081    0.9782    4.1247 H   0  0  0  0  0
    1.1380    2.3406    5.1422 H   0  0  0  0  0
    2.4052    1.3337    4.4367 H   0  0  0  0  0
    4.1466    1.9872    1.0621 H   0  0  0  0  0
   -5.7792    1.4896    0.6540 H   0  0  0  0  0
   -4.9388    2.0690    2.1321 H   0  0  0  0  0
   -6.0413    3.1408    1.2332 H   0  0  0  0  0
    2.4678    4.1292   -2.8007 H   0  0  0  0  0
    3.7101    4.4998   -1.5584 H   0  0  0  0  0
    4.1843    3.9086   -3.1708 H   0  0  0  0  0
   -0.9818   -0.2111   -5.0891 H   0  0  0  0  0
    0.6154    0.2424   -4.4607 H   0  0  0  0  0
   -0.7214    1.4008   -4.4637 H   0  0  0  0  0
   -1.1591   -2.1987   -3.5867 H   0  0  0  0  0
    0.4902   -1.8598   -3.0645 H   0  0  0  0  0
   -0.8178   -2.0792   -1.8785 H   0  0  0  0  0
  1  8  1  0  0  0
  1  9  1  0  0  0
  2 12  1  0  0  0
  2 20  1  0  0  0
  3 13  1  0  0  0
  3 21  1  0  0  0
  4 20  2  0  0  0
  5 21  2  0  0  0
  6 22  2  0  0  0
  7 22  1  0  0  0
  7 23  1  0  0  0
  8 10  2  0  0  0
  8 38  1  0  0  0
  9 11  2  0  0  0
  9 39  1  0  0  0
 10 11  1  0  0  0
 10 14  1  0  0  0
 11 40  1  0  0  0
 12 15  1  0  0  0
 12 26  1  0  0  0
 12 41  1  0  0  0
 13 16  1  0  0  0
 13 25  1  0  0  0
 13 42  1  0  0  0
 14 18  1  0  0  0
 14 27  1  0  0  0
 14 43  1  0  0  0
 15 17  1  0  0  0
 15 19  1  0  0  0
 15 30  1  0  0  0
 16 17  1  0  0  0
 16 24  1  0  0  0
 16 31  1  0  0  0
 17 28  1  0  0  0
 17 44  1  0  0  0
 18 24  1  0  0  0
 18 29  1  0  0  0
 18 32  1  0  0  0
 19 23  1  0  0  0
 19 25  1  0  0  0
 19 45  1  0  0  0
 20 34  1  0  0  0
 21 35  1  0  0  0
 22 26  1  0  0  0
 23 36  1  0  0  0
 23 37  1  0  0  0
 24 33  2  0  0  0
 25 46  1  0  0  0
 25 47  1  0  0  0
 26 48  1  0  0  0
 26 49  1  0  0  0
 27 33  1  0  0  0
 27 50  1  0  0  0
 27 51  1  0  0  0
 28 29  1  0  0  0
 28 52  1  0  0  0
 28 53  1  0  0  0
 29 54  1  0  0  0
 29 55  1  0  0  0
 30 56  1  0  0  0
 30 57  1  0  0  0
 30 58  1  0  0  0
 31 59  1  0  0  0
 31 60  1  0  0  0
 31 61  1  0  0  0
 32 62  1  0  0  0
 32 63  1  0  0  0
 32 64  1  0  0  0
 33 65  1  0  0  0
 34 66  1  0  0  0
 34 67  1  0  0  0
 34 68  1  0  0  0
 35 69  1  0  0  0
 35 70  1  0  0  0
 35 71  1  0  0  0
 36 72  1  0  0  0
 36 73  1  0  0  0
 36 74  1  0  0  0
 37 75  1  0  0  0
 37 76  1  0  0  0
 37 77  1  0  0  0
M  END
> <Tumorigenic>
none

> <Score>
34.68034

> <Active/Decoy>
active

> <InChI>
InChI=1S/C30H40O7/c1-17(31)35-24-14-23-27(3,4)37-26(33)15-25(36-18(2)32)30(23,7)22-10-12-28(5)20(19-11-13-34-16-19)8-9-21(28)29(22,24)6/h9,11,13,16,20,22-25H,8,10,12,14-15H2,1-7H3/t20-,22-,23-,24+,25+,28+,29-,30+/m0/s1

> <Matching Features>
H:14924486185440016873||HBA:14924321692640012300|HBA:14924486112070016868

> <Mol. Index>
430

> <Pharmacophore Match>
Model -1

> <# Confs.>
3

> <Source Database>
Pharm-Screening-input-EANPDB_After_DataWarror.ldb

> <Pharmacophore-Fit Score>
34.68

> <formula>
C30H40O7

> <Mutagenic>
none

> <Reproductive Effective>
none

> <Irritant>
none

$$$$
matairesinol
XX    ILIB03122411353D

 48 50  0  0  1  0              1 V2000
   -5.0003    0.9015   -3.5241 O   0  0  0  0  0
    3.8074    1.1779   -1.2971 O   0  0  0  0  0
   -2.6199    0.9026   -4.8210 O   0  0  0  0  0
    4.7396   -1.0390   -0.0475 O   0  0  0  0  0
   -4.7784    0.7629    1.3059 O   0  0  0  0  0
   -3.0172   -0.6388    1.6975 O   0  0  0  0  0
   -3.9129    1.3563   -2.8342 C   0  0  0  0  0
    3.1020    0.7241   -0.2190 C   0  0  0  0  0
   -2.6982    1.3476   -3.5279 C   0  0  0  0  0
    3.6065   -0.4198    0.4086 C   0  0  0  0  0
   -2.7490    2.2586   -0.8915 C   0  0  0  0  0
    1.2812    0.7591    1.4011 C   0  0  0  0  0
   -3.9301    1.8166   -1.5126 C   0  0  0  0  0
    1.9361    1.3109    0.2864 C   0  0  0  0  0
   -1.5217    1.7936   -2.9289 C   0  0  0  0  0
    2.9748   -0.9713    1.5205 C   0  0  0  0  0
   -1.5490    2.2503   -1.6133 C   0  0  0  0  0
    1.8149   -0.3802    2.0170 C   0  0  0  0  0
   -2.5220    1.6657    1.5592 C   0  0  2  0  0
   -1.2352    0.8406    1.3266 C   0  0  2  0  0
   -3.5839    0.5874    1.4879 C   0  0  0  0  0
   -1.6251   -0.4780    1.9692 C   0  0  0  0  0
   -6.2297    0.9166   -2.8030 C   0  0  0  0  0
    3.2800    2.3442   -1.9237 C   0  0  0  0  0
   -2.7795    2.7585    0.5240 C   0  0  0  0  0
    0.0365    1.3892    1.9520 C   0  0  0  0  0
   -3.5090    0.6174   -5.0946 H   0  0  0  0  0
    5.0562   -0.5515   -0.8262 H   0  0  0  0  0
   -4.8528    1.8403   -0.9378 H   0  0  0  0  0
    1.5100    2.2006   -0.1703 H   0  0  0  0  0
   -0.5848    1.7886   -3.4787 H   0  0  0  0  0
    3.3780   -1.8554    2.0033 H   0  0  0  0  0
   -0.6274    2.5981   -1.1537 H   0  0  0  0  0
    1.3285   -0.8143    2.8863 H   0  0  0  0  0
   -2.5520    2.0673    2.5805 H   0  0  0  0  0
   -1.1093    0.6644    0.2538 H   0  0  0  0  0
   -1.4797   -0.4894    3.0551 H   0  0  0  0  0
   -1.0712   -1.3134    1.5297 H   0  0  0  0  0
   -7.0118    0.5396   -3.4704 H   0  0  0  0  0
   -6.1849    0.2546   -1.9319 H   0  0  0  0  0
   -6.5026    1.9372   -2.5095 H   0  0  0  0  0
    3.9412    2.6007   -2.7573 H   0  0  0  0  0
    2.2819    2.1555   -2.3329 H   0  0  0  0  0
    3.2684    3.1941   -1.2322 H   0  0  0  0  0
   -3.7429    3.2437    0.7292 H   0  0  0  0  0
   -2.0206    3.5444    0.6316 H   0  0  0  0  0
    0.0786    2.4873    1.7906 H   0  0  0  0  0
    0.0117    1.2512    3.0290 H   0  0  0  0  0
  1  7  1  0  0  0
  1 23  1  0  0  0
  2  8  1  0  0  0
  2 24  1  0  0  0
  3  9  1  0  0  0
  3 27  1  0  0  0
  4 10  1  0  0  0
  4 28  1  0  0  0
  5 21  2  0  0  0
  6 21  1  0  0  0
  6 22  1  0  0  0
  7  9  2  0  0  0
  7 13  1  0  0  0
  8 10  2  0  0  0
  8 14  1  0  0  0
  9 15  1  0  0  0
 10 16  1  0  0  0
 11 13  2  0  0  0
 11 17  1  0  0  0
 11 25  1  0  0  0
 12 14  2  0  0  0
 12 18  1  0  0  0
 12 26  1  0  0  0
 13 29  1  0  0  0
 14 30  1  0  0  0
 15 17  2  0  0  0
 15 31  1  0  0  0
 16 18  2  0  0  0
 16 32  1  0  0  0
 17 33  1  0  0  0
 18 34  1  0  0  0
 19 20  1  0  0  0
 19 21  1  0  0  0
 19 25  1  0  0  0
 19 35  1  0  0  0
 20 22  1  0  0  0
 20 26  1  0  0  0
 20 36  1  0  0  0
 22 37  1  0  0  0
 22 38  1  0  0  0
 23 39  1  0  0  0
 23 40  1  0  0  0
 23 41  1  0  0  0
 24 42  1  0  0  0
 24 43  1  0  0  0
 24 44  1  0  0  0
 25 45  1  0  0  0
 25 46  1  0  0  0
 26 47  1  0  0  0
 26 48  1  0  0  0
M  END
> <Tumorigenic>
none

> <Score>
34.674164

> <Active/Decoy>
active

> <InChI>
InChI=1S/C20H22O6/c1-24-18-9-12(3-5-16(18)21)7-14-11-26-20(23)15(14)8-13-4-6-17(22)19(10-13)25-2/h3-6,9-10,14-15,21-22H,7-8,11H2,1-2H3/t14-,15+/m0/s1

> <Matching Features>
H:14924486185440016873||HBA:14924321692640012300|HBA:14924486112070016868

> <Mol. Index>
456

> <Pharmacophore Match>
Model -1

> <# Confs.>
25

> <Source Database>
Pharm-Screening-input-EANPDB_After_DataWarror.ldb

> <Pharmacophore-Fit Score>
34.67

> <formula>
C20H22O6

> <Mutagenic>
none

> <Reproductive Effective>
none

> <Irritant>
none

$$$$
azadironolide
XX    ILIB03122411353D

 70 74  0  0  1  0              1 V2000
   -5.1602    0.0650   -3.5230 O   0  0  0  0  0
   -5.7345    2.3257   -3.8786 O   0  0  0  0  0
   -1.1337    3.1579    0.3942 O   0  0  0  0  0
   -5.5355   -1.6596   -2.0526 O   0  0  0  0  0
   -1.2020    5.1681    1.5280 O   0  0  0  0  0
    4.0243    1.9139   -2.0576 O   0  0  0  0  0
   -4.7477    1.4278   -3.4020 C   0  0  1  0  0
   -0.7106    2.4414    1.5593 C   0  0  1  0  0
   -1.2294    0.9748    1.5224 C   0  0  2  0  0
    1.1167    0.2496    0.4811 C   0  0  2  0  0
   -0.4620    0.2206    0.3788 C   0  0  1  0  0
   -3.4112   -0.3629    0.7314 C   0  0  2  0  0
    1.6665    1.7173    0.6666 C   0  0  2  0  0
   -4.7798    0.1893    0.1815 C   0  0  2  0  0
   -5.2126   -0.5083   -2.2846 C   0  0  0  0  0
   -1.3528    4.4964    0.5168 C   0  0  0  0  0
    3.0256    1.5369   -1.4530 C   0  0  0  0  0
   -4.5677    1.6105   -1.9504 C   0  0  0  0  0
   -2.7473    0.9077    1.2467 C   0  0  0  0  0
    0.8222    2.5508    1.6673 C   0  0  0  0  0
   -4.8168    0.4906   -1.2742 C   0  0  0  0  0
    1.7456   -0.4169   -0.7391 C   0  0  0  0  0
    2.1152    2.4655   -0.6482 C   0  0  0  0  0
   -1.0681   -1.1895    0.1321 C   0  0  0  0  0
   -2.5318   -1.0775   -0.3047 C   0  0  0  0  0
   -5.0451    1.4311    1.0586 C   0  0  0  0  0
   -1.0560    0.3602    2.9373 C   0  0  0  0  0
    1.6440   -0.6147    1.6594 C   0  0  0  0  0
   -3.7240   -1.3321    1.8975 C   0  0  0  0  0
    2.6182    0.1216   -1.5917 C   0  0  0  0  0
   -3.6699    1.8648    1.4428 C   0  0  0  0  0
   -1.8224    5.0512   -0.7945 C   0  0  0  0  0
    2.9479    3.7232   -0.2970 C   0  0  0  0  0
    1.0068    2.9051   -1.6125 C   0  0  0  0  0
   -5.5737    2.4493   -4.8291 H   0  0  0  0  0
   -3.8099    1.5789   -3.9453 H   0  0  0  0  0
   -1.1318    2.9446    2.4582 H   0  0  0  0  0
   -0.6943    0.7704   -0.5436 H   0  0  0  0  0
    2.6280    1.5894    1.1936 H   0  0  0  0  0
   -5.5876   -0.5313    0.3721 H   0  0  0  0  0
   -4.2585    2.5457   -1.5043 H   0  0  0  0  0
    1.1200    2.2430    2.6769 H   0  0  0  0  0
    1.1041    3.6057    1.6122 H   0  0  0  0  0
    1.5289   -1.4715   -0.8939 H   0  0  0  0  0
   -0.5463   -1.7064   -0.6776 H   0  0  0  0  0
   -0.9753   -1.8302    1.0128 H   0  0  0  0  0
   -2.5287   -0.5462   -1.2624 H   0  0  0  0  0
   -2.9292   -2.0795   -0.5144 H   0  0  0  0  0
   -5.5909    2.2247    0.5409 H   0  0  0  0  0
   -5.6114    1.1686    1.9599 H   0  0  0  0  0
   -1.8931    0.6215    3.5976 H   0  0  0  0  0
   -0.1696    0.7274    3.4563 H   0  0  0  0  0
   -0.9892   -0.7295    2.9188 H   0  0  0  0  0
    1.1843   -1.6079    1.6847 H   0  0  0  0  0
    2.7286   -0.7737    1.5771 H   0  0  0  0  0
    1.4972   -0.1453    2.6312 H   0  0  0  0  0
   -4.3536   -2.1598    1.5489 H   0  0  0  0  0
   -2.8254   -1.7815    2.3258 H   0  0  0  0  0
   -4.2593   -0.8352    2.7140 H   0  0  0  0  0
    3.0643   -0.4643   -2.3883 H   0  0  0  0  0
   -3.4771    2.8417    1.8602 H   0  0  0  0  0
   -1.1542    4.7292   -1.5974 H   0  0  0  0  0
   -2.8448    4.7198   -0.9908 H   0  0  0  0  0
   -1.8016    6.1441   -0.7552 H   0  0  0  0  0
    3.3806    4.1808   -1.1944 H   0  0  0  0  0
    3.7796    3.4748    0.3709 H   0  0  0  0  0
    2.3442    4.4994    0.1819 H   0  0  0  0  0
    0.4751    3.7841   -1.2451 H   0  0  0  0  0
    0.2874    2.1117   -1.8202 H   0  0  0  0  0
    1.4286    3.1934   -2.5837 H   0  0  0  0  0
  1  7  1  0  0  0
  1 15  1  0  0  0
  2  7  1  0  0  0
  2 35  1  0  0  0
  3  8  1  0  0  0
  3 16  1  0  0  0
  4 15  2  0  0  0
  5 16  2  0  0  0
  6 17  2  0  0  0
  7 18  1  0  0  0
  7 36  1  0  0  0
  8  9  1  0  0  0
  8 20  1  0  0  0
  8 37  1  0  0  0
  9 11  1  0  0  0
  9 19  1  0  0  0
  9 27  1  0  0  0
 10 11  1  0  0  0
 10 13  1  0  0  0
 10 22  1  0  0  0
 10 28  1  0  0  0
 11 24  1  0  0  0
 11 38  1  0  0  0
 12 14  1  0  0  0
 12 19  1  0  0  0
 12 25  1  0  0  0
 12 29  1  0  0  0
 13 20  1  0  0  0
 13 23  1  0  0  0
 13 39  1  0  0  0
 14 21  1  0  0  0
 14 26  1  0  0  0
 14 40  1  0  0  0
 15 21  1  0  0  0
 16 32  1  0  0  0
 17 23  1  0  0  0
 17 30  1  0  0  0
 18 21  2  0  0  0
 18 41  1  0  0  0
 19 31  2  0  0  0
 20 42  1  0  0  0
 20 43  1  0  0  0
 22 30  2  0  0  0
 22 44  1  0  0  0
 23 33  1  0  0  0
 23 34  1  0  0  0
 24 25  1  0  0  0
 24 45  1  0  0  0
 24 46  1  0  0  0
 25 47  1  0  0  0
 25 48  1  0  0  0
 26 31  1  0  0  0
 26 49  1  0  0  0
 26 50  1  0  0  0
 27 51  1  0  0  0
 27 52  1  0  0  0
 27 53  1  0  0  0
 28 54  1  0  0  0
 28 55  1  0  0  0
 28 56  1  0  0  0
 29 57  1  0  0  0
 29 58  1  0  0  0
 29 59  1  0  0  0
 30 60  1  0  0  0
 31 61  1  0  0  0
 32 62  1  0  0  0
 32 63  1  0  0  0
 32 64  1  0  0  0
 33 65  1  0  0  0
 33 66  1  0  0  0
 33 67  1  0  0  0
 34 68  1  0  0  0
 34 69  1  0  0  0
 34 70  1  0  0  0
M  END
> <Tumorigenic>
none

> <Score>
34.6675

> <Active/Decoy>
active

> <InChI>
InChI=1S/C28H36O6/c1-15(29)33-22-14-20-25(2,3)21(30)10-12-27(20,5)19-9-11-26(4)17(7-8-18(26)28(19,22)6)16-13-23(31)34-24(16)32/h8,10,12-13,17,19-20,22-23,31H,7,9,11,14H2,1-6H3/t17-,19+,20+,22+,23+,26+,27+,28-/m0/s1

> <Matching Features>
H:14924486185440016873||HBA:14924321692640012300|HBA:14924486112070016868

> <Mol. Index>
369

> <Pharmacophore Match>
Model -1

> <# Confs.>
4

> <Source Database>
Pharm-Screening-input-EANPDB_After_DataWarror.ldb

> <Pharmacophore-Fit Score>
34.67

> <formula>
C28H36O6

> <Mutagenic>
none

> <Reproductive Effective>
none

> <Irritant>
none

$$$$
ekeberin C3
XX    ILIB03122411353D

 69 73  0  0  1  0              1 V2000
    2.4039   -1.8903    3.3138 O   0  0  0  0  0
    3.5657    0.6185   -0.3175 O   0  0  0  0  0
   -5.3973   -1.4224   -4.6163 O   0  0  0  0  0
   -5.7750    1.0394   -2.3818 O   0  0  0  0  0
    4.6805    1.8241   -1.8464 O   0  0  0  0  0
   -7.2981   -0.1150   -4.6859 O   0  0  0  0  0
   -2.6887    2.5130   -3.5919 O   0  0  0  0  0
   -1.3872   -0.0451   -6.8978 O   0  0  0  0  0
   -5.3984   -1.1838   -1.8956 O   0  0  0  0  0
    2.1009   -1.8228    1.9916 C   0  0  0  0  0
    3.0714   -0.7491    3.6195 C   0  0  0  0  0
    2.5671   -0.6487    1.4341 C   0  0  0  0  0
    3.2014    0.0454    2.5062 C   0  0  0  0  0
   -1.1935    1.0818   -4.8081 C   0  0  2  0  0
    2.4311   -0.2100    0.0231 C   0  0  1  0  0
   -4.6324   -0.3699   -3.9913 C   0  0  2  0  0
   -3.1918   -0.8523   -3.7540 C   0  0  2  0  0
   -2.5024    0.2283   -2.8565 C   0  0  1  0  0
    1.0928    0.5067   -0.3093 C   0  0  1  0  0
   -1.1997   -0.2237   -2.1416 C   0  0  1  0  0
   -5.3275   -0.0643   -2.6676 C   0  0  0  0  0
    3.6364    1.2825   -1.4876 C   0  0  0  0  0
   -6.7010   -1.1585   -4.9101 C   0  0  0  0  0
   -2.1916    1.4023   -3.7413 C   0  0  0  0  0
   -1.6698   -0.0574   -5.6963 C   0  0  0  0  0
   -6.0636   -1.0210   -0.6384 C   0  0  0  0  0
    0.1494    0.7505   -4.1456 C   0  0  0  0  0
    1.1171    0.7546   -1.8168 C   0  0  0  0  0
    0.0906    0.4347   -2.6491 C   0  0  0  0  0
   -2.3878   -1.2534   -5.0512 C   0  0  0  0  0
   -0.0966   -0.3956    0.1022 C   0  0  0  0  0
   -1.3755   -0.0202   -0.6267 C   0  0  0  0  0
    0.9623    1.8739    0.4052 C   0  0  0  0  0
    2.3891    1.3835   -2.3362 C   0  0  0  0  0
   -7.3267   -2.3628   -5.5458 C   0  0  0  0  0
   -3.2834   -1.9191   -6.1310 C   0  0  0  0  0
   -1.3151   -2.3279   -4.7376 C   0  0  0  0  0
    1.5582   -2.6694    1.5975 H   0  0  0  0  0
    3.3855   -0.6503    4.6489 H   0  0  0  0  0
    3.6893    1.0094    2.4636 H   0  0  0  0  0
   -1.0890    1.9639   -5.4521 H   0  0  0  0  0
    2.5239   -1.1114   -0.6018 H   0  0  0  0  0
   -4.6527    0.5348   -4.5898 H   0  0  0  0  0
   -3.2881   -1.7585   -3.1234 H   0  0  0  0  0
   -3.2198    0.5710   -2.1000 H   0  0  0  0  0
   -1.0863   -1.3045   -2.2712 H   0  0  0  0  0
   -7.1078   -0.7357   -0.7990 H   0  0  0  0  0
   -6.0388   -1.9789   -0.1129 H   0  0  0  0  0
   -5.5466   -0.2738   -0.0285 H   0  0  0  0  0
    0.6488   -0.0759   -4.6645 H   0  0  0  0  0
    0.7841    1.6315   -4.3072 H   0  0  0  0  0
   -0.2712   -0.3385    1.1831 H   0  0  0  0  0
    0.1285   -1.4479   -0.1188 H   0  0  0  0  0
   -1.6566    1.0155   -0.3991 H   0  0  0  0  0
   -2.1940   -0.6550   -0.2642 H   0  0  0  0  0
    0.8106    1.7504    1.4814 H   0  0  0  0  0
    0.1085    2.4455    0.0231 H   0  0  0  0  0
    1.8461    2.5040    0.2733 H   0  0  0  0  0
    2.2019    2.4547   -2.4773 H   0  0  0  0  0
    2.6607    0.9351   -3.2891 H   0  0  0  0  0
   -6.7027   -2.7162   -6.3706 H   0  0  0  0  0
   -7.4551   -3.1490   -4.7980 H   0  0  0  0  0
   -8.3043   -2.0910   -5.9528 H   0  0  0  0  0
   -2.6855   -2.2833   -6.9762 H   0  0  0  0  0
   -3.8191   -2.7863   -5.7309 H   0  0  0  0  0
   -4.0032   -1.2198   -6.5642 H   0  0  0  0  0
   -1.7527   -3.1879   -4.2194 H   0  0  0  0  0
   -0.4888   -1.9551   -4.1354 H   0  0  0  0  0
   -0.8517   -2.7009   -5.6588 H   0  0  0  0  0
  1 10  1  0  0  0
  1 11  1  0  0  0
  2 15  1  0  0  0
  2 22  1  0  0  0
  3 16  1  0  0  0
  3 23  1  0  0  0
  4 21  2  0  0  0
  5 22  2  0  0  0
  6 23  2  0  0  0
  7 24  2  0  0  0
  8 25  2  0  0  0
  9 21  1  0  0  0
  9 26  1  0  0  0
 10 12  2  0  0  0
 10 38  1  0  0  0
 11 13  2  0  0  0
 11 39  1  0  0  0
 12 13  1  0  0  0
 12 15  1  0  0  0
 13 40  1  0  0  0
 14 24  1  0  0  0
 14 25  1  0  0  0
 14 27  1  0  0  0
 14 41  1  0  0  0
 15 19  1  0  0  0
 15 42  1  0  0  0
 16 17  1  0  0  0
 16 21  1  0  0  0
 16 43  1  0  0  0
 17 18  1  0  0  0
 17 30  1  0  0  0
 17 44  1  0  0  0
 18 20  1  0  0  0
 18 24  1  0  0  0
 18 45  1  0  0  0
 19 28  1  0  0  0
 19 31  1  0  0  0
 19 33  1  0  0  0
 20 29  1  0  0  0
 20 32  1  0  0  0
 20 46  1  0  0  0
 22 34  1  0  0  0
 23 35  1  0  0  0
 25 30  1  0  0  0
 26 47  1  0  0  0
 26 48  1  0  0  0
 26 49  1  0  0  0
 27 29  1  0  0  0
 27 50  1  0  0  0
 27 51  1  0  0  0
 28 29  2  0  0  0
 28 34  1  0  0  0
 30 36  1  0  0  0
 30 37  1  0  0  0
 31 32  1  0  0  0
 31 52  1  0  0  0
 31 53  1  0  0  0
 32 54  1  0  0  0
 32 55  1  0  0  0
 33 56  1  0  0  0
 33 57  1  0  0  0
 33 58  1  0  0  0
 34 59  1  0  0  0
 34 60  1  0  0  0
 35 61  1  0  0  0
 35 62  1  0  0  0
 35 63  1  0  0  0
 36 64  1  0  0  0
 36 65  1  0  0  0
 36 66  1  0  0  0
 37 67  1  0  0  0
 37 68  1  0  0  0
 37 69  1  0  0  0
M  END
> <Tumorigenic>
none

> <Score>
34.65508

> <Active/Decoy>
active

> <InChI>
InChI=1S/C28H32O9/c1-13(29)36-23(26(33)34-5)21-20-15-6-8-28(4)18(11-19(30)37-25(28)14-7-9-35-12-14)16(15)10-17(22(20)31)24(32)27(21,2)3/h7,9,12,15,17,20-21,23,25H,6,8,10-11H2,1-5H3/t15-,17-,20-,21+,23-,25+,28-/m1/s1

> <Matching Features>
H:14924486185440016873||HBA:14924321692640012300|HBA:14924486112070016868

> <Mol. Index>
354

> <Pharmacophore Match>
Model -1

> <# Confs.>
25

> <Source Database>
Pharm-Screening-input-EANPDB_After_DataWarror.ldb

> <Pharmacophore-Fit Score>
34.66

> <formula>
C28H32O9

> <Mutagenic>
none

> <Reproductive Effective>
none

> <Irritant>
none

$$$$
3'-(3-methylbut-2-enyl)biochanin A
XX    ILIB03122411353D

 46 48  0  0  1  0              1 V2000
   -3.7820   -0.0641    0.2021 O   0  0  0  0  0
   -2.7534    1.0515   -3.5775 O   0  0  0  0  0
    3.4980    1.4865   -2.2064 O   0  0  0  0  0
   -5.2987    1.1333   -4.2294 O   0  0  0  0  0
   -8.3939   -0.1138   -0.8021 O   0  0  0  0  0
   -4.7559    0.1398   -0.7388 C   0  0  0  0  0
   -2.4829    0.1860   -0.1563 C   0  0  0  0  0
   -3.0619    0.7585   -2.4293 C   0  0  0  0  0
    2.1527    1.3151   -2.0398 C   0  0  0  0  0
   -5.5378    0.7326   -2.9425 C   0  0  0  0  0
   -7.1140    0.1090   -1.2317 C   0  0  0  0  0
   -4.4776    0.5477   -2.0460 C   0  0  0  0  0
   -2.0348    0.5752   -1.3625 C   0  0  0  0  0
   -0.6040    0.8225   -1.5846 C   0  0  0  0  0
    1.7566    0.3418   -1.0888 C   0  0  0  0  0
   -6.0737   -0.0826   -0.3278 C   0  0  0  0  0
   -6.8579    0.5158   -2.5379 C   0  0  0  0  0
    1.1753    2.0238   -2.7436 C   0  0  0  0  0
    0.3845    0.1222   -0.8750 C   0  0  0  0  0
   -0.1843    1.7801   -2.5171 C   0  0  0  0  0
    3.8731    2.4642   -3.1731 C   0  0  0  0  0
    2.7532   -0.4467   -0.3010 C   0  0  0  0  0
    2.9821   -0.2989    2.2319 C   0  0  0  0  0
    3.1237    0.1924    0.9943 C   0  0  0  0  0
    3.3786    0.5188    3.4312 C   0  0  0  0  0
    2.4404   -1.6613    2.5603 C   0  0  0  0  0
   -6.1466    1.2068   -4.7009 H   0  0  0  0  0
   -9.0023    0.0608   -1.5412 H   0  0  0  0  0
   -1.8496    0.0234    0.7070 H   0  0  0  0  0
   -6.2835   -0.4016    0.6894 H   0  0  0  0  0
   -7.6794    0.6624   -3.2352 H   0  0  0  0  0
    1.4322    2.7776   -3.4829 H   0  0  0  0  0
    0.0994   -0.6356   -0.1477 H   0  0  0  0  0
   -0.9047    2.3566   -3.0916 H   0  0  0  0  0
    4.9666    2.5047   -3.1981 H   0  0  0  0  0
    3.5254    2.1843   -4.1731 H   0  0  0  0  0
    3.5078    3.4581   -2.8922 H   0  0  0  0  0
    2.3618   -1.4581   -0.1477 H   0  0  0  0  0
    3.6675   -0.5811   -0.9125 H   0  0  0  0  0
    3.5499    1.1997    0.8890 H   0  0  0  0  0
    2.5188    0.6599    4.0944 H   0  0  0  0  0
    3.7508    1.5113    3.1562 H   0  0  0  0  0
    4.1701    0.0113    3.9911 H   0  0  0  0  0
    3.1462   -2.2013    3.1988 H   0  0  0  0  0
    1.4912   -1.5700    3.0991 H   0  0  0  0  0
    2.2673   -2.2855    1.6813 H   0  0  0  0  0
  1  6  1  0  0  0
  1  7  1  0  0  0
  2  8  2  0  0  0
  3  9  1  0  0  0
  3 21  1  0  0  0
  4 10  1  0  0  0
  4 27  1  0  0  0
  5 11  1  0  0  0
  5 28  1  0  0  0
  6 12  2  0  0  0
  6 16  1  0  0  0
  7 13  2  0  0  0
  7 29  1  0  0  0
  8 12  1  0  0  0
  8 13  1  0  0  0
  9 15  2  0  0  0
  9 18  1  0  0  0
 10 12  1  0  0  0
 10 17  2  0  0  0
 11 16  2  0  0  0
 11 17  1  0  0  0
 13 14  1  0  0  0
 14 19  2  0  0  0
 14 20  1  0  0  0
 15 19  1  0  0  0
 15 22  1  0  0  0
 16 30  1  0  0  0
 17 31  1  0  0  0
 18 20  2  0  0  0
 18 32  1  0  0  0
 19 33  1  0  0  0
 20 34  1  0  0  0
 21 35  1  0  0  0
 21 36  1  0  0  0
 21 37  1  0  0  0
 22 24  1  0  0  0
 22 38  1  0  0  0
 22 39  1  0  0  0
 23 24  2  0  0  0
 23 25  1  0  0  0
 23 26  1  0  0  0
 24 40  1  0  0  0
 25 41  1  0  0  0
 25 42  1  0  0  0
 25 43  1  0  0  0
 26 44  1  0  0  0
 26 45  1  0  0  0
 26 46  1  0  0  0
M  END
> <Tumorigenic>
none

> <Score>
34.634834

> <Active/Decoy>
active

> <InChI>
InChI=1S/C21H20O5/c1-12(2)4-5-14-8-13(6-7-18(14)25-3)16-11-26-19-10-15(22)9-17(23)20(19)21(16)24/h4,6-11,22-23H,5H2,1-3H3

> <Matching Features>
H:14924486185440016873||HBA:14924321692640012300|HBA:14924486112070016868

> <Mol. Index>
281

> <Pharmacophore Match>
Model -1

> <# Confs.>
25

> <Source Database>
Pharm-Screening-input-EANPDB_After_DataWarror.ldb

> <Pharmacophore-Fit Score>
34.63

> <formula>
C21H20O5

> <Mutagenic>
none

> <Reproductive Effective>
none

> <Irritant>
none

$$$$
macrophyllin
XX    ILIB03122411353D

 56 58  0  0  1  0              1 V2000
   -5.3321   -0.8277   -2.2376 O   0  0  0  0  0
   -3.2069   -1.7801   -1.0285 O   0  0  0  0  0
   -5.1686    1.6508   -3.7265 O   0  0  0  0  0
    3.3019    1.7362   -2.4467 O   0  0  0  0  0
   -0.1992    3.7670    0.5360 O   0  0  0  0  0
    2.0386    4.1517   -2.0014 O   0  0  0  0  0
   -4.1698   -0.1249   -2.3887 C   0  0  0  0  0
   -3.0303   -0.6303   -1.7453 C   0  0  0  0  0
   -4.0959    1.0782   -3.1043 C   0  0  0  0  0
   -1.7185    1.2274   -2.6499 C   0  0  0  0  0
   -1.8072    0.0382   -1.8915 C   0  0  0  0  0
   -2.8694    1.7290   -3.2549 C   0  0  0  0  0
    1.9452    1.7074   -2.0141 C   0  0  2  0  0
   -0.2742    2.5935   -0.2776 C   0  0  1  0  0
   -0.4037    1.9299   -2.8129 C   0  0  2  0  0
    0.9000    1.0516   -2.9561 C   0  0  1  0  0
   -0.0915    3.0137   -1.7488 C   0  0  2  0  0
    1.3949    3.1166   -1.9591 C   0  0  0  0  0
   -6.2619   -0.6862   -3.3232 C   0  0  0  0  0
   -2.0386   -2.2827   -0.3845 C   0  0  0  0  0
   -5.9130    2.5677   -2.9277 C   0  0  0  0  0
    3.8889    0.4426   -2.5228 C   0  0  0  0  0
    0.7688    1.6001    0.2152 C   0  0  0  0  0
    1.7810    1.2095   -0.5879 C   0  0  0  0  0
    1.3348    0.9859   -4.4248 C   0  0  0  0  0
    1.1106   -0.3717    1.6807 C   0  0  0  0  0
    2.0838   -0.8173    2.4865 C   0  0  0  0  0
    0.6008    1.0337    1.5855 C   0  0  0  0  0
   -0.9247    4.3559    0.2677 H   0  0  0  0  0
   -0.9088   -0.3329   -1.4052 H   0  0  0  0  0
   -2.8155    2.6372   -3.8509 H   0  0  0  0  0
   -1.2706    2.1683   -0.1219 H   0  0  0  0  0
   -0.5038    2.4783   -3.7779 H   0  0  0  0  0
    0.7225    0.0205   -2.6281 H   0  0  0  0  0
   -0.5836    3.9706   -1.9836 H   0  0  0  0  0
   -7.1401   -1.2932   -3.0845 H   0  0  0  0  0
   -6.5920    0.3520   -3.4350 H   0  0  0  0  0
   -5.8347   -1.0664   -4.2578 H   0  0  0  0  0
   -2.3227   -3.1893    0.1580 H   0  0  0  0  0
   -1.2681   -2.5500   -1.1099 H   0  0  0  0  0
   -1.6560   -1.5624    0.3524 H   0  0  0  0  0
   -6.7297    2.9561   -3.5419 H   0  0  0  0  0
   -6.3526    2.0680   -2.0583 H   0  0  0  0  0
   -5.2915    3.4175   -2.6214 H   0  0  0  0  0
    3.9421   -0.0224   -1.5344 H   0  0  0  0  0
    4.9062    0.5540   -2.9081 H   0  0  0  0  0
    3.3251   -0.1964   -3.2102 H   0  0  0  0  0
    2.4908    0.4714   -0.2229 H   0  0  0  0  0
    1.6362    1.9693   -4.7988 H   0  0  0  0  0
    0.5154    0.6207   -5.0532 H   0  0  0  0  0
    2.1740    0.2980   -4.5620 H   0  0  0  0  0
    0.6384   -1.1040    1.0278 H   0  0  0  0  0
    2.6103   -0.1678    3.1749 H   0  0  0  0  0
    2.3819   -1.8569    2.4657 H   0  0  0  0  0
   -0.4613    1.0439    1.8598 H   0  0  0  0  0
    1.1076    1.6741    2.3197 H   0  0  0  0  0
  1  7  1  0  0  0
  1 19  1  0  0  0
  2  8  1  0  0  0
  2 20  1  0  0  0
  3  9  1  0  0  0
  3 21  1  0  0  0
  4 13  1  0  0  0
  4 22  1  0  0  0
  5 14  1  0  0  0
  5 29  1  0  0  0
  6 18  2  0  0  0
  7  8  1  0  0  0
  7  9  2  0  0  0
  8 11  2  0  0  0
  9 12  1  0  0  0
 10 11  1  0  0  0
 10 12  2  0  0  0
 10 15  1  0  0  0
 11 30  1  0  0  0
 12 31  1  0  0  0
 13 16  1  0  0  0
 13 18  1  0  0  0
 13 24  1  0  0  0
 14 17  1  0  0  0
 14 23  1  0  0  0
 14 32  1  0  0  0
 15 16  1  0  0  0
 15 17  1  0  0  0
 15 33  1  0  0  0
 16 25  1  0  0  0
 16 34  1  0  0  0
 17 18  1  0  0  0
 17 35  1  0  0  0
 19 36  1  0  0  0
 19 37  1  0  0  0
 19 38  1  0  0  0
 20 39  1  0  0  0
 20 40  1  0  0  0
 20 41  1  0  0  0
 21 42  1  0  0  0
 21 43  1  0  0  0
 21 44  1  0  0  0
 22 45  1  0  0  0
 22 46  1  0  0  0
 22 47  1  0  0  0
 23 24  2  0  0  0
 23 28  1  0  0  0
 24 48  1  0  0  0
 25 49  1  0  0  0
 25 50  1  0  0  0
 25 51  1  0  0  0
 26 27  2  0  0  0
 26 28  1  0  0  0
 26 52  1  0  0  0
 27 53  1  0  0  0
 27 54  1  0  0  0
 28 55  1  0  0  0
 28 56  1  0  0  0
M  END
> <Tumorigenic>
none

> <Score>
34.620216

> <Active/Decoy>
active

> <InChI>
InChI=1S/C22H28O6/c1-7-8-13-11-22(28-6)12(2)17(18(19(13)23)21(22)24)14-9-15(25-3)20(27-5)16(10-14)26-4/h7,9-12,17-19,23H,1,8H2,2-6H3/t12-,17+,18+,19-,22-/m1/s1

> <Matching Features>
H:14924486185440016873||HBA:14924321692640012300|HBA:14924486112070016868

> <Mol. Index>
480

> <Pharmacophore Match>
Model -1

> <# Confs.>
25

> <Source Database>
Pharm-Screening-input-EANPDB_After_DataWarror.ldb

> <Pharmacophore-Fit Score>
34.62

> <formula>
C22H28O6

> <Mutagenic>
none

> <Reproductive Effective>
none

> <Irritant>
none

$$$$
isoknipholone anthrone
XX    ILIB03122411353D

 51 54  0  0  1  0              1 V2000
    1.5909    1.6646   -0.9975 O   0  0  0  0  0
    0.8274   -3.0598   -0.7926 O   0  0  0  0  0
    5.1249   -1.4103   -2.0360 O   0  0  0  0  0
   -4.1161    0.1888    0.9552 O   0  0  0  0  0
   -5.6604    0.8294   -3.8642 O   0  0  0  0  0
   -4.8699   -0.2111   -1.5881 O   0  0  0  0  0
    4.3713    1.8073   -2.8731 O   0  0  0  0  0
    2.0443    0.3834   -1.1362 C   0  0  0  0  0
    1.6450   -1.9905   -1.0637 C   0  0  0  0  0
    3.8255   -1.1608   -1.6919 C   0  0  0  0  0
   -2.8709   -0.0288    0.4303 C   0  0  0  0  0
   -4.3716    0.6231   -4.2750 C   0  0  0  0  0
    1.1505   -0.6922   -0.8856 C   0  0  0  0  0
   -0.2297   -0.4362   -0.4288 C   0  0  0  0  0
    3.3754    0.1528   -1.5378 C   0  0  0  0  0
   -2.6084   -0.1321   -0.9414 C   0  0  0  0  0
   -3.3914    0.2064   -3.3624 C   0  0  0  0  0
   -1.2856   -0.3224   -1.3869 C   0  0  0  0  0
   -0.5182   -0.3369    0.9443 C   0  0  0  0  0
   -2.0754    0.0245   -3.7938 C   0  0  0  0  0
    2.9635   -2.2318   -1.4599 C   0  0  0  0  0
   -1.8392   -0.1312    1.3592 C   0  0  0  0  0
   -4.0461    0.8480   -5.6148 C   0  0  0  0  0
   -1.7611    0.2430   -5.1455 C   0  0  0  0  0
   -2.7386    0.6558   -6.0477 C   0  0  0  0  0
   -3.7076   -0.0530   -1.9389 C   0  0  0  0  0
    4.2868    1.2965   -1.7587 C   0  0  0  0  0
    2.1999    2.6283   -1.8538 C   0  0  0  0  0
   -0.9900   -0.4621   -2.8693 C   0  0  0  0  0
    0.5571   -0.4597    1.9975 C   0  0  0  0  0
    5.1078    1.7976   -0.5973 C   0  0  0  0  0
    1.3200   -3.8820   -0.9558 H   0  0  0  0  0
    5.2616   -2.3724   -2.0806 H   0  0  0  0  0
   -4.7570    0.2993    0.2343 H   0  0  0  0  0
   -6.1930    1.1123   -4.6262 H   0  0  0  0  0
    3.3187   -3.2522   -1.5761 H   0  0  0  0  0
   -2.0682   -0.0462    2.4193 H   0  0  0  0  0
   -4.8020    1.1724   -6.3240 H   0  0  0  0  0
   -0.7454    0.0887   -5.5020 H   0  0  0  0  0
   -2.4807    0.8254   -7.0903 H   0  0  0  0  0
    1.7445    3.6000   -1.6378 H   0  0  0  0  0
    3.2737    2.7102   -1.6556 H   0  0  0  0  0
    2.0094    2.3958   -2.9077 H   0  0  0  0  0
   -0.8105   -1.5196   -3.0861 H   0  0  0  0  0
   -0.0920    0.1120   -3.1045 H   0  0  0  0  0
    1.0743   -1.4163    1.9138 H   0  0  0  0  0
    0.1285   -0.4119    3.0087 H   0  0  0  0  0
    1.2671    0.3638    1.9071 H   0  0  0  0  0
    4.4664    2.0231    0.2592 H   0  0  0  0  0
    5.8654    1.0582   -0.3278 H   0  0  0  0  0
    5.6105    2.7240   -0.8872 H   0  0  0  0  0
  1  8  1  0  0  0
  1 28  1  0  0  0
  2  9  1  0  0  0
  2 32  1  0  0  0
  3 10  1  0  0  0
  3 33  1  0  0  0
  4 11  1  0  0  0
  4 34  1  0  0  0
  5 12  1  0  0  0
  5 35  1  0  0  0
  6 26  2  0  0  0
  7 27  2  0  0  0
  8 13  2  0  0  0
  8 15  1  0  0  0
  9 13  1  0  0  0
  9 21  2  0  0  0
 10 15  2  0  0  0
 10 21  1  0  0  0
 11 16  2  0  0  0
 11 22  1  0  0  0
 12 17  2  0  0  0
 12 23  1  0  0  0
 13 14  1  0  0  0
 14 18  2  0  0  0
 14 19  1  0  0  0
 15 27  1  0  0  0
 16 18  1  0  0  0
 16 26  1  0  0  0
 17 20  1  0  0  0
 17 26  1  0  0  0
 18 29  1  0  0  0
 19 22  2  0  0  0
 19 30  1  0  0  0
 20 24  2  0  0  0
 20 29  1  0  0  0
 21 36  1  0  0  0
 22 37  1  0  0  0
 23 25  2  0  0  0
 23 38  1  0  0  0
 24 25  1  0  0  0
 24 39  1  0  0  0
 25 40  1  0  0  0
 27 31  1  0  0  0
 28 41  1  0  0  0
 28 42  1  0  0  0
 28 43  1  0  0  0
 29 44  1  0  0  0
 29 45  1  0  0  0
 30 46  1  0  0  0
 30 47  1  0  0  0
 30 48  1  0  0  0
 31 49  1  0  0  0
 31 50  1  0  0  0
 31 51  1  0  0  0
M  END
> <Tumorigenic>
none

> <Score>
34.60704

> <Active/Decoy>
active

> <InChI>
InChI=1S/C24H20O7/c1-10-7-15(27)21-13(8-12-5-4-6-14(26)20(12)23(21)30)18(10)22-17(29)9-16(28)19(11(2)25)24(22)31-3/h4-7,9,26-29H,8H2,1-3H3

> <Matching Features>
H:14924486185440016873||HBA:14924321692640012300|HBA:14924486112070016868

> <Mol. Index>
66

> <Pharmacophore Match>
Model -1

> <# Confs.>
9

> <Source Database>
Pharm-Screening-input-EANPDB_After_DataWarror.ldb

> <Pharmacophore-Fit Score>
34.61

> <formula>
C24H20O7

> <Mutagenic>
none

> <Reproductive Effective>
none

> <Irritant>
none

$$$$
beta-sorigenin-8-O-beta-D-glucoside
XX    ILIB03122411353D

 45 48  0  0  1  0              1 V2000
   -1.6506   -0.4847   -0.7635 O   0  0  0  0  0
    0.6753    0.4982   -1.6552 O   0  0  0  0  0
   -3.8038   -0.1975    0.2325 O   0  0  0  0  0
   -2.8347   -1.2930   -3.1323 O   0  0  0  0  0
   -4.4784    1.0215   -3.6626 O   0  0  0  0  0
   -4.3862    2.9807   -1.5343 O   0  0  0  0  0
    3.3381    1.4417   -2.1431 O   0  0  0  0  0
    4.6123    1.1725   -0.2372 O   0  0  0  0  0
   -4.0640    1.5063    2.4475 O   0  0  0  0  0
   -1.0735   -0.7278    0.4684 C   0  0  0  0  0
    1.1286    0.1947   -0.4013 C   0  0  0  0  0
    0.3037   -0.3718    0.6154 C   0  0  0  0  0
    0.9216   -0.6401    1.8792 C   0  0  0  0  0
    2.4514    0.5034   -0.1231 C   0  0  0  0  0
    3.0197    0.2415    1.0985 C   0  0  0  0  0
   -1.7788   -1.3218    1.5251 C   0  0  0  0  0
    2.2727   -0.3236    2.1102 C   0  0  0  0  0
    0.1810   -1.2150    2.9191 C   0  0  0  0  0
   -1.1519   -1.5643    2.7418 C   0  0  0  0  0
   -3.0146   -0.8900   -0.7419 C   0  0  1  0  0
   -3.6230   -0.6438   -2.1402 C   0  0  1  0  0
   -3.7397    0.8470   -2.4531 C   0  0  2  0  0
   -4.4563    1.5745   -1.3127 C   0  0  1  0  0
   -3.8426    1.2247    0.0481 C   0  0  1  0  0
    3.4653    1.1020   -0.9838 C   0  0  0  0  0
    4.4353    0.6546    1.1022 C   0  0  0  0  0
   -4.6568    1.8121    1.1935 C   0  0  0  0  0
   -0.2555    0.2404   -1.7354 H   0  0  0  0  0
   -1.9339   -0.9309   -3.0794 H   0  0  0  0  0
   -5.3661    0.6467   -3.5313 H   0  0  0  0  0
   -3.4492    3.2403   -1.5126 H   0  0  0  0  0
   -4.1004    0.5419    2.5651 H   0  0  0  0  0
   -2.8265   -1.5949    1.4384 H   0  0  0  0  0
    2.7388   -0.5276    3.0700 H   0  0  0  0  0
    0.6441   -1.4191    3.8833 H   0  0  0  0  0
   -1.7084   -2.0123    3.5601 H   0  0  0  0  0
   -3.0577   -1.9518   -0.5357 H   0  0  0  0  0
   -4.6220   -1.0941   -2.1814 H   0  0  0  0  0
   -2.7525    1.2863   -2.6388 H   0  0  0  0  0
   -5.5191    1.3020   -1.3252 H   0  0  0  0  0
   -2.8213    1.6192    0.1252 H   0  0  0  0  0
    4.6380    1.4543    1.8184 H   0  0  0  0  0
    5.1173   -0.1870    1.2456 H   0  0  0  0  0
   -4.7025    2.9015    1.1040 H   0  0  0  0  0
   -5.6915    1.4500    1.1904 H   0  0  0  0  0
  1 10  1  0  0  0
  1 20  1  0  0  0
  2 11  1  0  0  0
  2 28  1  0  0  0
  3 20  1  0  0  0
  3 24  1  0  0  0
  4 21  1  0  0  0
  4 29  1  0  0  0
  5 22  1  0  0  0
  5 30  1  0  0  0
  6 23  1  0  0  0
  6 31  1  0  0  0
  7 25  2  0  0  0
  8 25  1  0  0  0
  8 26  1  0  0  0
  9 27  1  0  0  0
  9 32  1  0  0  0
 10 12  2  0  0  0
 10 16  1  0  0  0
 11 12  1  0  0  0
 11 14  2  0  0  0
 12 13  1  0  0  0
 13 17  1  0  0  0
 13 18  2  0  0  0
 14 15  1  0  0  0
 14 25  1  0  0  0
 15 17  2  0  0  0
 15 26  1  0  0  0
 16 19  2  0  0  0
 16 33  1  0  0  0
 17 34  1  0  0  0
 18 19  1  0  0  0
 18 35  1  0  0  0
 19 36  1  0  0  0
 20 21  1  0  0  0
 20 37  1  0  0  0
 21 22  1  0  0  0
 21 38  1  0  0  0
 22 23  1  0  0  0
 22 39  1  0  0  0
 23 24  1  0  0  0
 23 40  1  0  0  0
 24 27  1  0  0  0
 24 41  1  0  0  0
 26 42  1  0  0  0
 26 43  1  0  0  0
 27 44  1  0  0  0
 27 45  1  0  0  0
M  END
> <Tumorigenic>
none

> <Score>
34.59699

> <Active/Decoy>
active

> <InChI>
InChI=1S/C18H18O9/c19-5-10-13(20)15(22)16(23)18(27-10)26-9-3-1-2-7-4-8-6-25-17(24)12(8)14(21)11(7)9/h1-4,10,13,15-16,18-23H,5-6H2/t10-,13-,15+,16-,18+/m1/s1

> <Matching Features>
H:14924486185440016873||HBA:14924321692640012300|HBA:14924486112070016868

> <Mol. Index>
394

> <Pharmacophore Match>
Model -1

> <# Confs.>
12

> <Source Database>
Pharm-Screening-input-EANPDB_After_DataWarror.ldb

> <Pharmacophore-Fit Score>
34.6

> <formula>
C18H18O9

> <Mutagenic>
none

> <Reproductive Effective>
none

> <Irritant>
none

$$$$
(+/-)-5-methoxy-7-phenyl-[4-methoxy-2-pyronyl]- 1-(E)-styryl-2-oxabicyclo-[4.2.0]-octa-4-en-3-one
XX    ILIB03122411353D

 58 62  0  0  1  0              1 V2000
   -2.7663    2.8167   -0.6965 O   0  0  0  0  0
   -4.7654    3.4356    0.1890 O   0  0  0  0  0
   -4.7319    1.0867   -3.9179 O   0  0  0  0  0
    0.4288    2.4239    0.6325 O   0  0  0  0  0
    1.7611    4.0987    1.3382 O   0  0  0  0  0
    3.3481    1.5171   -2.3365 O   0  0  0  0  0
   -4.1333    2.8863   -0.7071 C   0  0  0  0  0
   -2.0671    2.1781   -1.7502 C   0  0  0  0  0
   -4.1369    1.6497   -2.8124 C   0  0  0  0  0
    0.7147    1.6650   -3.9898 C   0  0  0  0  0
    1.0788   -0.5283    1.7535 C   0  0  0  0  0
   -4.8326    2.2670   -1.8513 C   0  0  0  0  0
   -2.7004    1.6226   -2.7868 C   0  0  0  0  0
    1.8863    1.1575   -4.5872 C   0  0  0  0  0
    0.0139    2.6414   -4.7269 C   0  0  0  0  0
    1.9937   -1.5897    1.6734 C   0  0  0  0  0
    1.4147    0.5860    2.5377 C   0  0  0  0  0
    2.3288    1.5940   -5.8403 C   0  0  0  0  0
    0.4499    3.0839   -5.9791 C   0  0  0  0  0
    3.2125   -1.5323    2.3555 C   0  0  0  0  0
    2.6346    0.6406    3.2183 C   0  0  0  0  0
    1.6094    2.5583   -6.5362 C   0  0  0  0  0
    3.5326   -0.4178    3.1253 C   0  0  0  0  0
    0.0719    1.4767   -0.4144 C   0  0  1  0  0
   -0.5999    2.1786   -1.6637 C   0  0  1  0  0
    0.2015    1.1930   -2.5706 C   0  0  2  0  0
    1.2102    1.0189   -1.3802 C   0  0  1  0  0
    1.5468    3.1829    0.5484 C   0  0  0  0  0
    2.4212    1.8770   -1.3850 C   0  0  0  0  0
   -4.9618    1.9795   -5.0018 C   0  0  0  0  0
    4.5407    2.2936   -2.3427 C   0  0  0  0  0
   -0.2094   -0.5347    1.0574 C   0  0  0  0  0
   -0.6783    0.3187    0.1328 C   0  0  0  0  0
    2.5393    2.8668   -0.4895 C   0  0  0  0  0
   -5.9150    2.3241   -1.8769 H   0  0  0  0  0
   -2.1665    1.1469   -3.6014 H   0  0  0  0  0
    2.4731    0.4055   -4.0662 H   0  0  0  0  0
   -0.8963    3.0688   -4.3107 H   0  0  0  0  0
    1.7794   -2.4753    1.0816 H   0  0  0  0  0
    0.7322    1.4276    2.6279 H   0  0  0  0  0
    3.2365    1.1795   -6.2671 H   0  0  0  0  0
   -0.1176    3.8386   -6.5143 H   0  0  0  0  0
    3.9116   -2.3603    2.2832 H   0  0  0  0  0
    2.8807    1.5123    3.8174 H   0  0  0  0  0
    1.9522    2.8991   -7.5080 H   0  0  0  0  0
    4.4797   -0.3751    3.6539 H   0  0  0  0  0
   -0.2391    3.2271   -1.7699 H   0  0  0  0  0
   -0.3606    0.2527   -2.7065 H   0  0  0  0  0
    1.5139   -0.0291   -1.2491 H   0  0  0  0  0
   -5.3644    1.3999   -5.8371 H   0  0  0  0  0
   -4.0287    2.4449   -5.3334 H   0  0  0  0  0
   -5.7019    2.7406   -4.7310 H   0  0  0  0  0
    5.2204    1.8630   -3.0848 H   0  0  0  0  0
    5.0389    2.2579   -1.3686 H   0  0  0  0  0
    4.3307    3.3276   -2.6359 H   0  0  0  0  0
   -0.8592   -1.3679    1.3249 H   0  0  0  0  0
   -1.6695    0.1289   -0.2736 H   0  0  0  0  0
    3.4221    3.4994   -0.4662 H   0  0  0  0  0
  1  7  1  0  0  0
  1  8  1  0  0  0
  2  7  2  0  0  0
  3  9  1  0  0  0
  3 30  1  0  0  0
  4 24  1  0  0  0
  4 28  1  0  0  0
  5 28  2  0  0  0
  6 29  1  0  0  0
  6 31  1  0  0  0
  7 12  1  0  0  0
  8 13  2  0  0  0
  8 25  1  0  0  0
  9 12  2  0  0  0
  9 13  1  0  0  0
 10 14  2  0  0  0
 10 15  1  0  0  0
 10 26  1  0  0  0
 11 16  2  0  0  0
 11 17  1  0  0  0
 11 32  1  0  0  0
 12 35  1  0  0  0
 13 36  1  0  0  0
 14 18  1  0  0  0
 14 37  1  0  0  0
 15 19  2  0  0  0
 15 38  1  0  0  0
 16 20  1  0  0  0
 16 39  1  0  0  0
 17 21  2  0  0  0
 17 40  1  0  0  0
 18 22  2  0  0  0
 18 41  1  0  0  0
 19 22  1  0  0  0
 19 42  1  0  0  0
 20 23  2  0  0  0
 20 43  1  0  0  0
 21 23  1  0  0  0
 21 44  1  0  0  0
 22 45  1  0  0  0
 23 46  1  0  0  0
 24 25  1  0  0  0
 24 27  1  0  0  0
 24 33  1  0  0  0
 25 26  1  0  0  0
 25 47  1  0  0  0
 26 27  1  0  0  0
 26 48  1  0  0  0
 27 29  1  0  0  0
 27 49  1  0  0  0
 28 34  1  0  0  0
 29 34  2  0  0  0
 30 50  1  0  0  0
 30 51  1  0  0  0
 30 52  1  0  0  0
 31 53  1  0  0  0
 31 54  1  0  0  0
 31 55  1  0  0  0
 32 33  2  0  0  0
 32 56  1  0  0  0
 33 57  1  0  0  0
 34 58  1  0  0  0
M  END
> <Tumorigenic>
none

> <Score>
34.594524

> <Active/Decoy>
active

> <InChI>
InChI=1S/C28H24O6/c1-31-20-15-22(33-23(29)16-20)27-25(19-11-7-4-8-12-19)26-21(32-2)17-24(30)34-28(26,27)14-13-18-9-5-3-6-10-18/h3-17,25-27H,1-2H3/b14-13+/t25-,26+,27+,28+/m0/s1

> <Matching Features>
H:14924486185440016873||HBA:14924321692640012300|HBA:14924486112070016868

> <Mol. Index>
10

> <Pharmacophore Match>
Model -1

> <# Confs.>
25

> <Source Database>
Pharm-Screening-input-EANPDB_After_DataWarror.ldb

> <Pharmacophore-Fit Score>
34.59

> <formula>
C28H24O6

> <Mutagenic>
none

> <Reproductive Effective>
none

> <Irritant>
none

$$$$
2-methyl-5-(4'(S)-hydroxy-1'(R),5'-dimethylhex-5'-enyl)-phenol
XX    ILIB03122411353D

 39 39  0  0  1  0              1 V2000
   -5.2837    0.8941   -3.5998 O   0  0  0  0  0
    3.9562    1.1269   -1.1141 O   0  0  0  0  0
   -4.3705    0.2579   -2.8012 C   0  0  0  0  0
   -2.0668   -0.3166   -2.3086 C   0  0  0  0  0
   -4.8247   -0.4529   -1.6849 C   0  0  0  0  0
   -3.0101    0.3275   -3.1106 C   0  0  0  0  0
   -2.5208   -1.0485   -1.1939 C   0  0  0  0  0
   -3.8824   -1.1127   -0.8890 C   0  0  0  0  0
   -0.5950   -0.2535   -2.6451 C   0  0  1  0  0
    2.5915    1.1028   -0.6822 C   0  0  2  0  0
   -6.2866   -0.5451   -1.3575 C   0  0  0  0  0
    0.2523    0.3692   -1.5317 C   0  0  0  0  0
   -0.0542   -1.6358   -3.0022 C   0  0  0  0  0
    2.4627    0.4036    0.6385 C   0  0  0  0  0
    1.7497    0.4781   -1.8124 C   0  0  0  0  0
    1.9811    0.9775    1.7538 C   0  0  0  0  0
    2.9371   -1.0251    0.6650 C   0  0  0  0  0
   -4.8102    1.3371   -4.3243 H   0  0  0  0  0
    4.1939    0.2402   -1.4120 H   0  0  0  0  0
   -2.6825    0.8898   -3.9823 H   0  0  0  0  0
   -1.8147   -1.5733   -0.5538 H   0  0  0  0  0
   -4.1999   -1.6850   -0.0203 H   0  0  0  0  0
   -0.4809    0.3846   -3.5405 H   0  0  0  0  0
    2.3017    2.1626   -0.5525 H   0  0  0  0  0
   -6.7439    0.4495   -1.3601 H   0  0  0  0  0
   -6.4475   -0.9739   -0.3628 H   0  0  0  0  0
   -6.7961   -1.1792   -2.0892 H   0  0  0  0  0
    0.1089   -0.2009   -0.6025 H   0  0  0  0  0
   -0.1283    1.3909   -1.3181 H   0  0  0  0  0
   -0.6278   -2.0849   -3.8198 H   0  0  0  0  0
   -0.0997   -2.3189   -2.1470 H   0  0  0  0  0
    0.9911   -1.5713   -3.3233 H   0  0  0  0  0
    1.9073    1.0751   -2.7245 H   0  0  0  0  0
    2.1531   -0.5140   -2.0058 H   0  0  0  0  0
    1.9188    0.4274    2.6868 H   0  0  0  0  0
    1.6313    2.0034    1.7699 H   0  0  0  0  0
    2.8245   -1.4817    1.6541 H   0  0  0  0  0
    3.9970   -1.0774    0.3954 H   0  0  0  0  0
    2.3671   -1.6326   -0.0447 H   0  0  0  0  0
  1  3  1  0  0  0
  1 18  1  0  0  0
  2 10  1  0  0  0
  2 19  1  0  0  0
  3  5  2  0  0  0
  3  6  1  0  0  0
  4  6  2  0  0  0
  4  7  1  0  0  0
  4  9  1  0  0  0
  5  8  1  0  0  0
  5 11  1  0  0  0
  6 20  1  0  0  0
  7  8  2  0  0  0
  7 21  1  0  0  0
  8 22  1  0  0  0
  9 12  1  0  0  0
  9 13  1  0  0  0
  9 23  1  0  0  0
 10 14  1  0  0  0
 10 15  1  0  0  0
 10 24  1  0  0  0
 11 25  1  0  0  0
 11 26  1  0  0  0
 11 27  1  0  0  0
 12 15  1  0  0  0
 12 28  1  0  0  0
 12 29  1  0  0  0
 13 30  1  0  0  0
 13 31  1  0  0  0
 13 32  1  0  0  0
 14 16  2  0  0  0
 14 17  1  0  0  0
 15 33  1  0  0  0
 15 34  1  0  0  0
 16 35  1  0  0  0
 16 36  1  0  0  0
 17 37  1  0  0  0
 17 38  1  0  0  0
 17 39  1  0  0  0
M  END
> <Tumorigenic>
none

> <Score>
34.583332

> <Active/Decoy>
active

> <InChI>
InChI=1S/C15H22O2/c1-10(2)14(16)8-6-11(3)13-7-5-12(4)15(17)9-13/h5,7,9,11,14,16-17H,1,6,8H2,2-4H3/t11-,14+/m1/s1

> <Matching Features>
H:14924486185440016873||HBA:14924321692640012300|HBA:14924486112070016868

> <Mol. Index>
110

> <Pharmacophore Match>
Model -1

> <# Confs.>
25

> <Source Database>
Pharm-Screening-input-EANPDB_After_DataWarror.ldb

> <Pharmacophore-Fit Score>
34.58

> <formula>
C15H22O2

> <Mutagenic>
none

> <Reproductive Effective>
none

> <Irritant>
none

$$$$
3-O-benzoylhosloppone
XX    ILIB03122411363D

 61 64  0  0  1  0              1 V2000
    3.3625    0.1636   -0.7742 O   0  0  0  0  0
    4.2601    1.4083   -2.4979 O   0  0  0  0  0
   -5.4177    1.0426   -2.5318 O   0  0  0  0  0
   -3.1656   -0.3587   -1.9697 O   0  0  0  0  0
    5.6141   -0.1058   -1.2675 C   0  0  0  0  0
    6.8271    0.5467   -1.4818 C   0  0  0  0  0
    5.5677   -1.4045   -0.7605 C   0  0  0  0  0
    8.0169   -0.1155   -1.1769 C   0  0  0  0  0
    6.7622   -2.0571   -0.4570 C   0  0  0  0  0
    7.9838   -1.4140   -0.6649 C   0  0  0  0  0
    2.0721    0.7598   -0.9978 C   0  0  2  0  0
   -0.9240    0.9002   -0.4326 C   0  0  2  0  0
    4.3529    0.5833   -1.6038 C   0  0  0  0  0
   -4.5816    1.6175   -1.8400 C   0  0  0  0  0
   -3.2743    0.9455   -1.5356 C   0  0  0  0  0
   -2.2905    1.5676   -0.8413 C   0  0  0  0  0
    0.1198    1.9181    0.1284 C   0  0  0  0  0
    1.6108    1.4945    0.2812 C   0  0  0  0  0
    1.1126   -0.3510   -1.4368 C   0  0  0  0  0
   -0.2915    0.1944   -1.6634 C   0  0  0  0  0
   -1.2790   -0.1261    0.6711 C   0  0  0  0  0
   -4.8424    2.9700   -1.2664 C   0  0  0  0  0
   -2.5578    2.9376   -0.3847 C   0  0  0  0  0
   -0.2717    3.1693    0.4320 C   0  0  0  0  0
   -3.8581    3.5592   -0.5745 C   0  0  0  0  0
   -1.6077    3.6486    0.2386 C   0  0  0  0  0
   -6.1874    3.6253   -1.4730 C   0  0  0  0  0
    2.5776    2.6951    0.4658 C   0  0  0  0  0
    1.8008    0.6230    1.5509 C   0  0  0  0  0
   -7.2109    3.1796   -0.4243 C   0  0  0  0  0
   -6.0811    5.1529   -1.5082 C   0  0  0  0  0
   -3.9993   -0.5949   -2.4141 H   0  0  0  0  0
    6.8597    1.5565   -1.8812 H   0  0  0  0  0
    4.6202   -1.9102   -0.5997 H   0  0  0  0  0
    8.9702    0.3789   -1.3386 H   0  0  0  0  0
    6.7426   -3.0675   -0.0592 H   0  0  0  0  0
    8.9126   -1.9266   -0.4283 H   0  0  0  0  0
    2.1546    1.4799   -1.8190 H   0  0  0  0  0
    1.4737   -0.8045   -2.3687 H   0  0  0  0  0
    1.1048   -1.1731   -0.7129 H   0  0  0  0  0
   -0.8944   -0.6580   -1.9867 H   0  0  0  0  0
   -0.2610    0.8937   -2.5107 H   0  0  0  0  0
   -2.1304   -0.7562    0.3917 H   0  0  0  0  0
   -0.4673   -0.8206    0.8848 H   0  0  0  0  0
   -1.5442    0.3754    1.6094 H   0  0  0  0  0
    0.4092    3.9129    0.8293 H   0  0  0  0  0
   -4.0203    4.5437   -0.1437 H   0  0  0  0  0
   -1.7958    4.6602    0.5896 H   0  0  0  0  0
   -6.5806    3.3123   -2.4514 H   0  0  0  0  0
    3.6253    2.3724    0.4827 H   0  0  0  0  0
    2.4774    3.4179   -0.3521 H   0  0  0  0  0
    2.4019    3.2187    1.4132 H   0  0  0  0  0
    2.8594    0.5502    1.8282 H   0  0  0  0  0
    1.2723    1.0534    2.4095 H   0  0  0  0  0
    1.4570   -0.4040    1.4228 H   0  0  0  0  0
   -6.9375    3.5169    0.5813 H   0  0  0  0  0
   -8.2011    3.5900   -0.6547 H   0  0  0  0  0
   -7.3009    2.0876   -0.4029 H   0  0  0  0  0
   -5.3629    5.4802   -2.2667 H   0  0  0  0  0
   -7.0513    5.5996   -1.7565 H   0  0  0  0  0
   -5.7672    5.5626   -0.5430 H   0  0  0  0  0
  1 11  1  0  0  0
  1 13  1  0  0  0
  2 13  2  0  0  0
  3 14  2  0  0  0
  4 15  1  0  0  0
  4 32  1  0  0  0
  5  6  2  0  0  0
  5  7  1  0  0  0
  5 13  1  0  0  0
  6  8  1  0  0  0
  6 33  1  0  0  0
  7  9  2  0  0  0
  7 34  1  0  0  0
  8 10  2  0  0  0
  8 35  1  0  0  0
  9 10  1  0  0  0
  9 36  1  0  0  0
 10 37  1  0  0  0
 11 18  1  0  0  0
 11 19  1  0  0  0
 11 38  1  0  0  0
 12 16  1  0  0  0
 12 17  1  0  0  0
 12 20  1  0  0  0
 12 21  1  0  0  0
 14 15  1  0  0  0
 14 22  1  0  0  0
 15 16  2  0  0  0
 16 23  1  0  0  0
 17 18  1  0  0  0
 17 24  2  0  0  0
 18 28  1  0  0  0
 18 29  1  0  0  0
 19 20  1  0  0  0
 19 39  1  0  0  0
 19 40  1  0  0  0
 20 41  1  0  0  0
 20 42  1  0  0  0
 21 43  1  0  0  0
 21 44  1  0  0  0
 21 45  1  0  0  0
 22 25  2  0  0  0
 22 27  1  0  0  0
 23 25  1  0  0  0
 23 26  2  0  0  0
 24 26  1  0  0  0
 24 46  1  0  0  0
 25 47  1  0  0  0
 26 48  1  0  0  0
 27 30  1  0  0  0
 27 31  1  0  0  0
 27 49  1  0  0  0
 28 50  1  0  0  0
 28 51  1  0  0  0
 28 52  1  0  0  0
 29 53  1  0  0  0
 29 54  1  0  0  0
 29 55  1  0  0  0
 30 56  1  0  0  0
 30 57  1  0  0  0
 30 58  1  0  0  0
 31 59  1  0  0  0
 31 60  1  0  0  0
 31 61  1  0  0  0
M  END
> <Tumorigenic>
none

> <Score>
34.566216

> <Active/Decoy>
active

> <InChI>
InChI=1S/C27H30O4/c1-16(2)19-15-18-11-12-20-26(3,4)21(31-25(30)17-9-7-6-8-10-17)13-14-27(20,5)22(18)24(29)23(19)28/h6-12,15-16,21,29H,13-14H2,1-5H3/t21-,27-/m0/s1

> <Matching Features>
H:14924486185440016873||HBA:14924321692640012300|HBA:14924486112070016868

> <Mol. Index>
490

> <Pharmacophore Match>
Model -1

> <# Confs.>
25

> <Source Database>
Pharm-Screening-input-EANPDB_After_DataWarror.ldb

> <Pharmacophore-Fit Score>
34.57

> <formula>
C27H30O4

> <Mutagenic>
none

> <Reproductive Effective>
none

> <Irritant>
none

$$$$
smirnovine
XX    ILIB03122411363D

 41 40  0  0  1  0              1 V2000
   -4.3997    0.8381   -3.1575 O   0  0  0  0  0
    3.9494    1.3955   -1.8176 N   0  0  0  0  0
   -2.3396    0.0203   -2.4839 N   0  0  0  0  0
    1.8491    2.2788   -2.6838 N   0  0  0  0  0
    3.5479    1.6955   -4.0614 N   0  0  0  0  0
   -3.7184    0.0684   -2.4842 C   0  0  0  0  0
    3.1374    1.7888   -2.7480 C   0  0  0  0  0
    3.5747    1.4954   -0.4192 C   0  0  0  0  0
   -1.5322    0.8996   -3.3023 C   0  0  0  0  0
    1.0409    2.6593   -3.8135 C   0  0  0  0  0
    1.9689    0.0054    0.9121 C   0  0  0  0  0
    2.9212    0.1972   -0.0216 C   0  0  0  0  0
   -1.1804    2.1915   -2.5778 C   0  0  0  0  0
   -0.3263    3.1714   -3.3668 C   0  0  0  0  0
   -4.3504   -0.9396   -1.5630 C   0  0  0  0  0
    1.4622   -1.3803    1.2095 C   0  0  0  0  0
    1.3181    1.0913    1.7209 C   0  0  0  0  0
   -1.8638   -0.6976   -1.9444 H   0  0  0  0  0
    1.4398    2.4373   -1.7669 H   0  0  0  0  0
    4.4702    1.3460   -4.2956 H   0  0  0  0  0
    2.9467    1.9764   -4.8282 H   0  0  0  0  0
    2.8859    2.3269   -0.2563 H   0  0  0  0  0
    4.4545    1.6367    0.2130 H   0  0  0  0  0
   -2.0625    1.1133   -4.2369 H   0  0  0  0  0
   -0.6161    0.3517   -3.5463 H   0  0  0  0  0
    0.9064    1.7805   -4.4530 H   0  0  0  0  0
    1.5672    3.4131   -4.4340 H   0  0  0  0  0
    3.3025   -0.6787   -0.5451 H   0  0  0  0  0
   -0.6533    1.9534   -1.6431 H   0  0  0  0  0
   -2.1067    2.7076   -2.2914 H   0  0  0  0  0
   -0.1679    4.0935   -2.7747 H   0  0  0  0  0
   -0.8723    3.4941   -4.2735 H   0  0  0  0  0
   -3.6067   -1.4844   -0.9760 H   0  0  0  0  0
   -4.9203   -1.6581   -2.1583 H   0  0  0  0  0
   -5.0233   -0.4212   -0.8758 H   0  0  0  0  0
    1.6176   -1.6221    2.2647 H   0  0  0  0  0
    1.9712   -2.1469    0.6161 H   0  0  0  0  0
    0.3912   -1.4479    0.9899 H   0  0  0  0  0
    0.2293    1.0318    1.6219 H   0  0  0  0  0
    1.5726    0.9767    2.7801 H   0  0  0  0  0
    1.6089    2.0980    1.4148 H   0  0  0  0  0
  1  6  2  0  0  0
  2  7  2  0  0  0
  2  8  1  0  0  0
  3  6  1  0  0  0
  3  9  1  0  0  0
  3 18  1  0  0  0
  4  7  1  0  0  0
  4 10  1  0  0  0
  4 19  1  0  0  0
  5  7  1  0  0  0
  5 20  1  0  0  0
  5 21  1  0  0  0
  6 15  1  0  0  0
  8 12  1  0  0  0
  8 22  1  0  0  0
  8 23  1  0  0  0
  9 13  1  0  0  0
  9 24  1  0  0  0
  9 25  1  0  0  0
 10 14  1  0  0  0
 10 26  1  0  0  0
 10 27  1  0  0  0
 11 12  2  0  0  0
 11 16  1  0  0  0
 11 17  1  0  0  0
 12 28  1  0  0  0
 13 14  1  0  0  0
 13 29  1  0  0  0
 13 30  1  0  0  0
 14 31  1  0  0  0
 14 32  1  0  0  0
 15 33  1  0  0  0
 15 34  1  0  0  0
 15 35  1  0  0  0
 16 36  1  0  0  0
 16 37  1  0  0  0
 16 38  1  0  0  0
 17 39  1  0  0  0
 17 40  1  0  0  0
 17 41  1  0  0  0
M  END
> <Tumorigenic>
none

> <Score>
34.530834

> <Active/Decoy>
active

> <InChI>
InChI=1S/C12H24N4O/c1-10(2)6-9-16-12(13)15-8-5-4-7-14-11(3)17/h6H,4-5,7-9H2,1-3H3,(H,14,17)(H3,13,15,16)

> <Matching Features>
H:14924486185440016873||HBA:14924321692640012300|HBA:14924486112070016868

> <Mol. Index>
333

> <Pharmacophore Match>
Model -1

> <# Confs.>
25

> <Source Database>
Pharm-Screening-input-EANPDB_After_DataWarror.ldb

> <Pharmacophore-Fit Score>
34.53

> <formula>
C12H24N4O

> <Mutagenic>
none

> <Reproductive Effective>
none

> <Irritant>
none

$$$$
baptifoline
XX    ILIB03122411363D

 39 42  0  0  1  0              1 V2000
    3.7756    1.2229   -1.4250 O   0  0  0  0  0
   -4.7222    0.8781   -3.3699 O   0  0  0  0  0
    1.6620    1.1494   -0.4207 N   0  0  0  0  0
   -1.0576   -0.1051   -1.5060 N   0  0  0  0  0
    3.0281    0.8279   -0.5313 C   0  0  0  0  0
    0.8775    0.6778    0.6369 C   0  0  0  0  0
    3.5917   -0.0475    0.5343 C   0  0  0  0  0
    1.4256   -0.0901    1.5950 C   0  0  0  0  0
    2.8112   -0.4577    1.5375 C   0  0  0  0  0
   -3.3521    0.5172   -3.2474 C   0  0  1  0  0
   -0.6006    1.0182    0.6740 C   0  0  2  0  0
   -1.1589    1.2036   -2.1771 C   0  0  2  0  0
   -0.4031    2.3152   -1.3961 C   0  0  2  0  0
    1.1192    2.0934   -1.4056 C   0  0  0  0  0
   -1.4172   -0.0523   -0.0827 C   0  0  0  0  0
   -1.7712   -1.1592   -2.2338 C   0  0  0  0  0
   -2.6209    1.6044   -2.4631 C   0  0  0  0  0
   -3.2309   -0.8264   -2.5362 C   0  0  0  0  0
   -0.8568    2.3897    0.0577 C   0  0  0  0  0
   -5.1682    0.1703   -3.8660 H   0  0  0  0  0
    4.6370   -0.3215    0.4753 H   0  0  0  0  0
    0.8374   -0.4761    2.4199 H   0  0  0  0  0
    3.2071   -1.0907    2.3241 H   0  0  0  0  0
   -2.9311    0.4476   -4.2572 H   0  0  0  0  0
   -0.9454    1.0422    1.7152 H   0  0  0  0  0
   -0.6618    1.1081   -3.1528 H   0  0  0  0  0
   -0.6034    3.2749   -1.8891 H   0  0  0  0  0
    1.4609    1.7928   -2.4039 H   0  0  0  0  0
    1.6131    3.0521   -1.1978 H   0  0  0  0  0
   -1.2288   -1.0315    0.3761 H   0  0  0  0  0
   -2.4856    0.1559    0.0516 H   0  0  0  0  0
   -1.7129   -2.1078   -1.6858 H   0  0  0  0  0
   -1.2462   -1.3377   -3.1808 H   0  0  0  0  0
   -2.6500    2.5403   -3.0353 H   0  0  0  0  0
   -3.1715    1.8130   -1.5379 H   0  0  0  0  0
   -3.6714   -1.6139   -3.1598 H   0  0  0  0  0
   -3.8255   -0.8182   -1.6137 H   0  0  0  0  0
   -0.3033    3.1693    0.5969 H   0  0  0  0  0
   -1.9172    2.6532    0.1304 H   0  0  0  0  0
  1  5  2  0  0  0
  2 10  1  0  0  0
  2 20  1  0  0  0
  3  5  1  0  0  0
  3  6  1  0  0  0
  3 14  1  0  0  0
  4 12  1  0  0  0
  4 15  1  0  0  0
  4 16  1  0  0  0
  5  7  1  0  0  0
  6  8  2  0  0  0
  6 11  1  0  0  0
  7  9  2  0  0  0
  7 21  1  0  0  0
  8  9  1  0  0  0
  8 22  1  0  0  0
  9 23  1  0  0  0
 10 17  1  0  0  0
 10 18  1  0  0  0
 10 24  1  0  0  0
 11 15  1  0  0  0
 11 19  1  0  0  0
 11 25  1  0  0  0
 12 13  1  0  0  0
 12 17  1  0  0  0
 12 26  1  0  0  0
 13 14  1  0  0  0
 13 19  1  0  0  0
 13 27  1  0  0  0
 14 28  1  0  0  0
 14 29  1  0  0  0
 15 30  1  0  0  0
 15 31  1  0  0  0
 16 18  1  0  0  0
 16 32  1  0  0  0
 16 33  1  0  0  0
 17 34  1  0  0  0
 17 35  1  0  0  0
 18 36  1  0  0  0
 18 37  1  0  0  0
 19 38  1  0  0  0
 19 39  1  0  0  0
M  END
> <Tumorigenic>
none

> <Score>
34.5246

> <Active/Decoy>
active

> <InChI>
InChI=1S/C15H20N2O2/c18-12-4-5-16-8-10-6-11(14(16)7-12)9-17-13(10)2-1-3-15(17)19/h1-3,10-12,14,18H,4-9H2/t10-,11-,12+,14-/m0/s1

> <Matching Features>
H:14924486185440016873||HBA:14924321692640012300|HBA:14924486112070016868

> <Mol. Index>
294

> <Pharmacophore Match>
Model -1

> <# Confs.>
3

> <Source Database>
Pharm-Screening-input-EANPDB_After_DataWarror.ldb

> <Pharmacophore-Fit Score>
34.52

> <formula>
C15H20N2O2

> <Mutagenic>
none

> <Reproductive Effective>
none

> <Irritant>
none

$$$$
sigmoidin F
XX    ILIB03122411363D

 57 60  0  0  1  0              1 V2000
   -2.2224    2.4388   -1.0820 O   0  0  0  0  0
    3.3935    0.2476    0.6733 O   0  0  0  0  0
    3.3561    0.9961   -1.9145 O   0  0  0  0  0
   -6.3944    1.3926   -3.3168 O   0  0  0  0  0
   -5.5681    5.7378   -1.4909 O   0  0  0  0  0
   -4.4996   -0.4115   -2.9428 O   0  0  0  0  0
   -3.4745    2.7511   -1.5449 C   0  0  0  0  0
    2.1754    0.4994    0.1062 C   0  0  0  0  0
    2.1653    0.8904   -1.2365 C   0  0  0  0  0
   -5.5661    2.2599   -2.6574 C   0  0  0  0  0
   -5.1715    4.4534   -1.7403 C   0  0  0  0  0
   -0.2524    1.0944   -1.2090 C   0  0  0  0  0
   -4.3069    1.8411   -2.2125 C   0  0  0  0  0
    0.9584    1.1758   -1.9330 C   0  0  0  0  0
    0.9769    0.4053    0.8030 C   0  0  0  0  0
   -3.9145    4.0525   -1.2924 C   0  0  0  0  0
   -5.9990    3.5685   -2.4267 C   0  0  0  0  0
   -0.2226    0.6977    0.1458 C   0  0  0  0  0
   -1.6106    1.3625   -1.8069 C   0  0  1  0  0
   -3.8276    0.4436   -2.3754 C   0  0  0  0  0
    3.4446   -0.3322    1.9931 C   0  0  0  0  0
    0.9800    0.0187    2.2038 C   0  0  0  0  0
    1.0325    1.5919   -3.3666 C   0  0  0  0  0
   -2.4946    0.1211   -1.7602 C   0  0  0  0  0
    0.7634    3.8491   -4.5474 C   0  0  0  0  0
    2.1422   -0.3304    2.7571 C   0  0  0  0  0
    1.1842    3.0813   -3.5308 C   0  0  0  0  0
    4.4840    0.4838    2.7703 C   0  0  0  0  0
    3.9391   -1.7739    1.8263 C   0  0  0  0  0
    0.9861    5.3375   -4.5234 C   0  0  0  0  0
    0.0528    3.3481   -5.7720 C   0  0  0  0  0
    4.0775    0.7702   -1.3019 H   0  0  0  0  0
   -7.2202    1.8534   -3.5414 H   0  0  0  0  0
   -6.4538    5.8667   -1.8723 H   0  0  0  0  0
   -3.2772    4.7536   -0.7598 H   0  0  0  0  0
   -6.9776    3.8921   -2.7723 H   0  0  0  0  0
   -1.1586    0.6227    0.6987 H   0  0  0  0  0
   -1.4709    1.6987   -2.8454 H   0  0  0  0  0
    0.0550    0.0055    2.7672 H   0  0  0  0  0
    1.8914    1.0978   -3.8454 H   0  0  0  0  0
    0.1485    1.2363   -3.8912 H   0  0  0  0  0
   -2.6809   -0.2129   -0.7326 H   0  0  0  0  0
   -2.0339   -0.6992   -2.3210 H   0  0  0  0  0
    2.1557   -0.6418    3.7996 H   0  0  0  0  0
    1.7112    3.5699   -2.7051 H   0  0  0  0  0
    4.1654    1.5279    2.8695 H   0  0  0  0  0
    5.4423    0.5036    2.2391 H   0  0  0  0  0
    4.6574    0.0807    3.7740 H   0  0  0  0  0
    4.0778   -2.2746    2.7918 H   0  0  0  0  0
    4.8900   -1.7996    1.2846 H   0  0  0  0  0
    3.2310   -2.3640    1.2336 H   0  0  0  0  0
    1.5012    5.6671   -3.6141 H   0  0  0  0  0
    0.0273    5.8640   -4.5687 H   0  0  0  0  0
    1.5945    5.6456   -5.3799 H   0  0  0  0  0
    0.5744    3.6873   -6.6749 H   0  0  0  0  0
   -0.0052    2.2596   -5.8302 H   0  0  0  0  0
   -0.9684    3.7406   -5.8004 H   0  0  0  0  0
  1  7  1  0  0  0
  1 19  1  0  0  0
  2  8  1  0  0  0
  2 21  1  0  0  0
  3  9  1  0  0  0
  3 32  1  0  0  0
  4 10  1  0  0  0
  4 33  1  0  0  0
  5 11  1  0  0  0
  5 34  1  0  0  0
  6 20  2  0  0  0
  7 13  2  0  0  0
  7 16  1  0  0  0
  8  9  2  0  0  0
  8 15  1  0  0  0
  9 14  1  0  0  0
 10 13  1  0  0  0
 10 17  2  0  0  0
 11 16  2  0  0  0
 11 17  1  0  0  0
 12 14  2  0  0  0
 12 18  1  0  0  0
 12 19  1  0  0  0
 13 20  1  0  0  0
 14 23  1  0  0  0
 15 18  2  0  0  0
 15 22  1  0  0  0
 16 35  1  0  0  0
 17 36  1  0  0  0
 18 37  1  0  0  0
 19 24  1  0  0  0
 19 38  1  0  0  0
 20 24  1  0  0  0
 21 26  1  0  0  0
 21 28  1  0  0  0
 21 29  1  0  0  0
 22 26  2  0  0  0
 22 39  1  0  0  0
 23 27  1  0  0  0
 23 40  1  0  0  0
 23 41  1  0  0  0
 24 42  1  0  0  0
 24 43  1  0  0  0
 25 27  2  0  0  0
 25 30  1  0  0  0
 25 31  1  0  0  0
 26 44  1  0  0  0
 27 45  1  0  0  0
 28 46  1  0  0  0
 28 47  1  0  0  0
 28 48  1  0  0  0
 29 49  1  0  0  0
 29 50  1  0  0  0
 29 51  1  0  0  0
 30 52  1  0  0  0
 30 53  1  0  0  0
 30 54  1  0  0  0
 31 55  1  0  0  0
 31 56  1  0  0  0
 31 57  1  0  0  0
M  END
> <Tumorigenic>
none

> <Score>
34.50568

> <Active/Decoy>
active

> <InChI>
InChI=1S/C25H26O6/c1-13(2)5-6-16-17(9-14-7-8-25(3,4)31-24(14)23(16)29)20-12-19(28)22-18(27)10-15(26)11-21(22)30-20/h5,7-11,20,26-27,29H,6,12H2,1-4H3/t20-/m1/s1

> <Matching Features>
H:14924486185440016873||HBA:14924321692640012300|HBA:14924486112070016868

> <Mol. Index>
269

> <Pharmacophore Match>
Model -1

> <# Confs.>
25

> <Source Database>
Pharm-Screening-input-EANPDB_After_DataWarror.ldb

> <Pharmacophore-Fit Score>
34.51

> <formula>
C25H26O6

> <Mutagenic>
none

> <Reproductive Effective>
none

> <Irritant>
none

$$$$
kaempferol 3-rhamnoside
XX    ILIB03122411363D

 50 53  0  0  1  0              1 V2000
   -2.4228    3.3026    1.6213 O   0  0  0  0  0
    1.5534    3.9751    2.0813 O   0  0  0  0  0
    0.6721    2.8884   -0.3030 O   0  0  0  0  0
   -3.4347    4.4394    6.0962 O   0  0  0  0  0
   -4.1993    1.1894   -4.0078 O   0  0  0  0  0
    1.9910    1.3239    0.8910 O   0  0  0  0  0
    2.1868    1.2136   -1.9328 O   0  0  0  0  0
    4.9349    1.4942   -2.0122 O   0  0  0  0  0
    5.5452    0.4055    0.6018 O   0  0  0  0  0
    1.0811    4.5088    4.7533 O   0  5  0  0  0
   -1.5281    3.0382    0.6007 C   0  0  0  0  0
   -1.9477    3.6891    2.8477 C   0  0  0  0  0
    0.3602    3.7166    1.9914 C   0  0  0  0  0
   -0.1847    3.1780    0.7185 C   0  0  0  0  0
   -2.5216    4.2530    5.0966 C   0  0  0  0  0
   -3.5230    1.6506   -2.9117 C   0  0  0  0  0
   -0.1388    4.3049    4.4262 C   0  0  0  0  0
   -0.5884    3.9069    3.1276 C   0  0  0  0  0
   -2.1848    2.5715   -0.6274 C   0  0  0  0  0
   -2.9173    3.8634    3.8312 C   0  0  0  0  0
   -1.1716    4.4656    5.3844 C   0  0  0  0  0
   -4.0670    1.4145   -1.6543 C   0  0  0  0  0
   -2.3232    2.3404   -3.0483 C   0  0  0  0  0
   -3.3991    1.8744   -0.5173 C   0  0  0  0  0
   -1.6572    2.7998   -1.9082 C   0  0  0  0  0
    1.9948    2.5139    0.0906 C   0  0  1  0  0
    2.8075    2.2645   -1.1860 C   0  0  1  0  0
    4.2301    1.8421   -0.8255 C   0  0  1  0  0
    4.2177    0.6594    0.1469 C   0  0  2  0  0
    3.2978    0.9543    1.3398 C   0  0  2  0  0
    3.1460   -0.2632    2.2452 C   0  0  0  0  0
   -4.3222    4.2620    5.7404 H   0  0  0  0  0
   -3.6962    1.4289   -4.8047 H   0  0  0  0  0
    1.2702    1.4864   -2.1094 H   0  0  0  0  0
    5.8290    1.2181   -1.7480 H   0  0  0  0  0
    5.8528    1.1925    1.0823 H   0  0  0  0  0
   -3.9650    3.6935    3.6039 H   0  0  0  0  0
   -0.9112    4.7698    6.3999 H   0  0  0  0  0
   -5.0038    0.8769   -1.5466 H   0  0  0  0  0
   -1.8954    2.5283   -4.0285 H   0  0  0  0  0
   -3.8396    1.6798    0.4581 H   0  0  0  0  0
   -0.7231    3.3396   -2.0436 H   0  0  0  0  0
    2.4570    3.3352    0.6583 H   0  0  0  0  0
    2.8154    3.1464   -1.8353 H   0  0  0  0  0
    4.7610    2.6902   -0.3750 H   0  0  0  0  0
    3.8850   -0.2417   -0.3823 H   0  0  0  0  0
    3.7096    1.7704    1.9479 H   0  0  0  0  0
    2.4573   -0.0401    3.0674 H   0  0  0  0  0
    2.7163   -1.1063    1.6951 H   0  0  0  0  0
    4.1044   -0.5728    2.6706 H   0  0  0  0  0
  1 11  1  0  0  0
  1 12  1  0  0  0
  2 13  2  0  0  0
  3 14  1  0  0  0
  3 26  1  0  0  0
  4 15  1  0  0  0
  4 32  1  0  0  0
  5 16  1  0  0  0
  5 33  1  0  0  0
  6 26  1  0  0  0
  6 30  1  0  0  0
  7 27  1  0  0  0
  7 34  1  0  0  0
  8 28  1  0  0  0
  8 35  1  0  0  0
  9 29  1  0  0  0
  9 36  1  0  0  0
 10 17  1  0  0  0
 11 14  2  0  0  0
 11 19  1  0  0  0
 12 18  2  0  0  0
 12 20  1  0  0  0
 13 14  1  0  0  0
 13 18  1  0  0  0
 15 20  2  0  0  0
 15 21  1  0  0  0
 16 22  2  0  0  0
 16 23  1  0  0  0
 17 18  1  0  0  0
 17 21  2  0  0  0
 19 24  2  0  0  0
 19 25  1  0  0  0
 20 37  1  0  0  0
 21 38  1  0  0  0
 22 24  1  0  0  0
 22 39  1  0  0  0
 23 25  2  0  0  0
 23 40  1  0  0  0
 24 41  1  0  0  0
 25 42  1  0  0  0
 26 27  1  0  0  0
 26 43  1  0  0  0
 27 28  1  0  0  0
 27 44  1  0  0  0
 28 29  1  0  0  0
 28 45  1  0  0  0
 29 30  1  0  0  0
 29 46  1  0  0  0
 30 31  1  0  0  0
 30 47  1  0  0  0
 31 48  1  0  0  0
 31 49  1  0  0  0
 31 50  1  0  0  0
M  END
> <Tumorigenic>
none

> <Score>
34.47172

> <Active/Decoy>
active

> <InChI>
InChI=1S/C21H20O10/c1-8-15(25)17(27)18(28)21(29-8)31-20-16(26)14-12(24)6-11(23)7-13(14)30-19(20)9-2-4-10(22)5-3-9/h2-8,15,17-18,21-25,27-28H,1H3/p-1/t8-,15-,17+,18+,21+/m0/s1

> <Matching Features>
H:14924486185440016873||HBA:14924321692640012300|HBA:14924486112070016868

> <Mol. Index>
136

> <Pharmacophore Match>
Model -1

> <# Confs.>
10

> <Source Database>
Pharm-Screening-input-EANPDB_After_DataWarror.ldb

> <Pharmacophore-Fit Score>
34.47

> <formula>
C21H19O10-

> <Mutagenic>
none

> <Reproductive Effective>
none

> <Irritant>
none

$$$$
5-hydroxy-7,2',3',4',5'-pentamethoxyflavone
XX    ILIB03122411363D

 48 50  0  0  1  0              1 V2000
   -1.0276   -0.5317   -0.3776 O   0  0  0  0  0
   -2.5107    2.0086   -3.1873 O   0  0  0  0  0
    4.5694    1.3530   -1.4992 O   0  0  0  0  0
    5.0428    0.5134    1.0653 O   0  0  0  0  0
    2.0157    1.3038   -2.5367 O   0  0  0  0  0
    3.0325   -0.3350    2.6575 O   0  0  0  0  0
   -5.2274   -2.8494   -0.0166 O   0  0  0  0  0
   -4.8449    0.7415   -3.0543 O   0  0  0  0  0
   -2.3324   -0.6617   -0.7864 C   0  0  0  0  0
   -0.2339    0.4596   -0.9687 C   0  0  0  0  0
   -2.0836    1.2239   -2.3514 C   0  0  0  0  0
    3.5302    0.9255   -0.7224 C   0  0  0  0  0
    3.7693    0.4687    0.5768 C   0  0  0  0  0
    2.2337    0.8933   -1.2526 C   0  0  0  0  0
    2.7072    0.0430    1.3853 C   0  0  0  0  0
   -4.4055   -1.8898   -0.5357 C   0  0  0  0  0
   -4.2495   -0.0469   -2.1090 C   0  0  0  0  0
   -2.9146    0.1614   -1.7500 C   0  0  0  0  0
    1.1444    0.4806   -0.4685 C   0  0  0  0  0
   -0.6814    1.3026   -1.8934 C   0  0  0  0  0
   -3.0711   -1.6835   -0.1781 C   0  0  0  0  0
   -4.9908   -1.0672   -1.5052 C   0  0  0  0  0
    1.4080    0.0451    0.8579 C   0  0  0  0  0
    5.6368    1.9847   -0.7953 C   0  0  0  0  0
    5.3636   -0.5033    2.0177 C   0  0  0  0  0
    3.0886    1.0708   -3.4464 C   0  0  0  0  0
    1.9380   -0.7648    3.4640 C   0  0  0  0  0
   -4.6355   -3.6909    0.9700 C   0  0  0  0  0
   -5.7630    0.4461   -3.1771 H   0  0  0  0  0
   -0.0648    2.0710   -2.3463 H   0  0  0  0  0
   -2.5806   -2.3019    0.5686 H   0  0  0  0  0
   -6.0282   -1.2244   -1.7876 H   0  0  0  0  0
    0.5688   -0.2731    1.4720 H   0  0  0  0  0
    6.3966    2.2664   -1.5301 H   0  0  0  0  0
    5.2950    2.8997   -0.2998 H   0  0  0  0  0
    6.0995    1.2973   -0.0804 H   0  0  0  0  0
    6.4087   -0.3627    2.3141 H   0  0  0  0  0
    4.7438   -0.4074    2.9159 H   0  0  0  0  0
    5.2709   -1.5037    1.5799 H   0  0  0  0  0
    2.7790    1.4421   -4.4276 H   0  0  0  0  0
    3.9864    1.6222   -3.1470 H   0  0  0  0  0
    3.2980   -0.0001   -3.5440 H   0  0  0  0  0
    2.3369   -1.0435    4.4430 H   0  0  0  0  0
    1.2162    0.0450    3.6143 H   0  0  0  0  0
    1.4548   -1.6498    3.0356 H   0  0  0  0  0
   -5.3970   -4.4008    1.3033 H   0  0  0  0  0
   -3.8018   -4.2663    0.5505 H   0  0  0  0  0
   -4.3137   -3.1108    1.8413 H   0  0  0  0  0
  1  9  1  0  0  0
  1 10  1  0  0  0
  2 11  2  0  0  0
  3 12  1  0  0  0
  3 24  1  0  0  0
  4 13  1  0  0  0
  4 25  1  0  0  0
  5 14  1  0  0  0
  5 26  1  0  0  0
  6 15  1  0  0  0
  6 27  1  0  0  0
  7 16  1  0  0  0
  7 28  1  0  0  0
  8 17  1  0  0  0
  8 29  1  0  0  0
  9 18  2  0  0  0
  9 21  1  0  0  0
 10 19  1  0  0  0
 10 20  2  0  0  0
 11 18  1  0  0  0
 11 20  1  0  0  0
 12 13  2  0  0  0
 12 14  1  0  0  0
 13 15  1  0  0  0
 14 19  2  0  0  0
 15 23  2  0  0  0
 16 21  2  0  0  0
 16 22  1  0  0  0
 17 18  1  0  0  0
 17 22  2  0  0  0
 19 23  1  0  0  0
 20 30  1  0  0  0
 21 31  1  0  0  0
 22 32  1  0  0  0
 23 33  1  0  0  0
 24 34  1  0  0  0
 24 35  1  0  0  0
 24 36  1  0  0  0
 25 37  1  0  0  0
 25 38  1  0  0  0
 25 39  1  0  0  0
 26 40  1  0  0  0
 26 41  1  0  0  0
 26 42  1  0  0  0
 27 43  1  0  0  0
 27 44  1  0  0  0
 27 45  1  0  0  0
 28 46  1  0  0  0
 28 47  1  0  0  0
 28 48  1  0  0  0
M  END
> <Tumorigenic>
none

> <Score>
34.459885

> <Active/Decoy>
active

> <InChI>
InChI=1S/C20H20O8/c1-23-10-6-12(21)17-13(22)9-14(28-15(17)7-10)11-8-16(24-2)19(26-4)20(27-5)18(11)25-3/h6-9,21H,1-5H3

> <Matching Features>
H:14924486185440016873||HBA:14924321692640012300|HBA:14924486112070016868

> <Mol. Index>
166

> <Pharmacophore Match>
Model -1

> <# Confs.>
18

> <Source Database>
Pharm-Screening-input-EANPDB_After_DataWarror.ldb

> <Pharmacophore-Fit Score>
34.46

> <formula>
C20H20O8

> <Mutagenic>
none

> <Reproductive Effective>
none

> <Irritant>
none

$$$$
5,7-dihydroxy-2',3',4',5'-tetramethoxyflavone
XX    ILIB03122411363D

 45 47  0  0  1  0              1 V2000
   -1.1822    0.8235    0.1020 O   0  0  0  0  0
   -2.3125    0.4569   -3.7898 O   0  0  0  0  0
    4.5777    1.3519   -1.4936 O   0  0  0  0  0
    5.0594    0.3441    1.0079 O   0  0  0  0  0
    2.0059    1.4750   -2.4792 O   0  0  0  0  0
    3.0422   -0.5073    2.5900 O   0  0  0  0  0
   -4.8492    0.7397   -3.0512 O   0  0  0  0  0
   -5.6658    1.3653    1.5891 O   0  0  0  0  0
   -2.5139    0.8944   -0.2251 C   0  0  0  0  0
   -0.2554    0.6149   -0.9047 C   0  0  0  0  0
   -1.9998    0.5693   -2.6128 C   0  0  0  0  0
    3.5346    0.9256   -0.7213 C   0  0  0  0  0
    3.7765    0.3836    0.5442 C   0  0  0  0  0
    2.2285    0.9811   -1.2256 C   0  0  0  0  0
    2.7112   -0.0418    1.3486 C   0  0  0  0  0
   -4.3634    0.8562   -1.7782 C   0  0  0  0  0
   -4.7691    1.1725    0.5745 C   0  0  0  0  0
   -2.9866    0.7765   -1.5340 C   0  0  0  0  0
    1.1362    0.5713   -0.4442 C   0  0  0  0  0
   -0.5822    0.4996   -2.2040 C   0  0  0  0  0
   -3.4024    1.0935    0.8333 C   0  0  0  0  0
   -5.2569    1.0546   -0.7234 C   0  0  0  0  0
    1.4040    0.0479    0.8492 C   0  0  0  0  0
    5.6848    1.8942   -0.7767 C   0  0  0  0  0
    5.3514   -0.7396    1.8934 C   0  0  0  0  0
    3.0507    1.2489   -3.4227 C   0  0  0  0  0
    1.9443   -0.9353    3.3929 C   0  0  0  0  0
   -5.8183    0.8089   -3.0255 H   0  0  0  0  0
   -5.1758    1.4307    2.4266 H   0  0  0  0  0
    0.1437    0.3412   -2.9936 H   0  0  0  0  0
   -3.0283    1.1846    1.8498 H   0  0  0  0  0
   -6.3264    1.1163   -0.9085 H   0  0  0  0  0
    0.5627   -0.2687    1.4612 H   0  0  0  0  0
    6.4431    2.1849   -1.5097 H   0  0  0  0  0
    5.3934    2.7927   -0.2225 H   0  0  0  0  0
    6.1292    1.1466   -0.1124 H   0  0  0  0  0
    6.4070   -0.6623    2.1757 H   0  0  0  0  0
    4.7529   -0.6693    2.8083 H   0  0  0  0  0
    5.2061   -1.7077    1.4008 H   0  0  0  0  0
    2.7403    1.6901   -4.3744 H   0  0  0  0  0
    3.9775    1.7421   -3.1108 H   0  0  0  0  0
    3.2101    0.1774   -3.5862 H   0  0  0  0  0
    2.3480   -1.2878    4.3457 H   0  0  0  0  0
    1.2624   -0.1048    3.6044 H   0  0  0  0  0
    1.4143   -1.7717    2.9244 H   0  0  0  0  0
  1  9  1  0  0  0
  1 10  1  0  0  0
  2 11  2  0  0  0
  3 12  1  0  0  0
  3 24  1  0  0  0
  4 13  1  0  0  0
  4 25  1  0  0  0
  5 14  1  0  0  0
  5 26  1  0  0  0
  6 15  1  0  0  0
  6 27  1  0  0  0
  7 16  1  0  0  0
  7 28  1  0  0  0
  8 17  1  0  0  0
  8 29  1  0  0  0
  9 18  2  0  0  0
  9 21  1  0  0  0
 10 19  1  0  0  0
 10 20  2  0  0  0
 11 18  1  0  0  0
 11 20  1  0  0  0
 12 13  2  0  0  0
 12 14  1  0  0  0
 13 15  1  0  0  0
 14 19  2  0  0  0
 15 23  2  0  0  0
 16 18  1  0  0  0
 16 22  2  0  0  0
 17 21  2  0  0  0
 17 22  1  0  0  0
 19 23  1  0  0  0
 20 30  1  0  0  0
 21 31  1  0  0  0
 22 32  1  0  0  0
 23 33  1  0  0  0
 24 34  1  0  0  0
 24 35  1  0  0  0
 24 36  1  0  0  0
 25 37  1  0  0  0
 25 38  1  0  0  0
 25 39  1  0  0  0
 26 40  1  0  0  0
 26 41  1  0  0  0
 26 42  1  0  0  0
 27 43  1  0  0  0
 27 44  1  0  0  0
 27 45  1  0  0  0
M  END
> <Tumorigenic>
none

> <Score>
34.44515

> <Active/Decoy>
active

> <InChI>
InChI=1S/C19H18O8/c1-23-15-7-10(17(24-2)19(26-4)18(15)25-3)13-8-12(22)16-11(21)5-9(20)6-14(16)27-13/h5-8,20-21H,1-4H3

> <Matching Features>
H:14924486185440016873||HBA:14924321692640012300|HBA:14924486112070016868

> <Mol. Index>
163

> <Pharmacophore Match>
Model -1

> <# Confs.>
10

> <Source Database>
Pharm-Screening-input-EANPDB_After_DataWarror.ldb

> <Pharmacophore-Fit Score>
34.45

> <formula>
C19H18O8

> <Mutagenic>
none

> <Reproductive Effective>
none

> <Irritant>
none

$$$$
5-O-beta-glucopyranosylcarvotacetone
XX    ILIB03122411363D

 50 51  0  0  1  0              1 V2000
   -3.3349    0.6642   -0.1832 O   0  0  0  0  0
   -1.2455   -0.3410   -0.7131 O   0  0  0  0  0
   -2.1932   -2.8044    0.1753 O   0  0  0  0  0
   -4.4926   -3.0654   -1.5501 O   0  0  0  0  0
   -4.9293   -0.7148   -3.1931 O   0  0  0  0  0
    0.6520    0.0477   -2.5243 O   0  0  0  0  0
   -5.7484    1.5513   -2.6600 O   0  0  0  0  0
    3.8275    1.0884   -2.2568 O   0  0  0  0  0
   -2.4129   -0.3934    0.1038 C   0  0  2  0  0
   -3.1092   -1.7441   -0.0789 C   0  0  1  0  0
   -3.6975   -1.8817   -1.4819 C   0  0  2  0  0
   -4.5688   -0.6682   -1.8151 C   0  0  1  0  0
   -3.8266    0.6422   -1.5309 C   0  0  1  0  0
   -0.5239    0.8647   -0.5859 C   0  0  1  0  0
   -0.0457    1.1731    0.8422 C   0  0  1  0  0
    0.6306    0.8372   -1.5812 C   0  0  0  0  0
   -4.7382    1.8458   -1.7012 C   0  0  0  0  0
    2.7387    1.9719   -2.4913 C   0  0  0  0  0
    0.6948    0.0465    1.5692 C   0  0  0  0  0
    0.7604    2.4861    0.8310 C   0  0  0  0  0
    1.7280    1.8395   -1.4107 C   0  0  0  0  0
    1.7360    2.5960   -0.3025 C   0  0  0  0  0
    1.9386   -0.3977    0.7927 C   0  0  0  0  0
    1.1106    0.4744    2.9820 C   0  0  0  0  0
   -1.4527   -2.7114   -0.4481 H   0  0  0  0  0
   -5.2103   -2.9838   -0.8989 H   0  0  0  0  0
   -5.3782   -1.5638   -3.3484 H   0  0  0  0  0
   -5.3024    1.3277   -3.4934 H   0  0  0  0  0
    4.2412    1.3471   -1.4158 H   0  0  0  0  0
   -2.1070   -0.3010    1.1537 H   0  0  0  0  0
   -3.9182   -1.8380    0.6559 H   0  0  0  0  0
   -2.9060   -2.0076   -2.2296 H   0  0  0  0  0
   -5.4964   -0.7093   -1.2300 H   0  0  0  0  0
   -2.9792    0.7622   -2.2184 H   0  0  0  0  0
   -1.1774    1.6914   -0.9435 H   0  0  0  0  0
   -0.9477    1.3671    1.4536 H   0  0  0  0  0
   -4.1886    2.7245   -2.0533 H   0  0  0  0  0
   -5.2380    2.0949   -0.7609 H   0  0  0  0  0
    3.1323    2.9909   -2.5614 H   0  0  0  0  0
    2.2986    1.7191   -3.4608 H   0  0  0  0  0
    0.0296   -0.8214    1.6678 H   0  0  0  0  0
    0.0720    3.3379    0.7592 H   0  0  0  0  0
    1.2969    2.6027    1.7796 H   0  0  0  0  0
    2.5094    3.3520   -0.1861 H   0  0  0  0  0
    2.6276    0.4394    0.6369 H   0  0  0  0  0
    1.6733   -0.8082   -0.1867 H   0  0  0  0  0
    2.4775   -1.1815    1.3368 H   0  0  0  0  0
    0.2393    0.7234    3.5960 H   0  0  0  0  0
    1.6477   -0.3335    3.4890 H   0  0  0  0  0
    1.7675    1.3503    2.9536 H   0  0  0  0  0
  1  9  1  0  0  0
  1 13  1  0  0  0
  2  9  1  0  0  0
  2 14  1  0  0  0
  3 10  1  0  0  0
  3 25  1  0  0  0
  4 11  1  0  0  0
  4 26  1  0  0  0
  5 12  1  0  0  0
  5 27  1  0  0  0
  6 16  2  0  0  0
  7 17  1  0  0  0
  7 28  1  0  0  0
  8 18  1  0  0  0
  8 29  1  0  0  0
  9 10  1  0  0  0
  9 30  1  0  0  0
 10 11  1  0  0  0
 10 31  1  0  0  0
 11 12  1  0  0  0
 11 32  1  0  0  0
 12 13  1  0  0  0
 12 33  1  0  0  0
 13 17  1  0  0  0
 13 34  1  0  0  0
 14 15  1  0  0  0
 14 16  1  0  0  0
 14 35  1  0  0  0
 15 19  1  0  0  0
 15 20  1  0  0  0
 15 36  1  0  0  0
 16 21  1  0  0  0
 17 37  1  0  0  0
 17 38  1  0  0  0
 18 21  1  0  0  0
 18 39  1  0  0  0
 18 40  1  0  0  0
 19 23  1  0  0  0
 19 24  1  0  0  0
 19 41  1  0  0  0
 20 22  1  0  0  0
 20 42  1  0  0  0
 20 43  1  0  0  0
 21 22  2  0  0  0
 22 44  1  0  0  0
 23 45  1  0  0  0
 23 46  1  0  0  0
 23 47  1  0  0  0
 24 48  1  0  0  0
 24 49  1  0  0  0
 24 50  1  0  0  0
M  END
> <Tumorigenic>
none

> <Score>
34.432728

> <Active/Decoy>
active

> <InChI>
InChI=1S/C16H26O8/c1-7(2)9-4-3-8(5-17)11(19)15(9)24-16-14(22)13(21)12(20)10(6-18)23-16/h3,7,9-10,12-18,20-22H,4-6H2,1-2H3/t9-,10-,12-,13+,14-,15+,16-/m1/s1

> <Matching Features>
H:14924486185440016873||HBA:14924321692640012300|HBA:14924486112070016868

> <Mol. Index>
159

> <Pharmacophore Match>
Model -1

> <# Confs.>
11

> <Source Database>
Pharm-Screening-input-EANPDB_After_DataWarror.ldb

> <Pharmacophore-Fit Score>
34.43

> <formula>
C16H26O8

> <Mutagenic>
none

> <Reproductive Effective>
none

> <Irritant>
none

$$$$
chisocheton A
XX    ILIB03122411363D

 86 91  0  0  1  0              1 V2000
   -5.9206    3.1685   -2.1670 O   0  0  0  0  0
   -5.5544    4.5678   -0.2759 O   0  0  0  0  0
   -7.0163    0.8931   -4.1771 O   0  0  0  0  0
    1.4074    4.3128    1.0838 O   0  0  0  0  0
   -4.3640    6.3957   -1.0202 O   0  0  0  0  0
    5.6622    1.5456   -1.6363 O   0  0  0  0  0
   -4.9558    3.7607   -1.2840 C   0  0  1  0  0
   -5.6312    1.7742   -2.3380 C   0  0  1  0  0
   -5.7214    1.3550   -3.7671 C   0  0  1  0  0
    1.4384    3.3278    2.1125 C   0  0  1  0  0
    0.4349    2.1779    1.7830 C   0  0  2  0  0
    2.5073    0.7133    0.9348 C   0  0  2  0  0
   -4.2139    2.5756   -0.6328 C   0  0  2  0  0
    1.0680    1.2987    0.6319 C   0  0  1  0  0
   -2.8095    2.9094   -0.1268 C   0  0  2  0  0
   -1.9239    1.8145    0.5652 C   0  0  2  0  0
    3.5062    1.8861    1.2839 C   0  0  2  0  0
   -5.1619    5.8681   -0.2573 C   0  0  0  0  0
    4.5855    1.5798   -1.0399 C   0  0  0  0  0
   -5.9611   -0.0800   -4.2055 C   0  0  0  0  0
   -0.9338    2.7034    1.3166 C   0  0  0  0  0
   -4.2441    1.5558   -1.7545 C   0  0  0  0  0
    2.8948    2.8742    2.3201 C   0  0  0  0  0
    4.2921    2.5775    0.0884 C   0  0  0  0  0
    3.0831   -0.1304   -0.2428 C   0  0  0  0  0
    0.0529    0.2571    0.0965 C   0  0  0  0  0
   -2.7939    4.0869    0.8615 C   0  0  0  0  0
   -1.1959    0.9402   -0.4666 C   0  0  0  0  0
    0.1465    1.4214    3.1044 C   0  0  0  0  0
    2.4865   -0.2991    2.1178 C   0  0  0  0  0
   -2.7253    0.9293    1.5378 C   0  0  0  0  0
   -1.4553    3.9290    1.4980 C   0  0  0  0  0
    3.4564    0.6845   -1.4569 C   0  0  0  0  0
   -5.8611    6.5904    0.8547 C   0  0  0  0  0
   -5.5469   -0.4825   -5.5870 C   0  0  0  0  0
   -6.1261   -1.1867   -3.2120 C   0  0  0  0  0
    5.6503    3.0969    0.6266 C   0  0  0  0  0
    3.6078    3.7623   -0.6032 C   0  0  0  0  0
    1.8741    5.0970    1.4186 H   0  0  0  0  0
   -4.2574    4.3560   -1.8871 H   0  0  0  0  0
   -6.3771    1.2242   -1.7525 H   0  0  0  0  0
   -5.1761    2.0080   -4.4377 H   0  0  0  0  0
    1.1105    3.8402    3.0264 H   0  0  0  0  0
   -4.8144    2.1964    0.2072 H   0  0  0  0  0
    1.2134    1.9868   -0.2118 H   0  0  0  0  0
   -2.2570    3.2553   -1.0171 H   0  0  0  0  0
    4.3111    1.3800    1.8389 H   0  0  0  0  0
   -4.0972    0.5268   -1.4144 H   0  0  0  0  0
   -3.4674    1.7765   -2.4973 H   0  0  0  0  0
    3.5336    3.7615    2.3996 H   0  0  0  0  0
    2.9577    2.3934    3.3053 H   0  0  0  0  0
    2.4046   -0.9387   -0.5281 H   0  0  0  0  0
    3.9963   -0.6422    0.0969 H   0  0  0  0  0
    0.4825   -0.3145   -0.7296 H   0  0  0  0  0
   -0.2200   -0.4687    0.8671 H   0  0  0  0  0
   -2.8746    5.0408    0.3312 H   0  0  0  0  0
   -3.5787    4.0342    1.6221 H   0  0  0  0  0
   -1.8697    0.1707   -0.8615 H   0  0  0  0  0
   -0.8881    1.5438   -1.3311 H   0  0  0  0  0
   -0.1079    0.3721    2.9451 H   0  0  0  0  0
   -0.6868    1.8763    3.6553 H   0  0  0  0  0
    0.9833    1.4556    3.8041 H   0  0  0  0  0
    3.4317   -0.8516    2.1795 H   0  0  0  0  0
    1.6937   -1.0437    2.0005 H   0  0  0  0  0
    2.3844    0.1753    3.0906 H   0  0  0  0  0
   -2.0941    0.2046    2.0557 H   0  0  0  0  0
   -3.2312    1.5211    2.3083 H   0  0  0  0  0
   -3.4814    0.3408    1.0088 H   0  0  0  0  0
   -0.9837    4.7335    2.0433 H   0  0  0  0  0
    3.8077    0.0236   -2.2551 H   0  0  0  0  0
    2.6283    1.2750   -1.8560 H   0  0  0  0  0
   -5.6197    7.6558    0.8028 H   0  0  0  0  0
   -6.9430    6.4782    0.7489 H   0  0  0  0  0
   -5.5255    6.1985    1.8172 H   0  0  0  0  0
   -5.4677    0.3797   -6.2579 H   0  0  0  0  0
   -6.2761   -1.1768   -6.0184 H   0  0  0  0  0
   -4.5719   -0.9786   -5.5595 H   0  0  0  0  0
   -5.1495   -1.5024   -2.8344 H   0  0  0  0  0
   -6.7485   -0.8960   -2.3597 H   0  0  0  0  0
   -6.6051   -2.0537   -3.6778 H   0  0  0  0  0
    6.2606    2.2772    1.0275 H   0  0  0  0  0
    5.5185    3.8390    1.4199 H   0  0  0  0  0
    6.2411    3.5695   -0.1607 H   0  0  0  0  0
    3.5730    4.6431    0.0442 H   0  0  0  0  0
    4.1659    4.0679   -1.4983 H   0  0  0  0  0
    2.5999    3.5178   -0.9466 H   0  0  0  0  0
  1  7  1  0  0  0
  1  8  1  0  0  0
  2  7  1  0  0  0
  2 18  1  0  0  0
  3  9  1  0  0  0
  3 20  1  0  0  0
  4 10  1  0  0  0
  4 39  1  0  0  0
  5 18  2  0  0  0
  6 19  2  0  0  0
  7 13  1  0  0  0
  7 40  1  0  0  0
  8  9  1  0  0  0
  8 22  1  0  0  0
  8 41  1  0  0  0
  9 20  1  0  0  0
  9 42  1  0  0  0
 10 11  1  0  0  0
 10 23  1  0  0  0
 10 43  1  0  0  0
 11 14  1  0  0  0
 11 21  1  0  0  0
 11 29  1  0  0  0
 12 14  1  0  0  0
 12 17  1  0  0  0
 12 25  1  0  0  0
 12 30  1  0  0  0
 13 15  1  0  0  0
 13 22  1  0  0  0
 13 44  1  0  0  0
 14 26  1  0  0  0
 14 45  1  0  0  0
 15 16  1  0  0  0
 15 27  1  0  0  0
 15 46  1  0  0  0
 16 21  1  0  0  0
 16 28  1  0  0  0
 16 31  1  0  0  0
 17 23  1  0  0  0
 17 24  1  0  0  0
 17 47  1  0  0  0
 18 34  1  0  0  0
 19 24  1  0  0  0
 19 33  1  0  0  0
 20 35  1  0  0  0
 20 36  1  0  0  0
 21 32  2  0  0  0
 22 48  1  0  0  0
 22 49  1  0  0  0
 23 50  1  0  0  0
 23 51  1  0  0  0
 24 37  1  0  0  0
 24 38  1  0  0  0
 25 33  1  0  0  0
 25 52  1  0  0  0
 25 53  1  0  0  0
 26 28  1  0  0  0
 26 54  1  0  0  0
 26 55  1  0  0  0
 27 32  1  0  0  0
 27 56  1  0  0  0
 27 57  1  0  0  0
 28 58  1  0  0  0
 28 59  1  0  0  0
 29 60  1  0  0  0
 29 61  1  0  0  0
 29 62  1  0  0  0
 30 63  1  0  0  0
 30 64  1  0  0  0
 30 65  1  0  0  0
 31 66  1  0  0  0
 31 67  1  0  0  0
 31 68  1  0  0  0
 32 69  1  0  0  0
 33 70  1  0  0  0
 33 71  1  0  0  0
 34 72  1  0  0  0
 34 73  1  0  0  0
 34 74  1  0  0  0
 35 75  1  0  0  0
 35 76  1  0  0  0
 35 77  1  0  0  0
 36 78  1  0  0  0
 36 79  1  0  0  0
 36 80  1  0  0  0
 37 81  1  0  0  0
 37 82  1  0  0  0
 37 83  1  0  0  0
 38 84  1  0  0  0
 38 85  1  0  0  0
 38 86  1  0  0  0
M  END
> <Tumorigenic>
none

> <Score>
34.40767

> <Active/Decoy>
active

> <InChI>
InChI=1S/C32H48O6/c1-17(33)36-27-18(15-20(37-27)26-29(4,5)38-26)19-9-10-21-30(19,6)13-11-22-31(7)14-12-24(34)28(2,3)23(31)16-25(35)32(21,22)8/h10,18-20,22-23,25-27,35H,9,11-16H2,1-8H3/t18-,19+,20+,22+,23+,25+,26-,27+,30+,31+,32-/m0/s1

> <Matching Features>
H:14924486185440016873||HBA:14924321692640012300|HBA:14924486112070016868

> <Mol. Index>
431

> <Pharmacophore Match>
Model -1

> <# Confs.>
17

> <Source Database>
Pharm-Screening-input-EANPDB_After_DataWarror.ldb

> <Pharmacophore-Fit Score>
34.41

> <formula>
C32H48O6

> <Mutagenic>
none

> <Reproductive Effective>
none

> <Irritant>
none

$$$$
12alpha-acetoxy-7-deacetylazadirone
XX    ILIB03122411363D

 66 70  0  0  1  0              1 V2000
    6.4328   -0.5048   -1.2667 O   0  0  0  0  0
    2.1152    0.2884   -0.9586 O   0  0  0  0  0
   -1.1261   -0.2541    2.8695 O   0  0  0  0  0
    3.4929    1.5288   -2.3186 O   0  0  0  0  0
   -4.1974    0.9645   -3.4199 O   0  0  0  0  0
    5.2884   -0.7234   -0.5705 C   0  0  0  0  0
    6.7751    0.7908   -1.0562 C   0  0  0  0  0
    4.8844    0.4202    0.0884 C   0  0  0  0  0
    5.8628    1.4027   -0.2305 C   0  0  0  0  0
    2.3803    1.0335    0.2350 C   0  0  2  0  0
   -1.1575    0.2379    1.5253 C   0  0  2  0  0
    3.6850    0.5891    0.9460 C   0  0  1  0  0
   -0.0382    1.2936    1.3058 C   0  0  2  0  0
   -1.7213    2.5443   -0.3695 C   0  0  2  0  0
   -0.2683    2.0005   -0.0796 C   0  0  1  0  0
   -2.8223    1.4624   -0.0710 C   0  0  2  0  0
    2.9293    0.4788   -2.0245 C   0  0  0  0  0
   -3.4062    1.3035   -2.5399 C   0  0  0  0  0
    1.3460    0.6108    1.2606 C   0  0  0  0  0
   -2.5723    0.7698    1.2828 C   0  0  0  0  0
   -1.8083    3.0114   -1.8150 C   0  0  0  0  0
   -3.1982    0.4927   -1.2536 C   0  0  0  0  0
    2.2790    2.5599    0.0256 C   0  0  0  0  0
    3.2605   -0.6717    1.7154 C   0  0  0  0  0
    0.8760    3.0038   -0.4236 C   0  0  0  0  0
    0.0128    2.2823    2.4967 C   0  0  0  0  0
   -2.0626    3.8109    0.4595 C   0  0  0  0  0
   -2.5665    2.4911   -2.7801 C   0  0  0  0  0
    1.8370   -0.3543    2.0434 C   0  0  0  0  0
    3.0057   -0.7690   -2.8440 C   0  0  0  0  0
   -4.5427   -0.2123   -0.9412 C   0  0  0  0  0
   -2.1797   -0.6033   -1.5903 C   0  0  0  0  0
   -1.7901   -0.9614    2.9402 H   0  0  0  0  0
    4.8869   -1.7240   -0.6391 H   0  0  0  0  0
    7.6749    1.1234   -1.5508 H   0  0  0  0  0
    5.8942    2.4303    0.1017 H   0  0  0  0  0
   -0.9678   -0.6234    0.8795 H   0  0  0  0  0
    3.9452    1.3443    1.7067 H   0  0  0  0  0
   -0.1420    1.2056   -0.8231 H   0  0  0  0  0
   -3.7526    2.0330    0.0851 H   0  0  0  0  0
   -2.8205    1.4753    2.0866 H   0  0  0  0  0
   -3.2859   -0.0454    1.4459 H   0  0  0  0  0
   -1.2178    3.8861   -2.0824 H   0  0  0  0  0
    3.0113    2.9118   -0.7105 H   0  0  0  0  0
    2.5275    3.0821    0.9592 H   0  0  0  0  0
    3.3116   -1.5925    1.1249 H   0  0  0  0  0
    3.8632   -0.7986    2.6203 H   0  0  0  0  0
    0.6861    3.9928    0.0036 H   0  0  0  0  0
    0.9058    3.1455   -1.5109 H   0  0  0  0  0
    0.4706    1.8244    3.3824 H   0  0  0  0  0
    0.5936    3.1814    2.2731 H   0  0  0  0  0
   -0.9784    2.6049    2.8168 H   0  0  0  0  0
   -1.3092    4.5975    0.3622 H   0  0  0  0  0
   -3.0114    4.2522    0.1241 H   0  0  0  0  0
   -2.1940    3.6043    1.5208 H   0  0  0  0  0
   -2.5838    2.9279   -3.7720 H   0  0  0  0  0
    1.3085   -0.8463    2.8457 H   0  0  0  0  0
    3.2573   -1.6163   -2.2009 H   0  0  0  0  0
    2.0542   -0.9421   -3.3523 H   0  0  0  0  0
    3.7974   -0.6643   -3.5915 H   0  0  0  0  0
   -4.4643   -0.8938   -0.0890 H   0  0  0  0  0
   -5.3324    0.5174   -0.7237 H   0  0  0  0  0
   -4.8911   -0.8152   -1.7888 H   0  0  0  0  0
   -1.1999   -0.2030   -1.8553 H   0  0  0  0  0
   -2.5081   -1.1815   -2.4632 H   0  0  0  0  0
   -2.0653   -1.3197   -0.7734 H   0  0  0  0  0
  1  6  1  0  0  0
  1  7  1  0  0  0
  2 10  1  0  0  0
  2 17  1  0  0  0
  3 11  1  0  0  0
  3 33  1  0  0  0
  4 17  2  0  0  0
  5 18  2  0  0  0
  6  8  2  0  0  0
  6 34  1  0  0  0
  7  9  2  0  0  0
  7 35  1  0  0  0
  8  9  1  0  0  0
  8 12  1  0  0  0
  9 36  1  0  0  0
 10 12  1  0  0  0
 10 19  1  0  0  0
 10 23  1  0  0  0
 11 13  1  0  0  0
 11 20  1  0  0  0
 11 37  1  0  0  0
 12 24  1  0  0  0
 12 38  1  0  0  0
 13 15  1  0  0  0
 13 19  1  0  0  0
 13 26  1  0  0  0
 14 15  1  0  0  0
 14 16  1  0  0  0
 14 21  1  0  0  0
 14 27  1  0  0  0
 15 25  1  0  0  0
 15 39  1  0  0  0
 16 20  1  0  0  0
 16 22  1  0  0  0
 16 40  1  0  0  0
 17 30  1  0  0  0
 18 22  1  0  0  0
 18 28  1  0  0  0
 19 29  2  0  0  0
 20 41  1  0  0  0
 20 42  1  0  0  0
 21 28  2  0  0  0
 21 43  1  0  0  0
 22 31  1  0  0  0
 22 32  1  0  0  0
 23 25  1  0  0  0
 23 44  1  0  0  0
 23 45  1  0  0  0
 24 29  1  0  0  0
 24 46  1  0  0  0
 24 47  1  0  0  0
 25 48  1  0  0  0
 25 49  1  0  0  0
 26 50  1  0  0  0
 26 51  1  0  0  0
 26 52  1  0  0  0
 27 53  1  0  0  0
 27 54  1  0  0  0
 27 55  1  0  0  0
 28 56  1  0  0  0
 29 57  1  0  0  0
 30 58  1  0  0  0
 30 59  1  0  0  0
 30 60  1  0  0  0
 31 61  1  0  0  0
 31 62  1  0  0  0
 31 63  1  0  0  0
 32 64  1  0  0  0
 32 65  1  0  0  0
 32 66  1  0  0  0
M  END
> <Tumorigenic>
none

> <Score>
34.38611

> <Active/Decoy>
active

> <InChI>
InChI=1S/C27H34O5/c1-16(28)32-27-12-8-19-25(4)11-9-22(29)24(2,3)21(25)14-23(30)26(19,5)20(27)7-6-18(27)17-10-13-31-15-17/h7,9-11,13,15,18-19,21,23,30H,6,8,12,14H2,1-5H3/t18-,19-,21-,23+,25-,26-,27-/m1/s1

> <Matching Features>
H:14924486185440016873||HBA:14924321692640012300|HBA:14924486112070016868

> <Mol. Index>
366

> <Pharmacophore Match>
Model -1

> <# Confs.>
4

> <Source Database>
Pharm-Screening-input-EANPDB_After_DataWarror.ldb

> <Pharmacophore-Fit Score>
34.39

> <formula>
C27H34O5

> <Mutagenic>
none

> <Reproductive Effective>
none

> <Irritant>
none

$$$$
28-acetoxy-15alpha-hydroxymansumbinone
XX    ILIB03122411363D

 64 67  0  0  1  0              1 V2000
    5.4133    1.6169   -1.9058 O   0  0  0  0  0
   -5.1588    0.6691   -2.9704 O   0  0  0  0  0
   -3.9014    0.8509    1.3849 O   0  0  0  0  0
   -3.5758    1.3326   -1.4140 O   0  0  0  0  0
    4.4509    2.5641   -1.4700 C   0  0  2  0  0
    3.0560    2.4174   -2.1816 C   0  0  1  0  0
    2.0338    1.3905   -1.4606 C   0  0  1  0  0
    0.2155    1.0916    0.5229 C   0  0  2  0  0
    1.3692    2.0017   -0.1472 C   0  0  2  0  0
   -0.8645    0.7436   -0.5609 C   0  0  2  0  0
   -2.1480   -0.0263   -0.0474 C   0  0  1  0  0
    2.5773    3.9011   -2.1940 C   0  0  2  0  0
   -4.5484    1.5335   -2.3554 C   0  0  0  0  0
   -2.6937    0.6905    1.1956 C   0  0  0  0  0
   -3.2327   -0.0227   -1.1057 C   0  0  0  0  0
    4.9019    3.9282   -1.9067 C   0  0  0  0  0
    3.8717    4.6589   -2.3437 C   0  0  0  0  0
    0.8752    0.9981   -2.4254 C   0  0  0  0  0
   -0.5297    1.8579    1.6623 C   0  0  0  0  0
    0.8504    3.4374   -0.4248 C   0  0  0  0  0
   -0.2265    0.1237   -1.8144 C   0  0  0  0  0
    1.9347    4.3732   -0.9001 C   0  0  0  0  0
    3.3010    1.9962   -3.6755 C   0  0  0  0  0
    2.8404    0.1016   -1.1435 C   0  0  0  0  0
    0.8794   -0.1459    1.1819 C   0  0  0  0  0
   -1.9078   -1.4982    0.3292 C   0  0  0  0  0
   -1.7102    1.1035    2.2650 C   0  0  0  0  0
   -4.7454    3.0053   -2.5635 C   0  0  0  0  0
    5.3783    0.8580   -1.2997 H   0  0  0  0  0
    4.3813    2.5388   -0.3758 H   0  0  0  0  0
    2.1653    2.1102    0.6030 H   0  0  0  0  0
   -1.2503    1.7179   -0.8911 H   0  0  0  0  0
    1.9108    4.0913   -3.0426 H   0  0  0  0  0
   -4.1227   -0.5494   -0.7433 H   0  0  0  0  0
   -2.8764   -0.5238   -2.0290 H   0  0  0  0  0
    5.9215    4.2812   -1.8547 H   0  0  0  0  0
    3.9420    5.6805   -2.6836 H   0  0  0  0  0
    1.2691    0.4431   -3.2840 H   0  0  0  0  0
    0.4100    1.9038   -2.8329 H   0  0  0  0  0
   -0.9584    2.7883    1.2763 H   0  0  0  0  0
    0.1762    2.1331    2.4556 H   0  0  0  0  0
    0.4701    3.8934    0.4929 H   0  0  0  0  0
    0.0295    3.4377   -1.1466 H   0  0  0  0  0
   -0.9844   -0.0140   -2.5933 H   0  0  0  0  0
    0.1608   -0.8763   -1.6033 H   0  0  0  0  0
    1.5092    5.3744   -1.0502 H   0  0  0  0  0
    2.6743    4.4824   -0.0959 H   0  0  0  0  0
    2.3999    2.1382   -4.2818 H   0  0  0  0  0
    4.0862    2.5922   -4.1559 H   0  0  0  0  0
    3.6061    0.9503   -3.7667 H   0  0  0  0  0
    2.2172   -0.7731   -0.9690 H   0  0  0  0  0
    3.4791    0.2358   -0.2666 H   0  0  0  0  0
    3.4783   -0.1967   -1.9788 H   0  0  0  0  0
    0.3688   -0.4849    2.0850 H   0  0  0  0  0
    1.8988    0.0773    1.5116 H   0  0  0  0  0
    0.9113   -1.0138    0.5235 H   0  0  0  0  0
   -1.4469   -2.0623   -0.4865 H   0  0  0  0  0
   -2.8595   -1.9909    0.5648 H   0  0  0  0  0
   -1.2925   -1.6171    1.2217 H   0  0  0  0  0
   -2.2282    1.7684    2.9671 H   0  0  0  0  0
   -1.4137    0.2201    2.8344 H   0  0  0  0  0
   -4.8924    3.4972   -1.5983 H   0  0  0  0  0
   -3.8833    3.4304   -3.0828 H   0  0  0  0  0
   -5.6433    3.1690   -3.1665 H   0  0  0  0  0
  1  5  1  0  0  0
  1 29  1  0  0  0
  2 13  2  0  0  0
  3 14  2  0  0  0
  4 13  1  0  0  0
  4 15  1  0  0  0
  5  6  1  0  0  0
  5 16  1  0  0  0
  5 30  1  0  0  0
  6  7  1  0  0  0
  6 12  1  0  0  0
  6 23  1  0  0  0
  7  9  1  0  0  0
  7 18  1  0  0  0
  7 24  1  0  0  0
  8  9  1  0  0  0
  8 10  1  0  0  0
  8 19  1  0  0  0
  8 25  1  0  0  0
  9 20  1  0  0  0
  9 31  1  0  0  0
 10 11  1  0  0  0
 10 21  1  0  0  0
 10 32  1  0  0  0
 11 14  1  0  0  0
 11 15  1  0  0  0
 11 26  1  0  0  0
 12 17  1  0  0  0
 12 22  1  0  0  0
 12 33  1  0  0  0
 13 28  1  0  0  0
 14 27  1  0  0  0
 15 34  1  0  0  0
 15 35  1  0  0  0
 16 17  2  0  0  0
 16 36  1  0  0  0
 17 37  1  0  0  0
 18 21  1  0  0  0
 18 38  1  0  0  0
 18 39  1  0  0  0
 19 27  1  0  0  0
 19 40  1  0  0  0
 19 41  1  0  0  0
 20 22  1  0  0  0
 20 42  1  0  0  0
 20 43  1  0  0  0
 21 44  1  0  0  0
 21 45  1  0  0  0
 22 46  1  0  0  0
 22 47  1  0  0  0
 23 48  1  0  0  0
 23 49  1  0  0  0
 23 50  1  0  0  0
 24 51  1  0  0  0
 24 52  1  0  0  0
 24 53  1  0  0  0
 25 54  1  0  0  0
 25 55  1  0  0  0
 25 56  1  0  0  0
 26 57  1  0  0  0
 26 58  1  0  0  0
 26 59  1  0  0  0
 27 60  1  0  0  0
 27 61  1  0  0  0
 28 62  1  0  0  0
 28 63  1  0  0  0
 28 64  1  0  0  0
M  END
> <Tumorigenic>
none

> <Score>
34.385746

> <Active/Decoy>
active

> <InChI>
InChI=1S/C24H36O4/c1-15(25)28-14-22(3)17-10-13-23(4)18(21(17,2)12-11-19(22)26)8-6-16-7-9-20(27)24(16,23)5/h7,9,16-18,20,27H,6,8,10-14H2,1-5H3/t16-,17+,18-,20-,21-,22-,23-,24-/m0/s1

> <Matching Features>
H:14924486185440016873||HBA:14924321692640012300|HBA:14924486112070016868

> <Mol. Index>
102

> <Pharmacophore Match>
Model -1

> <# Confs.>
15

> <Source Database>
Pharm-Screening-input-EANPDB_After_DataWarror.ldb

> <Pharmacophore-Fit Score>
34.39

> <formula>
C24H36O4

> <Mutagenic>
none

> <Reproductive Effective>
none

> <Irritant>
none

$$$$
(-)-mesquitol
XX    ILIB03122411363D

 35 37  0  0  1  0              1 V2000
   -0.1965    0.1377   -1.0993 O   0  0  0  0  0
    2.0027    0.9982   -2.3190 O   0  0  0  0  0
    4.4865    1.1077   -0.8863 O   0  0  0  0  0
   -5.0296   -1.7994   -3.5194 O   0  0  0  0  0
   -5.8328    0.8454   -3.6564 O   0  0  0  0  0
   -2.5585   -1.0612    1.4942 O   0  0  0  0  0
    0.9556    0.1680   -0.3610 C   0  0  0  0  0
    2.1115    0.6280   -1.0062 C   0  0  0  0  0
    3.3180    0.7008   -0.3115 C   0  0  0  0  0
   -4.3495   -0.8247   -2.8447 C   0  0  0  0  0
   -4.7429    0.5075   -2.9067 C   0  0  0  0  0
   -2.5044   -0.2572   -1.3816 C   0  0  0  0  0
    1.0018   -0.1853    0.9927 C   0  0  0  0  0
   -3.2404   -1.2025   -2.0867 C   0  0  0  0  0
   -4.0292    1.4766   -2.2104 C   0  0  0  0  0
    3.3723    0.3376    1.0334 C   0  0  0  0  0
   -2.9176    1.1018   -1.4513 C   0  0  0  0  0
    2.2200   -0.1060    1.6806 C   0  0  0  0  0
   -1.2997   -0.5861   -0.5466 C   0  0  2  0  0
   -1.4899   -0.2934    0.9502 C   0  0  2  0  0
   -0.2210   -0.6741    1.7065 C   0  0  0  0  0
    2.7936    1.4922   -2.5876 H   0  0  0  0  0
    4.3862    1.1366   -1.8502 H   0  0  0  0  0
   -5.7619   -1.3791   -4.0019 H   0  0  0  0  0
   -5.9719    1.8059   -3.5892 H   0  0  0  0  0
   -3.3842   -0.7539    1.0843 H   0  0  0  0  0
   -2.9616   -2.2524   -2.0591 H   0  0  0  0  0
   -4.3225    2.5214   -2.2483 H   0  0  0  0  0
    4.3084    0.3910    1.5827 H   0  0  0  0  0
   -2.3703    1.8721   -0.9120 H   0  0  0  0  0
    2.2752   -0.3880    2.7286 H   0  0  0  0  0
   -1.0964   -1.6721   -0.6724 H   0  0  0  0  0
   -1.6987    0.7710    1.1154 H   0  0  0  0  0
   -0.1567   -1.7642    1.8157 H   0  0  0  0  0
   -0.2707   -0.2602    2.7212 H   0  0  0  0  0
  1  7  1  0  0  0
  1 19  1  0  0  0
  2  8  1  0  0  0
  2 22  1  0  0  0
  3  9  1  0  0  0
  3 23  1  0  0  0
  4 10  1  0  0  0
  4 24  1  0  0  0
  5 11  1  0  0  0
  5 25  1  0  0  0
  6 20  1  0  0  0
  6 26  1  0  0  0
  7  8  2  0  0  0
  7 13  1  0  0  0
  8  9  1  0  0  0
  9 16  2  0  0  0
 10 11  2  0  0  0
 10 14  1  0  0  0
 11 15  1  0  0  0
 12 14  2  0  0  0
 12 17  1  0  0  0
 12 19  1  0  0  0
 13 18  2  0  0  0
 13 21  1  0  0  0
 14 27  1  0  0  0
 15 17  2  0  0  0
 15 28  1  0  0  0
 16 18  1  0  0  0
 16 29  1  0  0  0
 17 30  1  0  0  0
 18 31  1  0  0  0
 19 20  1  0  0  0
 19 32  1  0  0  0
 20 21  1  0  0  0
 20 33  1  0  0  0
 21 34  1  0  0  0
 21 35  1  0  0  0
M  END
> <Tumorigenic>
none

> <Score>
34.381668

> <Active/Decoy>
active

> <InChI>
InChI=1S/C15H14O6/c16-9-3-1-7(5-11(9)18)14-12(19)6-8-2-4-10(17)13(20)15(8)21-14/h1-5,12,14,16-20H,6H2/t12-,14+/m0/s1

> <Matching Features>
H:14924486185440016873||HBA:14924321692640012300|HBA:14924486112070016868

> <Mol. Index>
326

> <Pharmacophore Match>
Model -1

> <# Confs.>
11

> <Source Database>
Pharm-Screening-input-EANPDB_After_DataWarror.ldb

> <Pharmacophore-Fit Score>
34.38

> <formula>
C15H14O6

> <Mutagenic>
none

> <Reproductive Effective>
none

> <Irritant>
none

$$$$
vebenaline
XX    ILIB03122411363D

 51 53  0  0  1  0              1 V2000
   -1.2042    0.0085   -1.4968 O   0  0  0  0  0
   -2.7290    1.6479   -2.2345 O   0  0  0  0  0
    0.5574    1.0131   -2.6862 O   0  0  0  0  0
   -2.7147   -1.9602   -2.8776 O   0  0  0  0  0
   -5.5085   -1.2438   -3.1517 O   0  0  0  0  0
   -5.7973    1.4347   -4.2213 O   0  0  0  0  0
    4.8041    2.1961   -0.9253 O   0  0  0  0  0
    2.2065    3.4041    0.9694 O   0  0  0  0  0
    3.7646    3.4383   -2.5715 O   0  0  0  0  0
   -2.9948    4.3529   -2.9309 O   0  0  0  0  0
   -2.1561    0.3557   -2.5097 C   0  0  2  0  0
   -0.1023    0.9064   -1.4213 C   0  0  2  0  0
   -3.2525   -0.7138   -2.4706 C   0  0  1  0  0
   -4.4159   -0.3553   -3.3949 C   0  0  2  0  0
   -4.8813    1.0866   -3.1883 C   0  0  1  0  0
   -3.6898    2.0468   -3.2185 C   0  0  1  0  0
    0.8311    0.3909   -0.3183 C   0  0  1  0  0
    2.0860    1.2755   -0.2107 C   0  0  2  0  0
    0.1830    0.4738    1.0868 C   0  0  2  0  0
    3.8339    2.4812   -1.6112 C   0  0  0  0  0
    1.6319    2.3393    0.7760 C   0  0  0  0  0
   -4.1103    3.4732   -2.8948 C   0  0  0  0  0
    1.7767    1.6358   -2.6339 C   0  0  0  0  0
    4.9708    4.1811   -2.7863 C   0  0  0  0  0
    2.5156    1.8299   -1.5314 C   0  0  0  0  0
    0.3792    1.9332    1.5151 C   0  0  0  0  0
    0.8419   -0.4904    2.0755 C   0  0  0  0  0
   -1.9550   -2.1512   -2.3014 H   0  0  0  0  0
   -5.7925   -1.1217   -2.2301 H   0  0  0  0  0
   -6.5341    0.8020   -4.1816 H   0  0  0  0  0
   -2.3881    4.0900   -2.2197 H   0  0  0  0  0
   -1.6762    0.3595   -3.4898 H   0  0  0  0  0
   -0.5102    1.9025   -1.1653 H   0  0  0  0  0
   -3.6287   -0.8438   -1.4385 H   0  0  0  0  0
   -4.1280   -0.5160   -4.4407 H   0  0  0  0  0
   -5.4119    1.1699   -2.2312 H   0  0  0  0  0
   -3.2081    2.0429   -4.2053 H   0  0  0  0  0
    1.1158   -0.6338   -0.5532 H   0  0  0  0  0
    2.8952    0.7041    0.2591 H   0  0  0  0  0
   -0.8859    0.2331    1.0558 H   0  0  0  0  0
   -4.8378    3.8294   -3.6329 H   0  0  0  0  0
   -4.5926    3.5488   -1.9138 H   0  0  0  0  0
    2.0743    1.9127   -3.6360 H   0  0  0  0  0
    5.7678    3.5136   -3.1257 H   0  0  0  0  0
    4.7784    4.9229   -3.5658 H   0  0  0  0  0
    5.2637    4.7023   -1.8707 H   0  0  0  0  0
    0.5084    2.0470    2.5942 H   0  0  0  0  0
   -0.4466    2.5610    1.1661 H   0  0  0  0  0
    0.3710   -0.4078    3.0609 H   0  0  0  0  0
    1.9105   -0.2911    2.1987 H   0  0  0  0  0
    0.7270   -1.5254    1.7370 H   0  0  0  0  0
  1 11  1  0  0  0
  1 12  1  0  0  0
  2 11  1  0  0  0
  2 16  1  0  0  0
  3 12  1  0  0  0
  3 23  1  0  0  0
  4 13  1  0  0  0
  4 28  1  0  0  0
  5 14  1  0  0  0
  5 29  1  0  0  0
  6 15  1  0  0  0
  6 30  1  0  0  0
  7 20  2  0  0  0
  8 21  2  0  0  0
  9 20  1  0  0  0
  9 24  1  0  0  0
 10 22  1  0  0  0
 10 31  1  0  0  0
 11 13  1  0  0  0
 11 32  1  0  0  0
 12 17  1  0  0  0
 12 33  1  0  0  0
 13 14  1  0  0  0
 13 34  1  0  0  0
 14 15  1  0  0  0
 14 35  1  0  0  0
 15 16  1  0  0  0
 15 36  1  0  0  0
 16 22  1  0  0  0
 16 37  1  0  0  0
 17 18  1  0  0  0
 17 19  1  0  0  0
 17 38  1  0  0  0
 18 21  1  0  0  0
 18 25  1  0  0  0
 18 39  1  0  0  0
 19 26  1  0  0  0
 19 27  1  0  0  0
 19 40  1  0  0  0
 20 25  1  0  0  0
 21 26  1  0  0  0
 22 41  1  0  0  0
 22 42  1  0  0  0
 23 25  2  0  0  0
 23 43  1  0  0  0
 24 44  1  0  0  0
 24 45  1  0  0  0
 24 46  1  0  0  0
 26 47  1  0  0  0
 26 48  1  0  0  0
 27 49  1  0  0  0
 27 50  1  0  0  0
 27 51  1  0  0  0
M  END
> <Tumorigenic>
none

> <Score>
34.36833

> <Active/Decoy>
active

> <InChI>
InChI=1S/C17H24O10/c1-6-3-8(19)11-7(15(23)24-2)5-25-16(10(6)11)27-17-14(22)13(21)12(20)9(4-18)26-17/h5-6,9-14,16-18,20-22H,3-4H2,1-2H3/t6-,9+,10+,11-,12+,13-,14+,16-,17-/m0/s1

> <Matching Features>
H:14924486185440016873||HBA:14924321692640012300|HBA:14924486112070016868

> <Mol. Index>
465

> <Pharmacophore Match>
Model -1

> <# Confs.>
20

> <Source Database>
Pharm-Screening-input-EANPDB_After_DataWarror.ldb

> <Pharmacophore-Fit Score>
34.37

> <formula>
C17H24O10

> <Mutagenic>
none

> <Reproductive Effective>
none

> <Irritant>
none

$$$$
hydroxysmirnovine
XX    ILIB03122411363D

 42 41  0  0  1  0              1 V2000
   -5.7691    0.9364   -3.8727 O   0  0  0  0  0
    4.0428    1.0761   -0.9523 O   0  0  0  0  0
    0.5695   -2.1681   -0.4895 N   0  0  0  0  0
   -0.8334   -0.5062    0.5052 N   0  0  0  0  0
   -3.4568    1.0863   -3.8507 N   0  0  0  0  0
   -1.7421   -2.3733   -0.5718 N   0  0  0  0  0
   -4.6642    0.5515   -4.2488 C   0  0  0  0  0
    3.3290    1.7016    0.1075 C   0  0  0  0  0
   -0.6112   -1.6891   -0.1913 C   0  0  0  0  0
    0.1273   -0.0270    1.5177 C   0  0  0  0  0
   -1.9828    0.3416    0.3035 C   0  0  0  0  0
   -3.3601    2.1997   -2.9162 C   0  0  0  0  0
    2.4823    0.7019    0.8260 C   0  0  0  0  0
    1.1461    0.8652    0.8792 C   0  0  0  0  0
   -2.0811    0.8289   -1.1402 C   0  0  0  0  0
   -3.2758    1.7206   -1.4736 C   0  0  0  0  0
   -4.5203   -0.5840   -5.2284 C   0  0  0  0  0
    3.2375   -0.4480    1.4330 C   0  0  0  0  0
    3.3877    0.7181   -1.5760 H   0  0  0  0  0
    1.2980   -1.5414   -0.1364 H   0  0  0  0  0
   -2.5959    0.7467   -4.2715 H   0  0  0  0  0
   -2.6757   -2.0462   -0.3546 H   0  0  0  0  0
   -1.6712   -3.2451   -1.0856 H   0  0  0  0  0
    4.0582    2.1399    0.7954 H   0  0  0  0  0
    2.7348    2.5194   -0.3146 H   0  0  0  0  0
   -0.4068    0.4932    2.3225 H   0  0  0  0  0
    0.6373   -0.8789    1.9825 H   0  0  0  0  0
   -1.9107    1.2072    0.9704 H   0  0  0  0  0
   -2.9063   -0.1974    0.5984 H   0  0  0  0  0
   -4.2292    2.8516   -3.0561 H   0  0  0  0  0
   -2.4616    2.7490   -3.1760 H   0  0  0  0  0
    0.7222    1.7441    0.3938 H   0  0  0  0  0
   -1.1494    1.3524   -1.3853 H   0  0  0  0  0
   -2.1042   -0.0721   -1.7872 H   0  0  0  0  0
   -4.1990    1.1655   -1.2178 H   0  0  0  0  0
   -3.2397    2.5851   -0.8096 H   0  0  0  0  0
   -3.4738   -0.8561   -5.3907 H   0  0  0  0  0
   -4.9583   -0.2867   -6.1859 H   0  0  0  0  0
   -5.0497   -1.4570   -4.8390 H   0  0  0  0  0
    2.6008   -1.1751    1.9384 H   0  0  0  0  0
    3.9554   -0.0814    2.1737 H   0  0  0  0  0
    3.7912   -0.9842    0.6547 H   0  0  0  0  0
  1  7  2  0  0  0
  2  8  1  0  0  0
  2 19  1  0  0  0
  3  9  2  0  0  0
  3 20  1  0  0  0
  4  9  1  0  0  0
  4 10  1  0  0  0
  4 11  1  0  0  0
  5  7  1  0  0  0
  5 12  1  0  0  0
  5 21  1  0  0  0
  6  9  1  0  0  0
  6 22  1  0  0  0
  6 23  1  0  0  0
  7 17  1  0  0  0
  8 13  1  0  0  0
  8 24  1  0  0  0
  8 25  1  0  0  0
 10 14  1  0  0  0
 10 26  1  0  0  0
 10 27  1  0  0  0
 11 15  1  0  0  0
 11 28  1  0  0  0
 11 29  1  0  0  0
 12 16  1  0  0  0
 12 30  1  0  0  0
 12 31  1  0  0  0
 13 14  2  0  0  0
 13 18  1  0  0  0
 14 32  1  0  0  0
 15 16  1  0  0  0
 15 33  1  0  0  0
 15 34  1  0  0  0
 16 35  1  0  0  0
 16 36  1  0  0  0
 17 37  1  0  0  0
 17 38  1  0  0  0
 17 39  1  0  0  0
 18 40  1  0  0  0
 18 41  1  0  0  0
 18 42  1  0  0  0
M  END
> <Tumorigenic>
none

> <Score>
34.3655

> <Active/Decoy>
active

> <InChI>
InChI=1S/C12H24N4O2/c1-10(9-17)5-8-16(12(13)14)7-4-3-6-15-11(2)18/h5,17H,3-4,6-9H2,1-2H3,(H3,13,14)(H,15,18)/b10-5+

> <Matching Features>
H:14924486185440016873||HBA:14924321692640012300|HBA:14924486112070016868

> <Mol. Index>
334

> <Pharmacophore Match>
Model -1

> <# Confs.>
25

> <Source Database>
Pharm-Screening-input-EANPDB_After_DataWarror.ldb

> <Pharmacophore-Fit Score>
34.37

> <formula>
C12H24N4O2

> <Mutagenic>
none

> <Reproductive Effective>
none

> <Irritant>
none

$$$$
6alpha,17,19-ent-trachylobantriol
XX    ILIB03122411363D

 55 59  0  0  1  0              1 V2000
    2.3967   -1.3953   -2.3284 O   0  0  0  0  0
   -4.7608    0.7106   -2.9456 O   0  0  0  0  0
    5.1428    1.7351   -2.3050 O   0  0  0  0  0
    1.4648   -0.8258   -1.4164 C   0  0  1  0  0
    2.0985    0.2828   -0.5199 C   0  0  2  0  0
    1.0058    0.8142    0.5034 C   0  0  2  0  0
   -3.0958    1.1295   -1.2644 C   0  0  1  0  0
   -2.8385    1.3881    0.1939 C   0  0  1  0  0
   -3.0433   -0.0054   -0.3110 C   0  0  2  0  0
   -0.3179    1.2370   -0.2462 C   0  0  1  0  0
    3.0127    1.3806   -1.2363 C   0  0  2  0  0
   -0.8758    0.2157   -1.2920 C   0  0  2  0  0
   -4.3888    1.5829   -1.8850 C   0  0  0  0  0
    4.3313    0.7576   -1.6696 C   0  0  0  0  0
    0.2039   -0.4078   -2.1691 C   0  0  0  0  0
   -1.9016    0.9993   -2.1842 C   0  0  0  0  0
   -1.4610    1.7616    0.6765 C   0  0  0  0  0
   -1.8252   -0.8274   -0.6276 C   0  0  0  0  0
    1.5529    2.0066    1.3368 C   0  0  0  0  0
    3.3849    2.5184   -0.2440 C   0  0  0  0  0
    0.7504   -0.3062    1.5553 C   0  0  0  0  0
    2.3834    2.0291   -2.4858 C   0  0  0  0  0
    2.1999    3.0957    0.5055 C   0  0  0  0  0
    2.3715   -0.8845   -3.1543 H   0  0  0  0  0
   -4.8966   -0.1765   -2.5720 H   0  0  0  0  0
    4.6503    2.0699   -3.0755 H   0  0  0  0  0
    1.1877   -1.6638   -0.7697 H   0  0  0  0  0
    2.8281   -0.2582    0.1024 H   0  0  0  0  0
   -3.6190    1.8339    0.7968 H   0  0  0  0  0
   -3.9316   -0.5550   -0.0484 H   0  0  0  0  0
   -0.0389    2.1160   -0.8377 H   0  0  0  0  0
   -5.2121    1.5737   -1.1431 H   0  0  0  0  0
   -4.3084    2.5901   -2.2736 H   0  0  0  0  0
    4.1738   -0.0709   -2.3693 H   0  0  0  0  0
    4.8844    0.3668   -0.8083 H   0  0  0  0  0
   -0.1958   -1.2831   -2.6994 H   0  0  0  0  0
    0.4638    0.2828   -2.9768 H   0  0  0  0  0
   -1.5228    1.9743   -2.5082 H   0  0  0  0  0
   -2.1629    0.4175   -3.0765 H   0  0  0  0  0
   -1.3912    2.8542    0.7445 H   0  0  0  0  0
   -1.3672    1.3879    1.6979 H   0  0  0  0  0
   -2.0969   -1.6217   -1.3325 H   0  0  0  0  0
   -1.4300   -1.2960    0.2708 H   0  0  0  0  0
    2.3043    1.6408    2.0497 H   0  0  0  0  0
    0.7618    2.4498    1.9532 H   0  0  0  0  0
    4.1081    2.1386    0.4908 H   0  0  0  0  0
    3.8934    3.3392   -0.7660 H   0  0  0  0  0
    0.0345   -0.0044    2.3247 H   0  0  0  0  0
    0.3971   -1.2396    1.1208 H   0  0  0  0  0
    1.6800   -0.5565    2.0832 H   0  0  0  0  0
    1.3901    2.4335   -2.2987 H   0  0  0  0  0
    2.3176    1.3221   -3.3174 H   0  0  0  0  0
    2.9946    2.8637   -2.8497 H   0  0  0  0  0
    2.5541    3.8902    1.1732 H   0  0  0  0  0
    1.4869    3.5637   -0.1770 H   0  0  0  0  0
  1  4  1  0  0  0
  1 24  1  0  0  0
  2 13  1  0  0  0
  2 25  1  0  0  0
  3 14  1  0  0  0
  3 26  1  0  0  0
  4  5  1  0  0  0
  4 15  1  0  0  0
  4 27  1  0  0  0
  5  6  1  0  0  0
  5 11  1  0  0  0
  5 28  1  0  0  0
  6 10  1  0  0  0
  6 19  1  0  0  0
  6 21  1  0  0  0
  7  8  1  0  0  0
  7  9  1  0  0  0
  7 13  1  0  0  0
  7 16  1  0  0  0
  8  9  1  0  0  0
  8 17  1  0  0  0
  8 29  1  0  0  0
  9 18  1  0  0  0
  9 30  1  0  0  0
 10 12  1  0  0  0
 10 17  1  0  0  0
 10 31  1  0  0  0
 11 14  1  0  0  0
 11 20  1  0  0  0
 11 22  1  0  0  0
 12 15  1  0  0  0
 12 16  1  0  0  0
 12 18  1  0  0  0
 13 32  1  0  0  0
 13 33  1  0  0  0
 14 34  1  0  0  0
 14 35  1  0  0  0
 15 36  1  0  0  0
 15 37  1  0  0  0
 16 38  1  0  0  0
 16 39  1  0  0  0
 17 40  1  0  0  0
 17 41  1  0  0  0
 18 42  1  0  0  0
 18 43  1  0  0  0
 19 23  1  0  0  0
 19 44  1  0  0  0
 19 45  1  0  0  0
 20 23  1  0  0  0
 20 46  1  0  0  0
 20 47  1  0  0  0
 21 48  1  0  0  0
 21 49  1  0  0  0
 21 50  1  0  0  0
 22 51  1  0  0  0
 22 52  1  0  0  0
 22 53  1  0  0  0
 23 54  1  0  0  0
 23 55  1  0  0  0
M  END
> <Tumorigenic>
none

> <Score>
34.369976

> <Active/Decoy>
active

> <InChI>
InChI=1S/C20H32O3/c1-17(10-21)4-3-5-18(2)15-6-12-13-7-19(15,8-14(23)16(17)18)9-20(12,13)11-22/h12-16,21-23H,3-11H2,1-2H3/t12-,13+,14-,15+,16+,17+,18+,19-,20+/m1/s1

> <Matching Features>
H:14924486185440016873||HBA:14924321692640012300|HBA:14924486112070016868

> <Mol. Index>
167

> <Pharmacophore Match>
Model -1

> <# Confs.>
16

> <Source Database>
Pharm-Screening-input-EANPDB_After_DataWarror.ldb

> <Pharmacophore-Fit Score>
34.37

> <formula>
C20H32O3

> <Mutagenic>
none

> <Reproductive Effective>
none

> <Irritant>
none

$$$$
macarangin
XX    ILIB03122411363D

 57 59  0  0  1  0              1 V2000
   -0.8836    2.2293   -4.3263 O   0  0  0  0  0
   -2.7244   -0.2498   -1.6840 O   0  0  0  0  0
   -4.2733    1.0113   -3.5674 O   0  0  0  0  0
   -0.4340   -0.7044   -0.5348 O   0  0  0  0  0
    3.3873    1.5507   -2.4110 O   0  0  0  0  0
   -4.7680    4.8309   -8.5332 O   0  0  0  0  0
   -2.2506    2.0058   -4.3845 C   0  0  0  0  0
   -0.1440    1.5981   -3.3611 C   0  0  0  0  0
   -2.1488    0.4921   -2.4689 C   0  0  0  0  0
   -2.9102    1.2032   -3.5289 C   0  0  0  0  0
    0.1435    0.1277   -1.4588 C   0  0  0  0  0
    2.0465    1.2655   -2.4078 C   0  0  0  0  0
   -4.1432    4.1620   -7.5136 C   0  0  0  0  0
   -0.6904    0.7313   -2.4180 C   0  0  0  0  0
   -2.8995    2.7467   -5.4609 C   0  0  0  0  0
    1.5387    0.3793   -1.4521 C   0  0  0  0  0
    1.2221    1.8702   -3.3572 C   0  0  0  0  0
   -4.2234    2.7717   -7.4912 C   0  0  0  0  0
   -3.4471    4.8531   -6.5258 C   0  0  0  0  0
   -3.6012    2.0654   -6.4629 C   0  0  0  0  0
   -2.8252    4.1457   -5.4990 C   0  0  0  0  0
    2.4515   -0.2512   -0.4544 C   0  0  0  0  0
    2.3092    0.2359    2.0663 C   0  0  0  0  0
   -0.1688    2.9580    1.5946 C   0  0  0  0  0
    2.6038    0.5554    0.8066 C   0  0  0  0  0
    1.0053    2.9430    2.2545 C   0  0  0  0  0
    2.5718    1.2063    3.1786 C   0  0  0  0  0
    1.3806    2.1202    3.4485 C   0  0  0  0  0
    1.7273   -1.0807    2.5002 C   0  0  0  0  0
   -0.3756    3.8841    0.4260 C   0  0  0  0  0
   -1.3522    2.0890    1.9148 C   0  0  0  0  0
   -4.5039    0.3963   -2.8501 H   0  0  0  0  0
    0.2057   -0.9461    0.1521 H   0  0  0  0  0
    3.5750    2.1722   -3.1353 H   0  0  0  0  0
   -4.6188    5.7835   -8.4113 H   0  0  0  0  0
    1.6393    2.5540   -4.0921 H   0  0  0  0  0
   -4.7669    2.2359   -8.2620 H   0  0  0  0  0
   -3.3857    5.9388   -6.5442 H   0  0  0  0  0
   -3.6707    0.9798   -6.4517 H   0  0  0  0  0
   -2.2861    4.6935   -4.7303 H   0  0  0  0  0
    3.4399   -0.4061   -0.8936 H   0  0  0  0  0
    2.0821   -1.2607   -0.1978 H   0  0  0  0  0
    3.0296    1.5594    0.6172 H   0  0  0  0  0
    1.7916    3.6150    1.9118 H   0  0  0  0  0
    3.4599    1.8127    2.9637 H   0  0  0  0  0
    2.7936    0.6334    4.0858 H   0  0  0  0  0
    0.5282    1.5220    3.7928 H   0  0  0  0  0
    1.6359    2.8026    4.2688 H   0  0  0  0  0
    1.5593   -1.7784    1.6782 H   0  0  0  0  0
    0.7608   -0.9255    2.9904 H   0  0  0  0  0
    2.3991   -1.5708    3.2119 H   0  0  0  0  0
    0.5039    4.5048    0.2239 H   0  0  0  0  0
   -0.5912    3.3102   -0.4800 H   0  0  0  0  0
   -1.2183    4.5572    0.6202 H   0  0  0  0  0
   -1.6713    1.5466    1.0185 H   0  0  0  0  0
   -1.1474    1.3393    2.6813 H   0  0  0  0  0
   -2.1892    2.7051    2.2610 H   0  0  0  0  0
  1  7  1  0  0  0
  1  8  1  0  0  0
  2  9  2  0  0  0
  3 10  1  0  0  0
  3 32  1  0  0  0
  4 11  1  0  0  0
  4 33  1  0  0  0
  5 12  1  0  0  0
  5 34  1  0  0  0
  6 13  1  0  0  0
  6 35  1  0  0  0
  7 10  2  0  0  0
  7 15  1  0  0  0
  8 14  1  0  0  0
  8 17  2  0  0  0
  9 10  1  0  0  0
  9 14  1  0  0  0
 11 14  2  0  0  0
 11 16  1  0  0  0
 12 16  2  0  0  0
 12 17  1  0  0  0
 13 18  2  0  0  0
 13 19  1  0  0  0
 15 20  2  0  0  0
 15 21  1  0  0  0
 16 22  1  0  0  0
 17 36  1  0  0  0
 18 20  1  0  0  0
 18 37  1  0  0  0
 19 21  2  0  0  0
 19 38  1  0  0  0
 20 39  1  0  0  0
 21 40  1  0  0  0
 22 25  1  0  0  0
 22 41  1  0  0  0
 22 42  1  0  0  0
 23 25  2  0  0  0
 23 27  1  0  0  0
 23 29  1  0  0  0
 24 26  2  0  0  0
 24 30  1  0  0  0
 24 31  1  0  0  0
 25 43  1  0  0  0
 26 28  1  0  0  0
 26 44  1  0  0  0
 27 28  1  0  0  0
 27 45  1  0  0  0
 27 46  1  0  0  0
 28 47  1  0  0  0
 28 48  1  0  0  0
 29 49  1  0  0  0
 29 50  1  0  0  0
 29 51  1  0  0  0
 30 52  1  0  0  0
 30 53  1  0  0  0
 30 54  1  0  0  0
 31 55  1  0  0  0
 31 56  1  0  0  0
 31 57  1  0  0  0
M  END
> <Tumorigenic>
none

> <Score>
34.35948

> <Active/Decoy>
active

> <InChI>
InChI=1S/C25H26O6/c1-14(2)5-4-6-15(3)7-12-18-19(27)13-20-21(22(18)28)23(29)24(30)25(31-20)16-8-10-17(26)11-9-16/h5,7-11,13,26-28,30H,4,6,12H2,1-3H3/b15-7+

> <Matching Features>
H:14924486185440016873||HBA:14924321692640012300|HBA:14924486112070016868

> <Mol. Index>
52

> <Pharmacophore Match>
Model -1

> <# Confs.>
25

> <Source Database>
Pharm-Screening-input-EANPDB_After_DataWarror.ldb

> <Pharmacophore-Fit Score>
34.36

> <formula>
C25H26O6

> <Mutagenic>
none

> <Reproductive Effective>
none

> <Irritant>
none

$$$$
15alpha-hydroxymansumbinone
XX    ILIB03122411363D

 58 61  0  0  1  0              1 V2000
    3.7011    1.0922   -1.1089 O   0  0  0  0  0
   -5.2002    0.9331   -3.6735 O   0  0  0  0  0
    2.6759    0.4272   -0.3877 C   0  0  2  0  0
    1.6414    1.4045    0.2918 C   0  0  1  0  0
    0.3122    1.6337   -0.5918 C   0  0  1  0  0
   -2.2207    0.6110   -0.7263 C   0  0  1  0  0
   -0.6272    0.3418   -0.6536 C   0  0  2  0  0
    1.3635    0.7158    1.6716 C   0  0  2  0  0
   -2.4688    1.9287   -1.5182 C   0  0  1  0  0
   -4.5123    0.9316   -2.6508 C   0  0  0  0  0
    3.3028   -0.2813    0.7680 C   0  0  0  0  0
    2.5950   -0.1211    1.8867 C   0  0  0  0  0
   -3.9174    2.2193   -2.0580 C   0  0  0  0  0
   -0.5146    2.8273   -0.0502 C   0  0  0  0  0
   -2.8622   -0.5612   -1.5280 C   0  0  0  0  0
   -0.2651   -0.7381    0.3909 C   0  0  0  0  0
    0.1158   -0.1550    1.7403 C   0  0  0  0  0
   -1.8219    3.1296   -0.7996 C   0  0  0  0  0
    2.3684    2.7535    0.6097 C   0  0  0  0  0
    0.7662    2.0073   -2.0408 C   0  0  0  0  0
   -2.8811    0.6498    0.6733 C   0  0  0  0  0
   -4.3277   -0.3479   -1.8732 C   0  0  0  0  0
   -3.8177    3.2631   -3.2014 C   0  0  0  0  0
   -4.9287    2.7768   -1.0452 C   0  0  0  0  0
    3.3129    1.4587   -1.9193 H   0  0  0  0  0
    2.2093   -0.3080   -1.0492 H   0  0  0  0  0
   -0.3824   -0.1367   -1.6134 H   0  0  0  0  0
    1.3097    1.4577    2.4788 H   0  0  0  0  0
   -1.9051    1.7733   -2.4456 H   0  0  0  0  0
    4.2011   -0.8791    0.6987 H   0  0  0  0  0
    2.8556   -0.5682    2.8358 H   0  0  0  0  0
   -0.7373    2.6627    1.0095 H   0  0  0  0  0
    0.0752    3.7520   -0.0784 H   0  0  0  0  0
   -2.7673   -1.5031   -0.9757 H   0  0  0  0  0
   -2.3139   -0.6994   -2.4696 H   0  0  0  0  0
    0.5652   -1.3461    0.0121 H   0  0  0  0  0
   -1.0774   -1.4600    0.5166 H   0  0  0  0  0
    0.2508   -0.9709    2.4616 H   0  0  0  0  0
   -0.7030    0.4488    2.1395 H   0  0  0  0  0
   -2.5126    3.5753   -0.0766 H   0  0  0  0  0
   -1.6161    3.9140   -1.5386 H   0  0  0  0  0
    1.7701    3.3872    1.2721 H   0  0  0  0  0
    3.3209    2.5876    1.1272 H   0  0  0  0  0
    2.5931    3.3295   -0.2911 H   0  0  0  0  0
    1.2275    1.1565   -2.5506 H   0  0  0  0  0
   -0.0440    2.3419   -2.6880 H   0  0  0  0  0
    1.4862    2.8301   -2.0397 H   0  0  0  0  0
   -3.9621    0.7585    0.6259 H   0  0  0  0  0
   -2.5161    1.4698    1.2933 H   0  0  0  0  0
   -2.7292   -0.2818    1.2258 H   0  0  0  0  0
   -4.6707   -1.1812   -2.4957 H   0  0  0  0  0
   -4.9687   -0.3241   -0.9884 H   0  0  0  0  0
   -3.4400    4.2246   -2.8403 H   0  0  0  0  0
   -4.7957    3.4558   -3.6580 H   0  0  0  0  0
   -3.1555    2.9143   -4.0014 H   0  0  0  0  0
   -5.8916    2.9721   -1.5348 H   0  0  0  0  0
   -5.1533    2.0869   -0.2330 H   0  0  0  0  0
   -4.5994    3.7249   -0.6109 H   0  0  0  0  0
  1  3  1  0  0  0
  1 25  1  0  0  0
  2 10  2  0  0  0
  3  4  1  0  0  0
  3 11  1  0  0  0
  3 26  1  0  0  0
  4  5  1  0  0  0
  4  8  1  0  0  0
  4 19  1  0  0  0
  5  7  1  0  0  0
  5 14  1  0  0  0
  5 20  1  0  0  0
  6  7  1  0  0  0
  6  9  1  0  0  0
  6 15  1  0  0  0
  6 21  1  0  0  0
  7 16  1  0  0  0
  7 27  1  0  0  0
  8 12  1  0  0  0
  8 17  1  0  0  0
  8 28  1  0  0  0
  9 13  1  0  0  0
  9 18  1  0  0  0
  9 29  1  0  0  0
 10 13  1  0  0  0
 10 22  1  0  0  0
 11 12  2  0  0  0
 11 30  1  0  0  0
 12 31  1  0  0  0
 13 23  1  0  0  0
 13 24  1  0  0  0
 14 18  1  0  0  0
 14 32  1  0  0  0
 14 33  1  0  0  0
 15 22  1  0  0  0
 15 34  1  0  0  0
 15 35  1  0  0  0
 16 17  1  0  0  0
 16 36  1  0  0  0
 16 37  1  0  0  0
 17 38  1  0  0  0
 17 39  1  0  0  0
 18 40  1  0  0  0
 18 41  1  0  0  0
 19 42  1  0  0  0
 19 43  1  0  0  0
 19 44  1  0  0  0
 20 45  1  0  0  0
 20 46  1  0  0  0
 20 47  1  0  0  0
 21 48  1  0  0  0
 21 49  1  0  0  0
 21 50  1  0  0  0
 22 51  1  0  0  0
 22 52  1  0  0  0
 23 53  1  0  0  0
 23 54  1  0  0  0
 23 55  1  0  0  0
 24 56  1  0  0  0
 24 57  1  0  0  0
 24 58  1  0  0  0
M  END
> <Tumorigenic>
none

> <Score>
34.327477

> <Active/Decoy>
active

> <InChI>
InChI=1S/C22H34O2/c1-19(2)15-10-13-21(4)16(20(15,3)12-11-17(19)23)8-6-14-7-9-18(24)22(14,21)5/h7,9,14-16,18,24H,6,8,10-13H2,1-5H3/t14-,15+,16-,18-,20+,21+,22-/m0/s1

> <Matching Features>
H:14924486185440016873||HBA:14924321692640012300|HBA:14924486112070016868

> <Mol. Index>
96

> <Pharmacophore Match>
Model -1

> <# Confs.>
4

> <Source Database>
Pharm-Screening-input-EANPDB_After_DataWarror.ldb

> <Pharmacophore-Fit Score>
34.33

> <formula>
C22H34O2

> <Mutagenic>
none

> <Reproductive Effective>
none

> <Irritant>
none

$$$$
isolophanthin A
XX    ILIB03122411363D

 52 54  0  0  1  0              1 V2000
    4.5348    1.6788   -2.3614 O   0  0  0  0  0
   -4.3364    0.7745   -2.9703 O   0  0  0  0  0
    0.0294    0.7281   -0.3907 C   0  0  0  0  0
   -0.6630   -0.1794   -1.2158 C   0  0  0  0  0
   -2.4848    1.4360   -1.5700 C   0  0  0  0  0
   -0.5643    1.9792   -0.1546 C   0  0  0  0  0
   -1.8940    0.1904   -1.7981 C   0  0  0  0  0
   -1.7945    2.3254   -0.7217 C   0  0  0  0  0
    3.8320    1.0518   -1.2904 C   0  0  2  0  0
    1.3478    0.3210    0.2762 C   0  0  1  0  0
    2.1321   -0.7283   -0.5967 C   0  0  2  0  0
   -3.8096    1.8309   -2.1696 C   0  0  0  0  0
   -0.1269   -1.5456   -1.5601 C   0  0  0  0  0
    2.9663   -0.1339   -1.8077 C   0  0  0  0  0
    3.0058    2.1054   -0.5625 C   0  0  0  0  0
    2.3065    1.4898    0.6360 C   0  0  0  0  0
    1.2180   -1.9176   -0.9456 C   0  0  0  0  0
    0.9341   -0.3137    1.6361 C   0  0  0  0  0
   -3.6604    3.0380   -3.0981 C   0  0  0  0  0
   -4.8411    2.1477   -1.0661 C   0  0  0  0  0
    3.9379   -1.2167   -2.3460 C   0  0  0  0  0
    2.1204    0.3206   -3.0163 C   0  0  0  0  0
    5.0956    2.3750   -1.9787 H   0  0  0  0  0
   -4.6239    0.0533   -2.3731 H   0  0  0  0  0
   -0.0995    2.7108    0.4980 H   0  0  0  0  0
   -2.3990   -0.5337   -2.4350 H   0  0  0  0  0
   -2.2063    3.3088   -0.5070 H   0  0  0  0  0
    4.5935    0.6633   -0.6029 H   0  0  0  0  0
    2.8987   -1.1493    0.0731 H   0  0  0  0  0
   -0.8654   -2.2970   -1.2503 H   0  0  0  0  0
   -0.0550   -1.6271   -2.6511 H   0  0  0  0  0
    3.6661    2.9129   -0.2232 H   0  0  0  0  0
    2.2908    2.5843   -1.2392 H   0  0  0  0  0
    1.8039    2.2755    1.2084 H   0  0  0  0  0
    3.0867    1.1095    1.3122 H   0  0  0  0  0
    1.0197   -2.4780   -0.0225 H   0  0  0  0  0
    1.7232   -2.6453   -1.5889 H   0  0  0  0  0
    1.8009   -0.7428    2.1527 H   0  0  0  0  0
    0.4938    0.4369    2.3033 H   0  0  0  0  0
    0.1882   -1.1071    1.5246 H   0  0  0  0  0
   -2.9386    2.8250   -3.8957 H   0  0  0  0  0
   -4.6117    3.2659   -3.5948 H   0  0  0  0  0
   -3.3285    3.9380   -2.5699 H   0  0  0  0  0
   -4.9863    1.2855   -0.4053 H   0  0  0  0  0
   -4.5407    3.0011   -0.4487 H   0  0  0  0  0
   -5.8207    2.3706   -1.5061 H   0  0  0  0  0
    4.5604   -1.6255   -1.5413 H   0  0  0  0  0
    3.4056   -2.0505   -2.8136 H   0  0  0  0  0
    4.6126   -0.8088   -3.1066 H   0  0  0  0  0
    2.7514    0.7368   -3.8099 H   0  0  0  0  0
    1.5875   -0.5153   -3.4742 H   0  0  0  0  0
    1.3954    1.0953   -2.7572 H   0  0  0  0  0
  1  9  1  0  0  0
  1 23  1  0  0  0
  2 12  1  0  0  0
  2 24  1  0  0  0
  3  4  2  0  0  0
  3  6  1  0  0  0
  3 10  1  0  0  0
  4  7  1  0  0  0
  4 13  1  0  0  0
  5  7  2  0  0  0
  5  8  1  0  0  0
  5 12  1  0  0  0
  6  8  2  0  0  0
  6 25  1  0  0  0
  7 26  1  0  0  0
  8 27  1  0  0  0
  9 14  1  0  0  0
  9 15  1  0  0  0
  9 28  1  0  0  0
 10 11  1  0  0  0
 10 16  1  0  0  0
 10 18  1  0  0  0
 11 14  1  0  0  0
 11 17  1  0  0  0
 11 29  1  0  0  0
 12 19  1  0  0  0
 12 20  1  0  0  0
 13 17  1  0  0  0
 13 30  1  0  0  0
 13 31  1  0  0  0
 14 21  1  0  0  0
 14 22  1  0  0  0
 15 16  1  0  0  0
 15 32  1  0  0  0
 15 33  1  0  0  0
 16 34  1  0  0  0
 16 35  1  0  0  0
 17 36  1  0  0  0
 17 37  1  0  0  0
 18 38  1  0  0  0
 18 39  1  0  0  0
 18 40  1  0  0  0
 19 41  1  0  0  0
 19 42  1  0  0  0
 19 43  1  0  0  0
 20 44  1  0  0  0
 20 45  1  0  0  0
 20 46  1  0  0  0
 21 47  1  0  0  0
 21 48  1  0  0  0
 21 49  1  0  0  0
 22 50  1  0  0  0
 22 51  1  0  0  0
 22 52  1  0  0  0
M  END
> <Tumorigenic>
none

> <Score>
34.310616

> <Active/Decoy>
active

> <InChI>
InChI=1S/C20H30O2/c1-18(2)16-9-6-13-12-14(19(3,4)22)7-8-15(13)20(16,5)11-10-17(18)21/h7-8,12,16-17,21-22H,6,9-11H2,1-5H3/t16-,17-,20-/m0/s1

> <Matching Features>
H:14924486185440016873||HBA:14924321692640012300|HBA:14924486112070016868

> <Mol. Index>
198

> <Pharmacophore Match>
Model -1

> <# Confs.>
19

> <Source Database>
Pharm-Screening-input-EANPDB_After_DataWarror.ldb

> <Pharmacophore-Fit Score>
34.31

> <formula>
C20H30O2

> <Mutagenic>
none

> <Reproductive Effective>
none

> <Irritant>
none

$$$$
triacontanyl-(E)-ferulate
XX    ILIB03122411363D

 33 33  0  0  1  0              1 V2000
   -4.3340    1.0370   -3.6548 O   0  0  0  0  0
   -4.2571    0.4492   -6.2998 O   0  0  0  0  0
    3.2167    1.4683   -2.2532 O   0  0  0  0  0
    2.0005    1.0666   -0.3241 O   0  0  0  0  0
   -3.0980    0.9329   -4.2407 C   0  0  0  0  0
   -3.0910    0.6301   -5.6056 C   0  0  0  0  0
   -0.6549    0.9790   -4.2721 C   0  0  0  0  0
   -1.8741    1.1077   -3.5801 C   0  0  0  0  0
   -1.8980    0.4989   -6.3065 C   0  0  0  0  0
   -0.6847    0.6726   -5.6410 C   0  0  0  0  0
    2.1784    1.2430   -1.6539 C   0  0  0  0  0
    3.1955    1.2008    0.4653 C   0  0  0  0  0
   -4.1814    1.3479   -2.2694 C   0  0  0  0  0
    0.6515    1.1452   -3.6271 C   0  0  0  0  0
    0.8590    1.0538   -2.3046 C   0  0  0  0  0
    2.8488    0.9929    1.9309 C   0  0  0  0  0
    2.2499   -0.3663    2.2133 C   0  0  0  0  0
   -4.9988    0.5699   -5.6819 H   0  0  0  0  0
   -1.8551    1.3467   -2.5201 H   0  0  0  0  0
   -1.8996    0.2621   -7.3654 H   0  0  0  0  0
    0.2381    0.5651   -6.2062 H   0  0  0  0  0
    3.9349    0.4670    0.1432 H   0  0  0  0  0
    3.6116    2.2127    0.3256 H   0  0  0  0  0
   -3.6587    2.3007   -2.1304 H   0  0  0  0  0
   -5.1825    1.4451   -1.8368 H   0  0  0  0  0
   -3.6590    0.5440   -1.7401 H   0  0  0  0  0
    1.4751    1.3591   -4.3036 H   0  0  0  0  0
    0.0454    0.8443   -1.6157 H   0  0  0  0  0
    2.1448    1.7807    2.2603 H   0  0  0  0  0
    3.7560    1.1236    2.5326 H   0  0  0  0  0
    1.2983   -0.5033    1.6906 H   0  0  0  0  0
    2.0639   -0.4836    3.2851 H   0  0  0  0  0
    2.9340   -1.1610    1.8995 H   0  0  0  0  0
  1  5  1  0  0  0
  1 13  1  0  0  0
  2  6  1  0  0  0
  2 18  1  0  0  0
  3 11  2  0  0  0
  4 11  1  0  0  0
  4 12  1  0  0  0
  5  6  2  0  0  0
  5  8  1  0  0  0
  6  9  1  0  0  0
  7  8  2  0  0  0
  7 10  1  0  0  0
  7 14  1  0  0  0
  8 19  1  0  0  0
  9 10  2  0  0  0
  9 20  1  0  0  0
 10 21  1  0  0  0
 11 15  1  0  0  0
 12 16  1  0  0  0
 12 22  1  0  0  0
 12 23  1  0  0  0
 13 24  1  0  0  0
 13 25  1  0  0  0
 13 26  1  0  0  0
 14 15  2  0  0  0
 14 27  1  0  0  0
 15 28  1  0  0  0
 16 17  1  0  0  0
 16 29  1  0  0  0
 16 30  1  0  0  0
 17 31  1  0  0  0
 17 32  1  0  0  0
 17 33  1  0  0  0
M  END
> <Tumorigenic>
none

> <Score>
34.26011

> <Active/Decoy>
active

> <InChI>
InChI=1S/C13H16O4/c1-3-8-17-13(15)7-5-10-4-6-11(14)12(9-10)16-2/h4-7,9,14H,3,8H2,1-2H3/b7-5+

> <Matching Features>
H:14924486185440016873||HBA:14924321692640012300|HBA:14924486112070016868

> <Mol. Index>
239

> <Pharmacophore Match>
Model -1

> <# Confs.>
25

> <Source Database>
Pharm-Screening-input-EANPDB_After_DataWarror.ldb

> <Pharmacophore-Fit Score>
34.26

> <formula>
C13H16O4

> <Mutagenic>
none

> <Reproductive Effective>
none

> <Irritant>
none

$$$$
5,7-dihydroxy-4'-methoxy-3?,5?-di-(3-methylbut-2-enyl)flavanone
XX    ILIB03122411363D

 61 63  0  0  1  0              1 V2000
   -2.4104    0.4107   -2.3806 O   0  0  0  0  0
    3.6769    2.0246   -2.2614 O   0  0  0  0  0
   -6.8126    1.6140   -4.0136 O   0  0  0  0  0
   -6.0714   -2.4532   -1.6050 O   0  0  0  0  0
   -4.7150    3.1942   -4.3086 O   0  0  0  0  0
   -3.7524    0.1911   -2.5602 C   0  0  0  0  0
    2.3467    1.8152   -2.5231 C   0  0  0  0  0
   -5.9618    0.7631   -3.3639 C   0  0  0  0  0
   -5.6091   -1.2882   -2.1490 C   0  0  0  0  0
   -0.3841    1.4670   -3.0705 C   0  0  0  0  0
   -4.6043    1.0821   -3.2264 C   0  0  0  0  0
    1.9081    1.8675   -3.8569 C   0  0  0  0  0
    1.4502    1.6197   -1.4575 C   0  0  0  0  0
   -4.2587   -0.9871   -2.0063 C   0  0  0  0  0
   -6.4661   -0.4251   -2.8289 C   0  0  0  0  0
    0.5282    1.6872   -4.1107 C   0  0  0  0  0
    0.0896    1.4313   -1.7506 C   0  0  0  0  0
   -1.8441    1.2727   -3.3775 C   0  0  2  0  0
   -4.0340    2.3600   -3.7242 C   0  0  0  0  0
    4.3719    2.2751   -3.4832 C   0  0  0  0  0
    2.8278    2.1665   -4.9965 C   0  0  0  0  0
    1.8980    1.5887   -0.0231 C   0  0  0  0  0
   -2.5825    2.6063   -3.4086 C   0  0  0  0  0
    1.5603    3.2852   -6.9193 C   0  0  0  0  0
    1.7122   -0.4972    1.4450 C   0  0  0  0  0
    2.1139    2.2059   -6.3222 C   0  0  0  0  0
    2.2611    0.2108    0.4405 C   0  0  0  0  0
    0.9126    3.1511   -8.2724 C   0  0  0  0  0
    1.5124    4.6727   -6.3447 C   0  0  0  0  0
    2.1940   -1.8913    1.7435 C   0  0  0  0  0
    0.6174   -0.0109    2.3514 C   0  0  0  0  0
   -7.7078    1.2326   -4.0080 H   0  0  0  0  0
   -7.0257   -2.5217   -1.7843 H   0  0  0  0  0
   -3.5988   -1.6694   -1.4766 H   0  0  0  0  0
   -7.5191   -0.6722   -2.9353 H   0  0  0  0  0
    0.1663    1.7386   -5.1358 H   0  0  0  0  0
   -0.6118    1.2606   -0.9364 H   0  0  0  0  0
   -1.9310    0.7601   -4.3473 H   0  0  0  0  0
    3.9811    3.1660   -3.9880 H   0  0  0  0  0
    5.4226    2.4585   -3.2391 H   0  0  0  0  0
    4.3239    1.4063   -4.1490 H   0  0  0  0  0
    3.3283    3.1184   -4.8327 H   0  0  0  0  0
    3.6203    1.4039   -5.0178 H   0  0  0  0  0
    2.7690    2.2453    0.1007 H   0  0  0  0  0
    1.1100    2.0198    0.6098 H   0  0  0  0  0
   -2.5384    3.1240   -2.4426 H   0  0  0  0  0
   -2.1593    3.2605   -4.1795 H   0  0  0  0  0
    2.0671    1.2584   -6.8436 H   0  0  0  0  0
    3.0606   -0.2573   -0.1347 H   0  0  0  0  0
    0.9704    2.1297   -8.6624 H   0  0  0  0  0
    1.4054    3.8099   -8.9944 H   0  0  0  0  0
   -0.1457    3.4245   -8.2154 H   0  0  0  0  0
    0.4797    5.0367   -6.3284 H   0  0  0  0  0
    1.8861    4.7340   -5.3206 H   0  0  0  0  0
    2.1061    5.3551   -6.9601 H   0  0  0  0  0
    2.9862   -2.2144    1.0616 H   0  0  0  0  0
    1.3670   -2.6043    1.6527 H   0  0  0  0  0
    2.5895   -1.9474    2.7625 H   0  0  0  0  0
    0.9256   -0.1094    3.3993 H   0  0  0  0  0
    0.3539    1.0369    2.1969 H   0  0  0  0  0
   -0.2864   -0.6099    2.2038 H   0  0  0  0  0
  1  6  1  0  0  0
  1 18  1  0  0  0
  2  7  1  0  0  0
  2 20  1  0  0  0
  3  8  1  0  0  0
  3 32  1  0  0  0
  4  9  1  0  0  0
  4 33  1  0  0  0
  5 19  2  0  0  0
  6 11  2  0  0  0
  6 14  1  0  0  0
  7 12  2  0  0  0
  7 13  1  0  0  0
  8 11  1  0  0  0
  8 15  2  0  0  0
  9 14  2  0  0  0
  9 15  1  0  0  0
 10 16  2  0  0  0
 10 17  1  0  0  0
 10 18  1  0  0  0
 11 19  1  0  0  0
 12 16  1  0  0  0
 12 21  1  0  0  0
 13 17  2  0  0  0
 13 22  1  0  0  0
 14 34  1  0  0  0
 15 35  1  0  0  0
 16 36  1  0  0  0
 17 37  1  0  0  0
 18 23  1  0  0  0
 18 38  1  0  0  0
 19 23  1  0  0  0
 20 39  1  0  0  0
 20 40  1  0  0  0
 20 41  1  0  0  0
 21 26  1  0  0  0
 21 42  1  0  0  0
 21 43  1  0  0  0
 22 27  1  0  0  0
 22 44  1  0  0  0
 22 45  1  0  0  0
 23 46  1  0  0  0
 23 47  1  0  0  0
 24 26  2  0  0  0
 24 28  1  0  0  0
 24 29  1  0  0  0
 25 27  2  0  0  0
 25 30  1  0  0  0
 25 31  1  0  0  0
 26 48  1  0  0  0
 27 49  1  0  0  0
 28 50  1  0  0  0
 28 51  1  0  0  0
 28 52  1  0  0  0
 29 53  1  0  0  0
 29 54  1  0  0  0
 29 55  1  0  0  0
 30 56  1  0  0  0
 30 57  1  0  0  0
 30 58  1  0  0  0
 31 59  1  0  0  0
 31 60  1  0  0  0
 31 61  1  0  0  0
M  END
> <Tumorigenic>
none

> <Score>
34.253845

> <Active/Decoy>
active

> <InChI>
InChI=1S/C26H30O5/c1-15(2)6-8-17-10-19(11-18(26(17)30-5)9-7-16(3)4)23-14-22(29)25-21(28)12-20(27)13-24(25)31-23/h6-7,10-13,23,27-28H,8-9,14H2,1-5H3/t23-/m0/s1

> <Matching Features>
H:14924486185440016873||HBA:14924321692640012300|HBA:14924486112070016868

> <Mol. Index>
244

> <Pharmacophore Match>
Model -1

> <# Confs.>
25

> <Source Database>
Pharm-Screening-input-EANPDB_After_DataWarror.ldb

> <Pharmacophore-Fit Score>
34.25

> <formula>
C26H30O5

> <Mutagenic>
none

> <Reproductive Effective>
none

> <Irritant>
none

$$$$
5,7,3'-trihydroxy-4'-methoxy-5'-(3-hydroxy-3-methylbuten-1-yl]isoflavanone
XX    ILIB03122411363D

 48 50  0  0  1  0              1 V2000
   -1.9588   -3.0948   -2.3026 O   0  0  0  0  0
   -1.7234    0.9581   -2.6280 O   0  0  0  0  0
    4.0751    1.2178    0.1317 O   0  0  0  0  0
    3.3771    1.5926   -2.5239 O   0  0  0  0  0
   -4.1858    1.0133   -3.5434 O   0  0  0  0  0
   -6.3365   -3.2286   -4.0605 O   0  0  0  0  0
    3.1550   -0.9128    4.5576 O   0  0  0  0  0
   -3.0247   -2.3856   -2.7936 C   0  0  0  0  0
   -0.8652   -2.3909   -1.8700 C   0  0  0  0  0
   -1.8079   -0.2551   -2.4883 C   0  0  0  0  0
    2.9024    0.7103   -0.3518 C   0  0  0  0  0
    2.5469    0.8869   -1.6934 C   0  0  0  0  0
   -4.1572   -0.3501   -3.4204 C   0  0  0  0  0
   -5.2592   -2.4760   -3.6885 C   0  0  0  0  0
   -3.0219   -0.9940   -2.9082 C   0  0  0  0  0
   -0.6906   -1.0612   -1.9076 C   0  0  0  0  0
    0.5409   -0.4496   -1.3878 C   0  0  0  0  0
    2.0991   -0.0656    0.4966 C   0  0  0  0  0
   -4.1404   -3.1313   -3.1834 C   0  0  0  0  0
   -5.2776   -1.0884   -3.8106 C   0  0  0  0  0
    1.3770    0.3221   -2.2065 C   0  0  0  0  0
    0.9185   -0.6373   -0.0464 C   0  0  0  0  0
    1.7495   -0.8735    4.2996 C   0  0  0  0  0
    4.8818    1.9039   -0.8223 C   0  0  0  0  0
    2.4080   -0.3613    1.8911 C   0  0  0  0  0
    1.4745   -0.5712    2.8527 C   0  0  0  0  0
    1.1878   -2.2499    4.6597 C   0  0  0  0  0
    1.1299    0.2005    5.1964 C   0  0  0  0  0
    2.9868    1.6136   -3.4153 H   0  0  0  0  0
   -5.0459    1.2767   -3.9166 H   0  0  0  0  0
   -7.0323   -2.6330   -4.3909 H   0  0  0  0  0
    3.5120   -0.0169    4.4311 H   0  0  0  0  0
   -0.1401   -3.0899   -1.4725 H   0  0  0  0  0
   -4.1344   -4.2139   -3.0939 H   0  0  0  0  0
   -6.1573   -0.5878   -4.2047 H   0  0  0  0  0
    1.1344    0.4796   -3.2553 H   0  0  0  0  0
    0.2897   -1.2436    0.6058 H   0  0  0  0  0
    5.7783    2.2562   -0.3062 H   0  0  0  0  0
    5.1996    1.2319   -1.6267 H   0  0  0  0  0
    4.3598    2.7794   -1.2240 H   0  0  0  0  0
    3.4508   -0.4066    2.1401 H   0  0  0  0  0
    0.4171   -0.5190    2.5992 H   0  0  0  0  0
    1.4021   -2.4959    5.7061 H   0  0  0  0  0
    1.6581   -3.0358    4.0566 H   0  0  0  0  0
    0.1045   -2.3022    4.5080 H   0  0  0  0  0
    1.5293    1.1930    4.9565 H   0  0  0  0  0
    0.0392    0.2382    5.0960 H   0  0  0  0  0
    1.3753    0.0165    6.2491 H   0  0  0  0  0
  1  8  1  0  0  0
  1  9  1  0  0  0
  2 10  2  0  0  0
  3 11  1  0  0  0
  3 24  1  0  0  0
  4 12  1  0  0  0
  4 29  1  0  0  0
  5 13  1  0  0  0
  5 30  1  0  0  0
  6 14  1  0  0  0
  6 31  1  0  0  0
  7 23  1  0  0  0
  7 32  1  0  0  0
  8 15  2  0  0  0
  8 19  1  0  0  0
  9 16  2  0  0  0
  9 33  1  0  0  0
 10 15  1  0  0  0
 10 16  1  0  0  0
 11 12  2  0  0  0
 11 18  1  0  0  0
 12 21  1  0  0  0
 13 15  1  0  0  0
 13 20  2  0  0  0
 14 19  2  0  0  0
 14 20  1  0  0  0
 16 17  1  0  0  0
 17 21  2  0  0  0
 17 22  1  0  0  0
 18 22  2  0  0  0
 18 25  1  0  0  0
 19 34  1  0  0  0
 20 35  1  0  0  0
 21 36  1  0  0  0
 22 37  1  0  0  0
 23 26  1  0  0  0
 23 27  1  0  0  0
 23 28  1  0  0  0
 24 38  1  0  0  0
 24 39  1  0  0  0
 24 40  1  0  0  0
 25 26  2  0  0  0
 25 41  1  0  0  0
 26 42  1  0  0  0
 27 43  1  0  0  0
 27 44  1  0  0  0
 27 45  1  0  0  0
 28 46  1  0  0  0
 28 47  1  0  0  0
 28 48  1  0  0  0
M  END
> <Tumorigenic>
none

> <Score>
34.16684

> <Active/Decoy>
active

> <InChI>
InChI=1S/C21H20O7/c1-21(2,26)5-4-11-6-12(7-16(24)20(11)27-3)14-10-28-17-9-13(22)8-15(23)18(17)19(14)25/h4-10,22-24,26H,1-3H3/b5-4+

> <Matching Features>
H:14924486185440016873||HBA:14924321692640012300|HBA:14924486112070016868

> <Mol. Index>
276

> <Pharmacophore Match>
Model -1

> <# Confs.>
25

> <Source Database>
Pharm-Screening-input-EANPDB_After_DataWarror.ldb

> <Pharmacophore-Fit Score>
34.17

> <formula>
C21H20O7

> <Mutagenic>
none

> <Reproductive Effective>
none

> <Irritant>
none

$$$$
5,7,3',4'-tetrahydroxyflavanol
XX    ILIB03122411363D

 35 37  0  0  1  0              1 V2000
   -1.2876    1.4342    0.0760 O   0  0  0  0  0
    4.0423    1.1811   -1.2268 O   0  0  0  0  0
    4.7635    0.3411    1.3101 O   0  0  0  0  0
   -4.7850    0.8071   -3.2055 O   0  0  0  0  0
   -5.1677    4.1566    0.1532 O   0  0  0  0  0
   -1.2911   -0.8855    0.4376 O   0  0  0  0  0
   -2.4949    1.7307   -0.5052 C   0  0  0  0  0
    3.1005    0.7359   -0.3413 C   0  0  0  0  0
    3.4524    0.2998    0.9313 C   0  0  0  0  0
   -4.2654    1.4592   -2.1190 C   0  0  0  0  0
   -4.4491    3.1447   -0.4175 C   0  0  0  0  0
    0.7659    0.2423    0.0952 C   0  0  0  0  0
   -3.0059    1.0737   -1.6332 C   0  0  0  0  0
   -3.2070    2.7753    0.0926 C   0  0  0  0  0
   -4.9888    2.4897   -1.5188 C   0  0  0  0  0
    1.7713    0.6914   -0.7645 C   0  0  0  0  0
    2.4747   -0.1728    1.7997 C   0  0  0  0  0
    1.1398   -0.1963    1.3876 C   0  0  0  0  0
   -0.6848    0.1869   -0.2903 C   0  0  2  0  0
   -2.2371   -0.0376   -2.2890 C   0  0  0  0  0
   -0.7870   -0.0559   -1.8181 C   0  0  0  0  0
    4.9106    1.1388   -0.7907 H   0  0  0  0  0
    4.8365    0.0021    2.2187 H   0  0  0  0  0
   -5.6519    1.1942   -3.4169 H   0  0  0  0  0
   -4.6619    4.5111    0.9034 H   0  0  0  0  0
   -2.0800   -1.1935   -0.0350 H   0  0  0  0  0
   -2.7942    3.2895    0.9565 H   0  0  0  0  0
   -5.9624    2.7815   -1.9051 H   0  0  0  0  0
    1.5316    1.0389   -1.7659 H   0  0  0  0  0
    2.7321   -0.5160    2.7972 H   0  0  0  0  0
    0.3873   -0.5703    2.0780 H   0  0  0  0  0
   -2.7233   -0.9915   -2.0558 H   0  0  0  0  0
   -2.2488    0.0800   -3.3780 H   0  0  0  0  0
   -0.3330   -1.0125   -2.1049 H   0  0  0  0  0
   -0.2446    0.7375   -2.3507 H   0  0  0  0  0
  1  7  1  0  0  0
  1 19  1  0  0  0
  2  8  1  0  0  0
  2 22  1  0  0  0
  3  9  1  0  0  0
  3 23  1  0  0  0
  4 10  1  0  0  0
  4 24  1  0  0  0
  5 11  1  0  0  0
  5 25  1  0  0  0
  6 19  1  0  0  0
  6 26  1  0  0  0
  7 13  2  0  0  0
  7 14  1  0  0  0
  8  9  2  0  0  0
  8 16  1  0  0  0
  9 17  1  0  0  0
 10 13  1  0  0  0
 10 15  2  0  0  0
 11 14  2  0  0  0
 11 15  1  0  0  0
 12 16  2  0  0  0
 12 18  1  0  0  0
 12 19  1  0  0  0
 13 20  1  0  0  0
 14 27  1  0  0  0
 15 28  1  0  0  0
 16 29  1  0  0  0
 17 18  2  0  0  0
 17 30  1  0  0  0
 18 31  1  0  0  0
 19 21  1  0  0  0
 20 21  1  0  0  0
 20 32  1  0  0  0
 20 33  1  0  0  0
 21 34  1  0  0  0
 21 35  1  0  0  0
M  END
> <Tumorigenic>
none

> <Score>
34.114487

> <Active/Decoy>
active

> <InChI>
InChI=1S/C15H14O6/c16-9-6-12(18)10-3-4-15(20,21-14(10)7-9)8-1-2-11(17)13(19)5-8/h1-2,5-7,16-20H,3-4H2/t15-/m0/s1

> <Matching Features>
H:14924486185440016873||HBA:14924321692640012300|HBA:14924486112070016868

> <Mol. Index>
23

> <Pharmacophore Match>
Model -1

> <# Confs.>
10

> <Source Database>
Pharm-Screening-input-EANPDB_After_DataWarror.ldb

> <Pharmacophore-Fit Score>
34.11

> <formula>
C15H14O6

> <Mutagenic>
none

> <Reproductive Effective>
none

> <Irritant>
none

$$$$
5,4'-dihydroxy-7,2'-dimethoxy-6-methylisoflavanone
XX    ILIB03122411363D

 40 42  0  0  1  0              1 V2000
    1.0626   -0.3790    1.9946 O   0  0  0  0  0
    1.4053    0.9411   -1.8400 O   0  0  0  0  0
   -0.3876   -1.4668   -2.4386 O   0  0  0  0  0
    5.7799   -0.0409    2.7378 O   0  0  0  0  0
    3.9748    1.0666   -1.5515 O   0  0  0  0  0
   -4.7957    0.3271   -3.1067 O   0  0  0  0  0
    2.2984   -0.0697    1.4876 C   0  0  0  0  0
   -0.0153   -0.2956    1.1530 C   0  0  0  0  0
    1.3106    0.4912   -0.7039 C   0  0  0  0  0
   -1.4221   -0.6482   -2.0852 C   0  0  0  0  0
    4.6793    0.0783    1.9377 C   0  0  0  0  0
    3.7995    0.6527   -0.2553 C   0  0  0  0  0
   -3.6506    0.2709   -2.3644 C   0  0  0  0  0
    2.4964    0.3631    0.1797 C   0  0  0  0  0
   -0.0126    0.0980   -0.1402 C   0  0  0  0  0
   -1.2597    0.1115   -0.9042 C   0  0  0  0  0
    4.9030    0.5187    0.6150 C   0  0  0  0  0
    3.3777   -0.2128    2.3628 C   0  0  0  0  0
   -2.6233   -0.5669   -2.8075 C   0  0  0  0  0
   -3.4972    1.0384   -1.2230 C   0  0  0  0  0
   -2.3076    0.9607   -0.4986 C   0  0  0  0  0
   -0.5914   -2.2301   -3.6262 C   0  0  0  0  0
    6.1267    1.1275    3.4775 C   0  0  0  0  0
    6.2967    0.8365    0.1323 C   0  0  0  0  0
    4.9171    1.1848   -1.7471 H   0  0  0  0  0
   -5.4043    0.9595   -2.6865 H   0  0  0  0  0
   -0.9002   -0.6176    1.6880 H   0  0  0  0  0
    3.1727   -0.5554    3.3732 H   0  0  0  0  0
   -2.7886   -1.1519   -3.7078 H   0  0  0  0  0
   -4.2908    1.6962   -0.8821 H   0  0  0  0  0
   -2.2133    1.5781    0.3923 H   0  0  0  0  0
    0.3084   -2.8283   -3.7945 H   0  0  0  0  0
   -1.4358   -2.9183   -3.5127 H   0  0  0  0  0
   -0.7281   -1.5780   -4.4955 H   0  0  0  0  0
    7.0094    0.8921    4.0746 H   0  0  0  0  0
    6.3849    1.9559    2.8090 H   0  0  0  0  0
    5.3225    1.4121    4.1655 H   0  0  0  0  0
    6.3442    1.8701   -0.2266 H   0  0  0  0  0
    6.5770    0.1544   -0.6767 H   0  0  0  0  0
    7.0552    0.7392    0.9151 H   0  0  0  0  0
  1  7  1  0  0  0
  1  8  1  0  0  0
  2  9  2  0  0  0
  3 10  1  0  0  0
  3 22  1  0  0  0
  4 11  1  0  0  0
  4 23  1  0  0  0
  5 12  1  0  0  0
  5 25  1  0  0  0
  6 13  1  0  0  0
  6 26  1  0  0  0
  7 14  1  0  0  0
  7 18  2  0  0  0
  8 15  2  0  0  0
  8 27  1  0  0  0
  9 14  1  0  0  0
  9 15  1  0  0  0
 10 16  2  0  0  0
 10 19  1  0  0  0
 11 17  2  0  0  0
 11 18  1  0  0  0
 12 14  2  0  0  0
 12 17  1  0  0  0
 13 19  2  0  0  0
 13 20  1  0  0  0
 15 16  1  0  0  0
 16 21  1  0  0  0
 17 24  1  0  0  0
 18 28  1  0  0  0
 19 29  1  0  0  0
 20 21  2  0  0  0
 20 30  1  0  0  0
 21 31  1  0  0  0
 22 32  1  0  0  0
 22 33  1  0  0  0
 22 34  1  0  0  0
 23 35  1  0  0  0
 23 36  1  0  0  0
 23 37  1  0  0  0
 24 38  1  0  0  0
 24 39  1  0  0  0
 24 40  1  0  0  0
M  END
> <Tumorigenic>
none

> <Score>
34.10098

> <Active/Decoy>
active

> <InChI>
InChI=1S/C18H16O6/c1-9-13(22-2)7-15-16(17(9)20)18(21)12(8-24-15)11-5-4-10(19)6-14(11)23-3/h4-8,19-20H,1-3H3

> <Matching Features>
H:14924486185440016873||HBA:14924321692640012300|HBA:14924486112070016868

> <Mol. Index>
324

> <Pharmacophore Match>
Model -1

> <# Confs.>
8

> <Source Database>
Pharm-Screening-input-EANPDB_After_DataWarror.ldb

> <Pharmacophore-Fit Score>
34.1

> <formula>
C18H16O6

> <Mutagenic>
none

> <Reproductive Effective>
none

> <Irritant>
none

$$$$
13,17-dihydroxy-labda-8,14-diene-17-O-xylopyranoside
XX    ILIB03122411363D

 73 75  0  0  1  0              1 V2000
   -1.4279    4.1038    1.6930 O   0  0  0  0  0
    3.3061    1.5712   -2.4919 O   0  0  0  0  0
   -1.4708    3.7148   -1.8204 O   0  0  0  0  0
   -4.4707    1.8605   -0.7710 O   0  0  0  0  0
   -4.1116    1.0116   -3.5142 O   0  0  0  0  0
   -1.3269    1.0496   -4.3392 O   0  0  0  0  0
   -0.7557    3.0300    1.0313 C   0  0  2  0  0
    3.2617    2.4316   -1.3491 C   0  0  2  0  0
   -3.5666    2.4800   -1.6791 C   0  0  2  0  0
   -3.0395    1.4502   -2.6794 C   0  0  2  0  0
   -2.4320    3.1705   -0.9080 C   0  0  1  0  0
   -1.9415    2.0612   -3.5490 C   0  0  1  0  0
    1.9766    0.9549    2.9936 C   0  0  1  0  0
    1.1909    0.8966    4.3565 C   0  0  1  0  0
   -0.8875    2.7579   -2.6994 C   0  0  0  0  0
   -1.7774    2.2975    0.1619 C   0  0  0  0  0
   -0.0323    2.1415    2.0125 C   0  0  0  0  0
    4.6411    2.7858   -0.8769 C   0  0  0  0  0
    2.3493    1.7880   -0.3034 C   0  0  0  0  0
    1.3005    1.9298    1.9929 C   0  0  0  0  0
    1.4720    2.0809    5.3668 C   0  0  0  0  0
    3.4748    1.2163    3.3166 C   0  0  0  0  0
   -0.2950    0.6081    4.0950 C   0  0  0  0  0
    1.9379   -0.4437    2.3102 C   0  0  0  0  0
    5.7977    2.3667   -1.4045 C   0  0  0  0  0
   -0.9438    1.5047    3.0466 C   0  0  0  0  0
    2.1864    2.6136    0.9822 C   0  0  0  0  0
    2.9996    2.2778    5.5227 C   0  0  0  0  0
    3.7180    2.4360    4.1918 C   0  0  0  0  0
    0.9223    1.7143    6.7683 C   0  0  0  0  0
    0.8404    3.4334    4.9843 C   0  0  0  0  0
   -0.7517    4.6571    2.1200 H   0  0  0  0  0
    3.5474    0.6756   -2.1682 H   0  0  0  0  0
   -5.1556    1.4154   -1.2983 H   0  0  0  0  0
   -4.4629    1.7856   -3.9856 H   0  0  0  0  0
   -0.9260    0.4016   -3.7364 H   0  0  0  0  0
   -0.0053    3.4877    0.3742 H   0  0  0  0  0
    2.7740    3.3559   -1.7135 H   0  0  0  0  0
   -4.1358    3.2449   -2.2249 H   0  0  0  0  0
   -2.6776    0.5546   -2.1616 H   0  0  0  0  0
   -2.8704    4.0297   -0.3828 H   0  0  0  0  0
   -2.3908    2.7841   -4.2422 H   0  0  0  0  0
    1.5666    0.0019    4.8785 H   0  0  0  0  0
   -0.1850    3.2874   -3.3527 H   0  0  0  0  0
   -0.2803    2.0394   -2.1376 H   0  0  0  0  0
   -2.5761    1.9322    0.8202 H   0  0  0  0  0
   -1.3242    1.4134   -0.3034 H   0  0  0  0  0
    4.7032    3.4466   -0.0127 H   0  0  0  0  0
    2.8190    0.8262   -0.0189 H   0  0  0  0  0
    1.3749    1.5462   -0.7217 H   0  0  0  0  0
    4.0774    1.2875    2.4046 H   0  0  0  0  0
    3.8803    0.3415    3.8468 H   0  0  0  0  0
   -0.8836    0.6395    5.0168 H   0  0  0  0  0
   -0.3901   -0.4316    3.7543 H   0  0  0  0  0
    0.9426   -0.7006    1.9316 H   0  0  0  0  0
    2.6256   -0.4910    1.4581 H   0  0  0  0  0
    2.2380   -1.2334    3.0082 H   0  0  0  0  0
    5.8407    1.7072   -2.2632 H   0  0  0  0  0
    6.7406    2.6856   -0.9707 H   0  0  0  0  0
   -1.7048    0.9050    2.5312 H   0  0  0  0  0
   -1.4967    2.2965    3.5653 H   0  0  0  0  0
    3.1725    2.7966    1.4372 H   0  0  0  0  0
    1.7765    3.5822    0.7124 H   0  0  0  0  0
    3.4290    1.4141    6.0496 H   0  0  0  0  0
    3.2129    3.1509    6.1510 H   0  0  0  0  0
    4.7937    2.5368    4.3759 H   0  0  0  0  0
    3.4033    3.3541    3.6863 H   0  0  0  0  0
   -0.1712    1.6814    6.7847 H   0  0  0  0  0
    1.2314    2.4534    7.5173 H   0  0  0  0  0
    1.2935    0.7374    7.0994 H   0  0  0  0  0
   -0.2516    3.3899    4.9979 H   0  0  0  0  0
    1.1626    3.7901    4.0044 H   0  0  0  0  0
    1.1228    4.2084    5.7056 H   0  0  0  0  0
  1  7  1  0  0  0
  1 32  1  0  0  0
  2  8  1  0  0  0
  2 33  1  0  0  0
  3 11  1  0  0  0
  3 15  1  0  0  0
  4  9  1  0  0  0
  4 34  1  0  0  0
  5 10  1  0  0  0
  5 35  1  0  0  0
  6 12  1  0  0  0
  6 36  1  0  0  0
  7 16  1  0  0  0
  7 17  1  0  0  0
  7 37  1  0  0  0
  8 18  1  0  0  0
  8 19  1  0  0  0
  8 38  1  0  0  0
  9 10  1  0  0  0
  9 11  1  0  0  0
  9 39  1  0  0  0
 10 12  1  0  0  0
 10 40  1  0  0  0
 11 16  1  0  0  0
 11 41  1  0  0  0
 12 15  1  0  0  0
 12 42  1  0  0  0
 13 14  1  0  0  0
 13 20  1  0  0  0
 13 22  1  0  0  0
 13 24  1  0  0  0
 14 21  1  0  0  0
 14 23  1  0  0  0
 14 43  1  0  0  0
 15 44  1  0  0  0
 15 45  1  0  0  0
 16 46  1  0  0  0
 16 47  1  0  0  0
 17 20  2  0  0  0
 17 26  1  0  0  0
 18 25  2  0  0  0
 18 48  1  0  0  0
 19 27  1  0  0  0
 19 49  1  0  0  0
 19 50  1  0  0  0
 20 27  1  0  0  0
 21 28  1  0  0  0
 21 30  1  0  0  0
 21 31  1  0  0  0
 22 29  1  0  0  0
 22 51  1  0  0  0
 22 52  1  0  0  0
 23 26  1  0  0  0
 23 53  1  0  0  0
 23 54  1  0  0  0
 24 55  1  0  0  0
 24 56  1  0  0  0
 24 57  1  0  0  0
 25 58  1  0  0  0
 25 59  1  0  0  0
 26 60  1  0  0  0
 26 61  1  0  0  0
 27 62  1  0  0  0
 27 63  1  0  0  0
 28 29  1  0  0  0
 28 64  1  0  0  0
 28 65  1  0  0  0
 29 66  1  0  0  0
 29 67  1  0  0  0
 30 68  1  0  0  0
 30 69  1  0  0  0
 30 70  1  0  0  0
 31 71  1  0  0  0
 31 72  1  0  0  0
 31 73  1  0  0  0
M  END
> <Tumorigenic>
none

> <Score>
34.020805

> <Active/Decoy>
active

> <InChI>
InChI=1S/C25H42O6/c1-5-15(26)7-9-17-16(8-10-21-24(2,3)11-6-12-25(17,21)4)18(27)13-20-23(30)22(29)19(28)14-31-20/h5,15,18-23,26-30H,1,6-14H2,2-4H3/t15-,18-,19-,20-,21-,22+,23+,25-/m1/s1

> <Matching Features>
H:14924486185440016873||HBA:14924321692640012300|HBA:14924486112070016868

> <Mol. Index>
473

> <Pharmacophore Match>
Model -1

> <# Confs.>
25

> <Source Database>
Pharm-Screening-input-EANPDB_After_DataWarror.ldb

> <Pharmacophore-Fit Score>
34.02

> <formula>
C25H42O6

> <Mutagenic>
none

> <Reproductive Effective>
none

> <Irritant>
none

$$$$
(2S)-5,7-dimethoxy-8-(3-hydroxy-3-methylbut-1Z-enyl)flavanone
XX    ILIB03122411363D

 51 53  0  0  1  0              1 V2000
    0.2600    0.9813   -2.3734 O   0  0  0  0  0
   -4.2396    1.3942   -4.0311 O   0  0  0  0  0
   -0.4790    3.5781   -6.2643 O   0  0  0  0  0
   -3.6640   -0.0696   -1.9995 O   0  0  0  0  0
    4.0689    2.8320   -2.3427 O   0  0  0  0  0
   -0.6530    1.4761   -3.2783 C   0  0  0  0  0
   -2.9095    1.7013   -4.1631 C   0  0  0  0  0
   -1.0282    2.7833   -5.2902 C   0  0  0  0  0
    0.7916    0.2372   -0.1801 C   0  0  0  0  0
   -2.0247    1.1753   -3.2061 C   0  0  0  0  0
   -0.1292    2.2431   -4.3336 C   0  0  0  0  0
   -2.4009    2.5068   -5.1937 C   0  0  0  0  0
    0.7669    0.4884    1.2011 C   0  0  0  0  0
    1.8703   -0.4825   -0.7129 C   0  0  0  0  0
    1.7936    0.0256    2.0271 C   0  0  0  0  0
    2.8952   -0.9445    0.1138 C   0  0  0  0  0
    2.8561   -0.6909    1.4825 C   0  0  0  0  0
   -0.3051    0.7291   -1.0826 C   0  0  2  0  0
   -2.4912    0.2659   -2.1190 C   0  0  0  0  0
    3.4642    3.4721   -3.4714 C   0  0  0  0  0
   -4.5278    0.1942   -4.7487 C   0  0  0  0  0
   -0.4749    4.9371   -5.8271 C   0  0  0  0  0
    1.3010    2.5191   -4.3862 C   0  0  0  0  0
   -1.4311   -0.2865   -1.2034 C   0  0  0  0  0
    1.9927    3.1726   -3.4343 C   0  0  0  0  0
    4.1884    2.9806   -4.7307 C   0  0  0  0  0
    3.6857    4.9772   -3.3042 C   0  0  0  0  0
    3.9524    1.8718   -2.4421 H   0  0  0  0  0
   -3.0815    2.9252   -5.9286 H   0  0  0  0  0
   -0.0528    1.0490    1.6430 H   0  0  0  0  0
    1.9198   -0.6905   -1.7790 H   0  0  0  0  0
    1.7629    0.2265    3.0926 H   0  0  0  0  0
    3.7239   -1.5025   -0.3116 H   0  0  0  0  0
    3.6537   -1.0525    2.1269 H   0  0  0  0  0
   -0.6877    1.6817   -0.6860 H   0  0  0  0  0
   -3.9440   -0.6499   -4.3631 H   0  0  0  0  0
   -5.5889   -0.0351   -4.6068 H   0  0  0  0  0
   -4.3478    0.3239   -5.8220 H   0  0  0  0  0
    0.1187    5.0603   -4.9146 H   0  0  0  0  0
   -0.0129    5.5406   -6.6151 H   0  0  0  0  0
   -1.4955    5.3049   -5.6725 H   0  0  0  0  0
    1.8099    2.1809   -5.2825 H   0  0  0  0  0
   -1.0901   -1.2359   -1.6321 H   0  0  0  0  0
   -1.8773   -0.4801   -0.2223 H   0  0  0  0  0
    1.4745    3.5238   -2.5432 H   0  0  0  0  0
    5.2630    3.1809   -4.6615 H   0  0  0  0  0
    4.0895    1.8952   -4.8471 H   0  0  0  0  0
    3.8083    3.4644   -5.6365 H   0  0  0  0  0
    3.2439    5.3414   -2.3692 H   0  0  0  0  0
    3.2540    5.5471   -4.1340 H   0  0  0  0  0
    4.7547    5.2141   -3.2516 H   0  0  0  0  0
  1  6  1  0  0  0
  1 18  1  0  0  0
  2  7  1  0  0  0
  2 21  1  0  0  0
  3  8  1  0  0  0
  3 22  1  0  0  0
  4 19  2  0  0  0
  5 20  1  0  0  0
  5 28  1  0  0  0
  6 10  2  0  0  0
  6 11  1  0  0  0
  7 10  1  0  0  0
  7 12  2  0  0  0
  8 11  2  0  0  0
  8 12  1  0  0  0
  9 13  2  0  0  0
  9 14  1  0  0  0
  9 18  1  0  0  0
 10 19  1  0  0  0
 11 23  1  0  0  0
 12 29  1  0  0  0
 13 15  1  0  0  0
 13 30  1  0  0  0
 14 16  2  0  0  0
 14 31  1  0  0  0
 15 17  2  0  0  0
 15 32  1  0  0  0
 16 17  1  0  0  0
 16 33  1  0  0  0
 17 34  1  0  0  0
 18 24  1  0  0  0
 18 35  1  0  0  0
 19 24  1  0  0  0
 20 25  1  0  0  0
 20 26  1  0  0  0
 20 27  1  0  0  0
 21 36  1  0  0  0
 21 37  1  0  0  0
 21 38  1  0  0  0
 22 39  1  0  0  0
 22 40  1  0  0  0
 22 41  1  0  0  0
 23 25  2  0  0  0
 23 42  1  0  0  0
 24 43  1  0  0  0
 24 44  1  0  0  0
 25 45  1  0  0  0
 26 46  1  0  0  0
 26 47  1  0  0  0
 26 48  1  0  0  0
 27 49  1  0  0  0
 27 50  1  0  0  0
 27 51  1  0  0  0
M  END
> <Tumorigenic>
none

> <Score>
33.475674

> <Active/Decoy>
active

> <InChI>
InChI=1S/C22H24O5/c1-22(2,24)11-10-15-18(25-3)13-19(26-4)20-16(23)12-17(27-21(15)20)14-8-6-5-7-9-14/h5-11,13,17,24H,12H2,1-4H3/b11-10+/t17-/m0/s1

> <Matching Features>
H:14924486185440016873||HBA:14924321692640012300|HBA:14924486112070016868

> <Mol. Index>
286

> <Pharmacophore Match>
Model -1

> <# Confs.>
25

> <Source Database>
Pharm-Screening-input-EANPDB_After_DataWarror.ldb

> <Pharmacophore-Fit Score>
33.48

> <formula>
C22H24O5

> <Mutagenic>
none

> <Reproductive Effective>
none

> <Irritant>
none

$$$$
