MODEL 1
REMARK VINA RESULT:      -6.8      0.000      0.000
REMARK  4 active torsions:
REMARK  status: ('A' for Active; 'I' for Inactive)
REMARK    1  A    between atoms: O_3  and  C_21 
REMARK    2  A    between atoms: O_3  and  C_25 
REMARK       I    between atoms: N_6  and  C_19 
REMARK    3  A    between atoms: C_16  and  C_21 
REMARK    4  A    between atoms: C_19  and  C_24 
ROOT
HETATM    1  O   UNK N   1      38.307  45.890  45.625  0.00  0.00    -0.267 OA
HETATM    2  N   UNK N   1      40.073  46.118  47.024  0.00  0.00    -0.322 N 
HETATM    3  N   UNK N   1      42.410  45.977  50.820  0.00  0.00    -0.354 N 
HETATM    4  C   UNK N   1      39.640  44.389  48.853  0.00  0.00    -0.001 C 
HETATM    5  C   UNK N   1      40.665  44.899  49.867  0.00  0.00    -0.008 A 
HETATM    6  C   UNK N   1      40.041  44.709  47.398  0.00  0.00     0.145 C 
HETATM    7  C   UNK N   1      41.695  45.850  49.672  0.00  0.00     0.058 A 
HETATM    8  C   UNK N   1      40.766  44.520  51.220  0.00  0.00    -0.000 A 
HETATM    9  C   UNK N   1      38.250  44.968  49.168  0.00  0.00     0.021 C 
HETATM   10  C   UNK N   1      39.585  42.832  48.882  0.00  0.00     0.021 C 
HETATM   11  C   UNK N   1      41.849  45.181  51.738  0.00  0.00     0.043 A 
HETATM   12  C   UNK N   1      41.950  46.777  48.517  0.00  0.00     0.082 C 
HETATM   13  C   UNK N   1      41.174  46.931  47.425  0.00  0.00     0.114 C 
HETATM   14  C   UNK N   1      40.002  43.674  52.044  0.00  0.00     0.014 A 
HETATM   15  C   UNK N   1      39.195  46.598  46.073  0.00  0.00     0.257 C 
HETATM   16  C   UNK N   1      42.254  45.036  53.065  0.00  0.00     0.030 A 
HETATM   17  C   UNK N   1      40.389  43.504  53.386  0.00  0.00     0.001 A 
HETATM   18  C   UNK N   1      41.516  44.178  53.894  0.00  0.00     0.002 A 
HETATM   19  H   UNK N   1      43.216  46.617  50.997  0.00  0.00     0.166 HD
ENDROOT
BRANCH  15  20
HETATM   20  C   UNK N   1      39.297  47.983  45.561  0.00  0.00     0.035 A 
HETATM   21  C   UNK N   1      39.419  48.216  44.186  0.00  0.00     0.062 A 
HETATM   22  C   UNK N   1      39.492  49.527  43.702  0.00  0.00     0.155 A 
HETATM   23  F   UNK N   1      39.611  49.749  42.371  0.00  0.00    -0.203 F 
HETATM   24  C   UNK N   1      39.437  50.606  44.592  0.00  0.00     0.154 A 
HETATM   25  F   UNK N   1      39.504  51.877  44.123  0.00  0.00    -0.203 F 
HETATM   26  C   UNK N   1      39.313  50.375  45.966  0.00  0.00     0.046 A 
HETATM   27  C   UNK N   1      39.244  49.066  46.451  0.00  0.00     0.020 A 
ENDBRANCH  15  20
BRANCH  12  28
HETATM   28  C   UNK N   1      43.078  47.733  48.616  0.00  0.00     0.297 C 
HETATM   29  O   UNK N   1      43.183  48.443  49.610  0.00  0.00    -0.259 OA
BRANCH  28  30
HETATM   30  O   UNK N   1      43.851  47.961  47.524  0.00  0.00    -0.313 OA
BRANCH  30  31
HETATM   31  C   UNK N   1      43.972  49.204  46.925  0.00  0.00     0.124 C 
HETATM   32  C   UNK N   1      45.449  49.499  46.701  0.00  0.00     0.040 C 
HETATM   33  C   UNK N   1      43.193  49.219  45.609  0.00  0.00     0.040 C 
ENDBRANCH  30  31
ENDBRANCH  28  30
ENDBRANCH  12  28
TORSDOF 4
ENDMDL
MODEL 2
REMARK VINA RESULT:      -6.3     14.231     17.041
REMARK  4 active torsions:
REMARK  status: ('A' for Active; 'I' for Inactive)
REMARK    1  A    between atoms: O_3  and  C_21 
REMARK    2  A    between atoms: O_3  and  C_25 
REMARK       I    between atoms: N_6  and  C_19 
REMARK    3  A    between atoms: C_16  and  C_21 
REMARK    4  A    between atoms: C_19  and  C_24 
ROOT
HETATM    1  O   UNK N   1      30.322  40.822  61.952  0.00  0.00    -0.267 OA
HETATM    2  N   UNK N   1      30.797  42.079  60.129  0.00  0.00    -0.322 N 
HETATM    3  N   UNK N   1      30.759  45.591  57.381  0.00  0.00    -0.354 N 
HETATM    4  C   UNK N   1      30.565  44.483  60.958  0.00  0.00    -0.001 C 
HETATM    5  C   UNK N   1      30.546  45.173  59.593  0.00  0.00    -0.008 A 
HETATM    6  C   UNK N   1      31.353  43.157  60.937  0.00  0.00     0.145 C 
HETATM    7  C   UNK N   1      30.855  44.621  58.327  0.00  0.00     0.058 A 
HETATM    8  C   UNK N   1      30.191  46.511  59.335  0.00  0.00    -0.000 A 
HETATM    9  C   UNK N   1      29.128  44.247  61.453  0.00  0.00     0.021 C 
HETATM   10  C   UNK N   1      31.344  45.355  61.988  0.00  0.00     0.021 C 
HETATM   11  C   UNK N   1      30.362  46.715  57.991  0.00  0.00     0.043 A 
HETATM   12  C   UNK N   1      31.077  43.191  57.922  0.00  0.00     0.082 C 
HETATM   13  C   UNK N   1      30.955  42.105  58.712  0.00  0.00     0.114 C 
HETATM   14  C   UNK N   1      29.720  47.558  60.148  0.00  0.00     0.014 A 
HETATM   15  C   UNK N   1      30.363  40.917  60.735  0.00  0.00     0.257 C 
HETATM   16  C   UNK N   1      30.109  47.942  57.379  0.00  0.00     0.030 A 
HETATM   17  C   UNK N   1      29.461  48.810  59.559  0.00  0.00     0.001 A 
HETATM   18  C   UNK N   1      29.661  49.004  58.179  0.00  0.00     0.002 A 
HETATM   19  H   UNK N   1      30.904  45.489  56.352  0.00  0.00     0.166 HD
ENDROOT
BRANCH  15  20
HETATM   20  C   UNK N   1      29.933  39.748  59.937  0.00  0.00     0.035 A 
HETATM   21  C   UNK N   1      28.665  39.731  59.343  0.00  0.00     0.062 A 
HETATM   22  C   UNK N   1      28.269  38.635  58.569  0.00  0.00     0.155 A 
HETATM   23  F   UNK N   1      27.041  38.621  57.996  0.00  0.00    -0.203 F 
HETATM   24  C   UNK N   1      29.142  37.557  58.383  0.00  0.00     0.154 A 
HETATM   25  F   UNK N   1      28.761  36.496  57.629  0.00  0.00    -0.203 F 
HETATM   26  C   UNK N   1      30.410  37.573  58.973  0.00  0.00     0.046 A 
HETATM   27  C   UNK N   1      30.806  38.666  59.750  0.00  0.00     0.020 A 
ENDBRANCH  15  20
BRANCH  12  28
HETATM   28  C   UNK N   1      31.317  42.893  56.491  0.00  0.00     0.297 C 
HETATM   29  O   UNK N   1      32.382  43.217  55.976  0.00  0.00    -0.259 OA
BRANCH  28  30
HETATM   30  O   UNK N   1      30.284  42.464  55.722  0.00  0.00    -0.313 OA
BRANCH  30  31
HETATM   31  C   UNK N   1      30.411  41.466  54.769  0.00  0.00     0.124 C 
HETATM   32  C   UNK N   1      29.761  40.195  55.302  0.00  0.00     0.040 C 
HETATM   33  C   UNK N   1      29.762  41.919  53.461  0.00  0.00     0.040 C 
ENDBRANCH  30  31
ENDBRANCH  28  30
ENDBRANCH  12  28
TORSDOF 4
ENDMDL
MODEL 3
REMARK VINA RESULT:      -6.1     13.754     16.347
REMARK  4 active torsions:
REMARK  status: ('A' for Active; 'I' for Inactive)
REMARK    1  A    between atoms: O_3  and  C_21 
REMARK    2  A    between atoms: O_3  and  C_25 
REMARK       I    between atoms: N_6  and  C_19 
REMARK    3  A    between atoms: C_16  and  C_21 
REMARK    4  A    between atoms: C_19  and  C_24 
ROOT
HETATM    1  O   UNK N   1      26.798  41.083  58.200  0.00  0.00    -0.267 OA
HETATM    2  N   UNK N   1      28.585  42.471  58.121  0.00  0.00    -0.322 N 
HETATM    3  N   UNK N   1      30.892  46.244  57.538  0.00  0.00    -0.354 N 
HETATM    4  C   UNK N   1      27.592  44.783  58.559  0.00  0.00    -0.001 C 
HETATM    5  C   UNK N   1      28.799  45.614  58.121  0.00  0.00    -0.008 A 
HETATM    6  C   UNK N   1      27.996  43.390  59.087  0.00  0.00     0.145 C 
HETATM    7  C   UNK N   1      30.116  45.173  57.848  0.00  0.00     0.058 A 
HETATM    8  C   UNK N   1      28.821  47.002  57.886  0.00  0.00    -0.000 A 
HETATM    9  C   UNK N   1      26.592  44.649  57.398  0.00  0.00     0.021 C 
HETATM   10  C   UNK N   1      26.897  45.450  59.783  0.00  0.00     0.021 C 
HETATM   11  C   UNK N   1      30.111  47.330  57.563  0.00  0.00     0.043 A 
HETATM   12  C   UNK N   1      30.658  43.779  57.698  0.00  0.00     0.082 C 
HETATM   13  C   UNK N   1      29.948  42.633  57.733  0.00  0.00     0.114 C 
HETATM   14  C   UNK N   1      27.829  48.000  57.909  0.00  0.00     0.014 A 
HETATM   15  C   UNK N   1      27.927  41.304  57.791  0.00  0.00     0.257 C 
HETATM   16  C   UNK N   1      30.503  48.637  57.271  0.00  0.00     0.030 A 
HETATM   17  C   UNK N   1      28.196  49.328  57.625  0.00  0.00     0.001 A 
HETATM   18  C   UNK N   1      29.531  49.647  57.313  0.00  0.00     0.002 A 
HETATM   19  H   UNK N   1      31.900  46.239  57.268  0.00  0.00     0.166 HD
ENDROOT
BRANCH  15  20
HETATM   20  C   UNK N   1      28.562  40.280  56.932  0.00  0.00     0.035 A 
HETATM   21  C   UNK N   1      29.064  39.102  57.498  0.00  0.00     0.062 A 
HETATM   22  C   UNK N   1      29.644  38.124  56.681  0.00  0.00     0.155 A 
HETATM   23  F   UNK N   1      30.130  36.986  57.233  0.00  0.00    -0.203 F 
HETATM   24  C   UNK N   1      29.716  38.321  55.297  0.00  0.00     0.154 A 
HETATM   25  F   UNK N   1      30.273  37.371  54.505  0.00  0.00    -0.203 F 
HETATM   26  C   UNK N   1      29.212  39.495  54.729  0.00  0.00     0.046 A 
HETATM   27  C   UNK N   1      28.637  40.475  55.544  0.00  0.00     0.020 A 
ENDBRANCH  15  20
BRANCH  12  28
HETATM   28  C   UNK N   1      32.085  43.614  57.334  0.00  0.00     0.297 C 
HETATM   29  O   UNK N   1      32.380  43.083  56.269  0.00  0.00    -0.259 OA
BRANCH  28  30
HETATM   30  O   UNK N   1      33.039  43.854  58.270  0.00  0.00    -0.313 OA
BRANCH  30  31
HETATM   31  C   UNK N   1      33.781  42.851  58.873  0.00  0.00     0.124 C 
HETATM   32  C   UNK N   1      35.057  43.459  59.439  0.00  0.00     0.040 C 
HETATM   33  C   UNK N   1      32.948  42.182  59.966  0.00  0.00     0.040 C 
ENDBRANCH  30  31
ENDBRANCH  28  30
ENDBRANCH  12  28
TORSDOF 4
ENDMDL
MODEL 4
REMARK VINA RESULT:      -5.7     13.968     17.196
REMARK  4 active torsions:
REMARK  status: ('A' for Active; 'I' for Inactive)
REMARK    1  A    between atoms: O_3  and  C_21 
REMARK    2  A    between atoms: O_3  and  C_25 
REMARK       I    between atoms: N_6  and  C_19 
REMARK    3  A    between atoms: C_16  and  C_21 
REMARK    4  A    between atoms: C_19  and  C_24 
ROOT
HETATM    1  O   UNK N   1      29.184  40.859  60.718  0.00  0.00    -0.267 OA
HETATM    2  N   UNK N   1      28.720  39.947  58.697  0.00  0.00    -0.322 N 
HETATM    3  N   UNK N   1      28.465  36.852  55.496  0.00  0.00    -0.354 N 
HETATM    4  C   UNK N   1      28.409  37.462  59.196  0.00  0.00    -0.001 C 
HETATM    5  C   UNK N   1      28.474  36.952  57.755  0.00  0.00    -0.008 A 
HETATM    6  C   UNK N   1      27.882  38.910  59.285  0.00  0.00     0.145 C 
HETATM    7  C   UNK N   1      28.429  37.701  56.556  0.00  0.00     0.058 A 
HETATM    8  C   UNK N   1      28.610  35.611  57.346  0.00  0.00    -0.000 A 
HETATM    9  C   UNK N   1      29.793  37.352  59.859  0.00  0.00     0.021 C 
HETATM   10  C   UNK N   1      27.364  36.642  60.009  0.00  0.00     0.021 C 
HETATM   11  C   UNK N   1      28.574  35.608  55.977  0.00  0.00     0.043 A 
HETATM   12  C   UNK N   1      28.521  39.186  56.338  0.00  0.00     0.082 C 
HETATM   13  C   UNK N   1      28.738  40.124  57.282  0.00  0.00     0.114 C 
HETATM   14  C   UNK N   1      28.779  34.402  58.045  0.00  0.00     0.014 A 
HETATM   15  C   UNK N   1      29.278  40.920  59.502  0.00  0.00     0.257 C 
HETATM   16  C   UNK N   1      28.676  34.437  55.225  0.00  0.00     0.030 A 
HETATM   17  C   UNK N   1      28.879  33.204  57.314  0.00  0.00     0.001 A 
HETATM   18  C   UNK N   1      28.821  33.221  55.908  0.00  0.00     0.002 A 
HETATM   19  H   UNK N   1      28.470  37.104  54.483  0.00  0.00     0.166 HD
ENDROOT
BRANCH  15  20
HETATM   20  C   UNK N   1      30.008  42.071  58.924  0.00  0.00     0.035 A 
HETATM   21  C   UNK N   1      31.408  42.094  58.942  0.00  0.00     0.062 A 
HETATM   22  C   UNK N   1      32.098  43.172  58.374  0.00  0.00     0.155 A 
HETATM   23  F   UNK N   1      33.452  43.192  58.394  0.00  0.00    -0.203 F 
HETATM   24  C   UNK N   1      31.388  44.223  57.783  0.00  0.00     0.154 A 
HETATM   25  F   UNK N   1      32.056  45.266  57.229  0.00  0.00    -0.203 F 
HETATM   26  C   UNK N   1      29.990  44.200  57.761  0.00  0.00     0.046 A 
HETATM   27  C   UNK N   1      29.300  43.127  58.332  0.00  0.00     0.020 A 
ENDBRANCH  15  20
BRANCH  12  28
HETATM   28  C   UNK N   1      28.519  39.695  54.946  0.00  0.00     0.297 C 
HETATM   29  O   UNK N   1      27.570  39.443  54.212  0.00  0.00    -0.259 OA
BRANCH  28  30
HETATM   30  O   UNK N   1      29.652  40.246  54.441  0.00  0.00    -0.313 OA
BRANCH  30  31
HETATM   31  C   UNK N   1      29.851  41.613  54.337  0.00  0.00     0.124 C 
HETATM   32  C   UNK N   1      31.276  41.935  54.766  0.00  0.00     0.040 C 
HETATM   33  C   UNK N   1      29.585  42.062  52.900  0.00  0.00     0.040 C 
ENDBRANCH  30  31
ENDBRANCH  28  30
ENDBRANCH  12  28
TORSDOF 4
ENDMDL
MODEL 5
REMARK VINA RESULT:      -5.5     13.986     16.129
REMARK  4 active torsions:
REMARK  status: ('A' for Active; 'I' for Inactive)
REMARK    1  A    between atoms: O_3  and  C_21 
REMARK    2  A    between atoms: O_3  and  C_25 
REMARK       I    between atoms: N_6  and  C_19 
REMARK    3  A    between atoms: C_16  and  C_21 
REMARK    4  A    between atoms: C_19  and  C_24 
ROOT
HETATM    1  O   UNK N   1      28.062  38.782  52.899  0.00  0.00    -0.267 OA
HETATM    2  N   UNK N   1      28.889  39.505  54.879  0.00  0.00    -0.322 N 
HETATM    3  N   UNK N   1      29.767  39.535  59.252  0.00  0.00    -0.354 N 
HETATM    4  C   UNK N   1      29.168  37.369  56.250  0.00  0.00    -0.001 C 
HETATM    5  C   UNK N   1      29.366  38.024  57.618  0.00  0.00    -0.008 A 
HETATM    6  C   UNK N   1      29.637  38.272  55.091  0.00  0.00     0.145 C 
HETATM    7  C   UNK N   1      29.599  39.388  57.912  0.00  0.00     0.058 A 
HETATM    8  C   UNK N   1      29.333  37.379  58.869  0.00  0.00    -0.000 A 
HETATM    9  C   UNK N   1      27.693  36.973  56.060  0.00  0.00     0.021 C 
HETATM   10  C   UNK N   1      30.076  36.109  56.122  0.00  0.00     0.021 C 
HETATM   11  C   UNK N   1      29.606  38.332  59.815  0.00  0.00     0.043 A 
HETATM   12  C   UNK N   1      29.511  40.599  57.025  0.00  0.00     0.082 C 
HETATM   13  C   UNK N   1      29.112  40.623  55.737  0.00  0.00     0.114 C 
HETATM   14  C   UNK N   1      29.075  36.053  59.264  0.00  0.00     0.014 A 
HETATM   15  C   UNK N   1      28.178  39.687  53.710  0.00  0.00     0.257 C 
HETATM   16  C   UNK N   1      29.663  38.042  61.178  0.00  0.00     0.030 A 
HETATM   17  C   UNK N   1      29.131  35.730  60.632  0.00  0.00     0.001 A 
HETATM   18  C   UNK N   1      29.431  36.721  61.587  0.00  0.00     0.002 A 
HETATM   19  H   UNK N   1      29.931  40.423  59.776  0.00  0.00     0.166 HD
ENDROOT
BRANCH  15  20
HETATM   20  C   UNK N   1      27.531  40.982  53.397  0.00  0.00     0.035 A 
HETATM   21  C   UNK N   1      28.254  41.987  52.743  0.00  0.00     0.062 A 
HETATM   22  C   UNK N   1      27.635  43.201  52.428  0.00  0.00     0.155 A 
HETATM   23  F   UNK N   1      28.337  44.173  51.796  0.00  0.00    -0.203 F 
HETATM   24  C   UNK N   1      26.291  43.409  52.759  0.00  0.00     0.154 A 
HETATM   25  F   UNK N   1      25.689  44.585  52.449  0.00  0.00    -0.203 F 
HETATM   26  C   UNK N   1      25.566  42.405  53.409  0.00  0.00     0.046 A 
HETATM   27  C   UNK N   1      26.185  41.193  53.730  0.00  0.00     0.020 A 
ENDBRANCH  15  20
BRANCH  12  28
HETATM   28  C   UNK N   1      29.742  41.932  57.628  0.00  0.00     0.297 C 
HETATM   29  O   UNK N   1      28.851  42.461  58.283  0.00  0.00    -0.259 OA
BRANCH  28  30
HETATM   30  O   UNK N   1      30.846  42.638  57.272  0.00  0.00    -0.313 OA
BRANCH  30  31
HETATM   31  C   UNK N   1      31.501  43.506  58.130  0.00  0.00     0.124 C 
HETATM   32  C   UNK N   1      32.840  42.894  58.518  0.00  0.00     0.040 C 
HETATM   33  C   UNK N   1      31.683  44.862  57.449  0.00  0.00     0.040 C 
ENDBRANCH  30  31
ENDBRANCH  28  30
ENDBRANCH  12  28
TORSDOF 4
ENDMDL
MODEL 6
REMARK VINA RESULT:      -5.5      3.642      7.902
REMARK  4 active torsions:
REMARK  status: ('A' for Active; 'I' for Inactive)
REMARK    1  A    between atoms: O_3  and  C_21 
REMARK    2  A    between atoms: O_3  and  C_25 
REMARK       I    between atoms: N_6  and  C_19 
REMARK    3  A    between atoms: C_16  and  C_21 
REMARK    4  A    between atoms: C_19  and  C_24 
ROOT
HETATM    1  O   UNK N   1      43.363  46.588  50.487  0.00  0.00    -0.267 OA
HETATM    2  N   UNK N   1      42.071  46.187  48.671  0.00  0.00    -0.322 N 
HETATM    3  N   UNK N   1      39.495  47.048  45.133  0.00  0.00    -0.354 N 
HETATM    4  C   UNK N   1      42.329  48.293  47.251  0.00  0.00    -0.001 C 
HETATM    5  C   UNK N   1      41.163  48.042  46.294  0.00  0.00    -0.008 A 
HETATM    6  C   UNK N   1      42.929  46.984  47.804  0.00  0.00     0.145 C 
HETATM    7  C   UNK N   1      40.406  46.859  46.123  0.00  0.00     0.058 A 
HETATM    8  C   UNK N   1      40.601  48.970  45.396  0.00  0.00    -0.000 A 
HETATM    9  C   UNK N   1      41.881  49.208  48.404  0.00  0.00     0.021 C 
HETATM   10  C   UNK N   1      43.519  48.946  46.486  0.00  0.00     0.021 C 
HETATM   11  C   UNK N   1      39.618  48.310  44.706  0.00  0.00     0.043 A 
HETATM   12  C   UNK N   1      40.373  45.604  46.949  0.00  0.00     0.082 C 
HETATM   13  C   UNK N   1      41.041  45.382  48.099  0.00  0.00     0.114 C 
HETATM   14  C   UNK N   1      40.849  50.331  45.133  0.00  0.00     0.014 A 
HETATM   15  C   UNK N   1      42.415  45.997  49.995  0.00  0.00     0.257 C 
HETATM   16  C   UNK N   1      38.850  48.928  43.719  0.00  0.00     0.030 A 
HETATM   17  C   UNK N   1      40.093  50.978  44.139  0.00  0.00     0.001 A 
HETATM   18  C   UNK N   1      39.100  50.277  43.429  0.00  0.00     0.002 A 
HETATM   19  H   UNK N   1      38.779  46.369  44.793  0.00  0.00     0.166 HD
ENDROOT
BRANCH  15  20
HETATM   20  C   UNK N   1      41.650  45.075  50.863  0.00  0.00     0.035 A 
HETATM   21  C   UNK N   1      41.967  44.966  52.222  0.00  0.00     0.062 A 
HETATM   22  C   UNK N   1      41.228  44.110  53.047  0.00  0.00     0.155 A 
HETATM   23  F   UNK N   1      41.538  44.006  54.362  0.00  0.00    -0.203 F 
HETATM   24  C   UNK N   1      40.167  43.368  52.515  0.00  0.00     0.154 A 
HETATM   25  F   UNK N   1      39.447  42.543  53.315  0.00  0.00    -0.203 F 
HETATM   26  C   UNK N   1      39.846  43.479  51.158  0.00  0.00     0.046 A 
HETATM   27  C   UNK N   1      40.587  44.329  50.332  0.00  0.00     0.020 A 
ENDBRANCH  15  20
BRANCH  12  28
HETATM   28  C   UNK N   1      39.417  44.537  46.572  0.00  0.00     0.297 C 
HETATM   29  O   UNK N   1      38.598  44.141  47.394  0.00  0.00    -0.259 OA
BRANCH  28  30
HETATM   30  O   UNK N   1      39.596  43.869  45.404  0.00  0.00    -0.313 OA
BRANCH  30  31
HETATM   31  C   UNK N   1      40.793  43.266  45.050  0.00  0.00     0.124 C 
HETATM   32  C   UNK N   1      41.618  44.256  44.238  0.00  0.00     0.040 C 
HETATM   33  C   UNK N   1      41.536  42.821  46.310  0.00  0.00     0.040 C 
ENDBRANCH  30  31
ENDBRANCH  28  30
ENDBRANCH  12  28
TORSDOF 4
ENDMDL
MODEL 7
REMARK VINA RESULT:      -5.4     14.636     17.091
REMARK  4 active torsions:
REMARK  status: ('A' for Active; 'I' for Inactive)
REMARK    1  A    between atoms: O_3  and  C_21 
REMARK    2  A    between atoms: O_3  and  C_25 
REMARK       I    between atoms: N_6  and  C_19 
REMARK    3  A    between atoms: C_16  and  C_21 
REMARK    4  A    between atoms: C_19  and  C_24 
ROOT
HETATM    1  O   UNK N   1      27.094  44.588  52.501  0.00  0.00    -0.267 OA
HETATM    2  N   UNK N   1      26.321  42.533  53.060  0.00  0.00    -0.322 N 
HETATM    3  N   UNK N   1      26.422  38.188  54.059  0.00  0.00    -0.354 N 
HETATM    4  C   UNK N   1      28.296  41.431  54.245  0.00  0.00    -0.001 C 
HETATM    5  C   UNK N   1      27.774  39.994  54.226  0.00  0.00    -0.008 A 
HETATM    6  C   UNK N   1      27.157  42.472  54.252  0.00  0.00     0.145 C 
HETATM    7  C   UNK N   1      26.475  39.536  53.901  0.00  0.00     0.058 A 
HETATM    8  C   UNK N   1      28.511  38.830  54.518  0.00  0.00    -0.000 A 
HETATM    9  C   UNK N   1      29.236  41.670  53.051  0.00  0.00     0.021 C 
HETATM   10  C   UNK N   1      29.053  41.709  55.579  0.00  0.00     0.021 C 
HETATM   11  C   UNK N   1      27.641  37.775  54.427  0.00  0.00     0.043 A 
HETATM   12  C   UNK N   1      25.315  40.270  53.288  0.00  0.00     0.082 C 
HETATM   13  C   UNK N   1      25.313  41.546  52.852  0.00  0.00     0.114 C 
HETATM   14  C   UNK N   1      29.862  38.599  54.838  0.00  0.00     0.014 A 
HETATM   15  C   UNK N   1      26.317  43.673  52.280  0.00  0.00     0.257 C 
HETATM   16  C   UNK N   1      28.032  36.457  54.662  0.00  0.00     0.030 A 
HETATM   17  C   UNK N   1      30.284  37.280  55.086  0.00  0.00     0.001 A 
HETATM   18  C   UNK N   1      29.370  36.212  55.005  0.00  0.00     0.002 A 
HETATM   19  H   UNK N   1      25.610  37.560  53.875  0.00  0.00     0.166 HD
ENDROOT
BRANCH  15  20
HETATM   20  C   UNK N   1      25.373  43.828  51.151  0.00  0.00     0.035 A 
HETATM   21  C   UNK N   1      25.491  43.010  50.020  0.00  0.00     0.062 A 
HETATM   22  C   UNK N   1      24.584  43.142  48.963  0.00  0.00     0.155 A 
HETATM   23  F   UNK N   1      24.701  42.351  47.869  0.00  0.00    -0.203 F 
HETATM   24  C   UNK N   1      23.553  44.087  49.038  0.00  0.00     0.154 A 
HETATM   25  F   UNK N   1      22.670  44.212  48.016  0.00  0.00    -0.203 F 
HETATM   26  C   UNK N   1      23.431  44.901  50.168  0.00  0.00     0.046 A 
HETATM   27  C   UNK N   1      24.340  44.774  51.223  0.00  0.00     0.020 A 
ENDBRANCH  15  20
BRANCH  12  28
HETATM   28  C   UNK N   1      24.080  39.510  52.987  0.00  0.00     0.297 C 
HETATM   29  O   UNK N   1      23.587  38.792  53.850  0.00  0.00    -0.259 OA
BRANCH  28  30
HETATM   30  O   UNK N   1      23.634  39.451  51.706  0.00  0.00    -0.313 OA
BRANCH  30  31
HETATM   31  C   UNK N   1      24.386  38.937  50.663  0.00  0.00     0.124 C 
HETATM   32  C   UNK N   1      24.383  37.417  50.759  0.00  0.00     0.040 C 
HETATM   33  C   UNK N   1      23.809  39.413  49.330  0.00  0.00     0.040 C 
ENDBRANCH  30  31
ENDBRANCH  28  30
ENDBRANCH  12  28
TORSDOF 4
ENDMDL
MODEL 8
REMARK VINA RESULT:      -5.4     14.270     17.397
REMARK  4 active torsions:
REMARK  status: ('A' for Active; 'I' for Inactive)
REMARK    1  A    between atoms: O_3  and  C_21 
REMARK    2  A    between atoms: O_3  and  C_25 
REMARK       I    between atoms: N_6  and  C_19 
REMARK    3  A    between atoms: C_16  and  C_21 
REMARK    4  A    between atoms: C_19  and  C_24 
ROOT
HETATM    1  O   UNK N   1      29.857  40.246  54.486  0.00  0.00    -0.267 OA
HETATM    2  N   UNK N   1      28.016  41.545  54.719  0.00  0.00    -0.322 N 
HETATM    3  N   UNK N   1      24.725  44.329  53.575  0.00  0.00    -0.354 N 
HETATM    4  C   UNK N   1      26.990  41.588  52.381  0.00  0.00    -0.001 C 
HETATM    5  C   UNK N   1      26.020  42.750  52.602  0.00  0.00    -0.008 A 
HETATM    6  C   UNK N   1      27.293  40.818  53.684  0.00  0.00     0.145 C 
HETATM    7  C   UNK N   1      25.652  43.367  53.821  0.00  0.00     0.058 A 
HETATM    8  C   UNK N   1      25.309  43.449  51.607  0.00  0.00    -0.000 A 
HETATM    9  C   UNK N   1      28.293  42.100  51.743  0.00  0.00     0.021 C 
HETATM   10  C   UNK N   1      26.337  40.511  51.464  0.00  0.00     0.021 C 
HETATM   11  C   UNK N   1      24.526  44.371  52.252  0.00  0.00     0.043 A 
HETATM   12  C   UNK N   1      26.243  43.223  55.196  0.00  0.00     0.082 C 
HETATM   13  C   UNK N   1      27.326  42.493  55.531  0.00  0.00     0.114 C 
HETATM   14  C   UNK N   1      25.289  43.373  50.202  0.00  0.00     0.014 A 
HETATM   15  C   UNK N   1      29.280  41.135  55.093  0.00  0.00     0.257 C 
HETATM   16  C   UNK N   1      23.676  45.242  51.570  0.00  0.00     0.030 A 
HETATM   17  C   UNK N   1      24.436  44.235  49.488  0.00  0.00     0.001 A 
HETATM   18  C   UNK N   1      23.627  45.163  50.171  0.00  0.00     0.002 A 
HETATM   19  H   UNK N   1      24.279  44.971  54.266  0.00  0.00     0.166 HD
ENDROOT
BRANCH  15  20
HETATM   20  C   UNK N   1      29.982  41.755  56.240  0.00  0.00     0.035 A 
HETATM   21  C   UNK N   1      29.720  41.316  57.543  0.00  0.00     0.062 A 
HETATM   22  C   UNK N   1      30.400  41.887  58.624  0.00  0.00     0.155 A 
HETATM   23  F   UNK N   1      30.144  41.460  59.885  0.00  0.00    -0.203 F 
HETATM   24  C   UNK N   1      31.349  42.892  58.402  0.00  0.00     0.154 A 
HETATM   25  F   UNK N   1      32.013  43.442  59.450  0.00  0.00    -0.203 F 
HETATM   26  C   UNK N   1      31.615  43.329  57.101  0.00  0.00     0.046 A 
HETATM   27  C   UNK N   1      30.932  42.763  56.020  0.00  0.00     0.020 A 
ENDBRANCH  15  20
BRANCH  12  28
HETATM   28  C   UNK N   1      25.696  44.059  56.289  0.00  0.00     0.297 C 
HETATM   29  O   UNK N   1      25.511  45.257  56.100  0.00  0.00    -0.259 OA
BRANCH  28  30
HETATM   30  O   UNK N   1      25.607  43.539  57.540  0.00  0.00    -0.313 OA
BRANCH  30  31
HETATM   31  C   UNK N   1      25.971  44.238  58.680  0.00  0.00     0.124 C 
HETATM   32  C   UNK N   1      25.207  43.669  59.868  0.00  0.00     0.040 C 
HETATM   33  C   UNK N   1      27.482  44.134  58.886  0.00  0.00     0.040 C 
ENDBRANCH  30  31
ENDBRANCH  28  30
ENDBRANCH  12  28
TORSDOF 4
ENDMDL
MODEL 9
REMARK VINA RESULT:      -5.3     14.938     17.408
REMARK  4 active torsions:
REMARK  status: ('A' for Active; 'I' for Inactive)
REMARK    1  A    between atoms: O_3  and  C_21 
REMARK    2  A    between atoms: O_3  and  C_25 
REMARK       I    between atoms: N_6  and  C_19 
REMARK    3  A    between atoms: C_16  and  C_21 
REMARK    4  A    between atoms: C_19  and  C_24 
ROOT
HETATM    1  O   UNK N   1      25.210  43.776  49.207  0.00  0.00    -0.267 OA
HETATM    2  N   UNK N   1      25.137  41.850  50.397  0.00  0.00    -0.322 N 
HETATM    3  N   UNK N   1      26.521  38.578  53.093  0.00  0.00    -0.354 N 
HETATM    4  C   UNK N   1      26.804  42.231  52.293  0.00  0.00    -0.001 C 
HETATM    5  C   UNK N   1      26.917  40.781  52.765  0.00  0.00    -0.008 A 
HETATM    6  C   UNK N   1      25.436  42.536  51.648  0.00  0.00     0.145 C 
HETATM    7  C   UNK N   1      26.107  39.676  52.408  0.00  0.00     0.058 A 
HETATM    8  C   UNK N   1      27.881  40.259  53.648  0.00  0.00    -0.000 A 
HETATM    9  C   UNK N   1      27.945  42.562  51.316  0.00  0.00     0.021 C 
HETATM   10  C   UNK N   1      26.854  43.197  53.515  0.00  0.00     0.021 C 
HETATM   11  C   UNK N   1      27.580  38.935  53.829  0.00  0.00     0.043 A 
HETATM   12  C   UNK N   1      25.065  39.547  51.333  0.00  0.00     0.082 C 
HETATM   13  C   UNK N   1      24.734  40.482  50.419  0.00  0.00     0.114 C 
HETATM   14  C   UNK N   1      29.001  40.817  54.294  0.00  0.00     0.014 A 
HETATM   15  C   UNK N   1      24.981  42.577  49.233  0.00  0.00     0.257 C 
HETATM   16  C   UNK N   1      28.330  38.100  54.658  0.00  0.00     0.030 A 
HETATM   17  C   UNK N   1      29.773  40.000  55.139  0.00  0.00     0.001 A 
HETATM   18  C   UNK N   1      29.435  38.646  55.326  0.00  0.00     0.002 A 
HETATM   19  H   UNK N   1      26.138  37.609  53.027  0.00  0.00     0.166 HD
ENDROOT
BRANCH  15  20
HETATM   20  C   UNK N   1      24.531  41.933  47.979  0.00  0.00     0.035 A 
HETATM   21  C   UNK N   1      25.445  41.230  47.184  0.00  0.00     0.062 A 
HETATM   22  C   UNK N   1      25.014  40.602  46.010  0.00  0.00     0.155 A 
HETATM   23  F   UNK N   1      25.901  39.924  45.243  0.00  0.00    -0.203 F 
HETATM   24  C   UNK N   1      23.667  40.671  45.633  0.00  0.00     0.154 A 
HETATM   25  F   UNK N   1      23.248  40.058  44.498  0.00  0.00    -0.203 F 
HETATM   26  C   UNK N   1      22.752  41.369  46.428  0.00  0.00     0.046 A 
HETATM   27  C   UNK N   1      23.183  42.001  47.599  0.00  0.00     0.020 A 
ENDBRANCH  15  20
BRANCH  12  28
HETATM   28  C   UNK N   1      24.416  38.230  51.135  0.00  0.00     0.297 C 
HETATM   29  O   UNK N   1      23.223  38.100  51.385  0.00  0.00    -0.259 OA
BRANCH  28  30
HETATM   30  O   UNK N   1      25.189  37.141  50.887  0.00  0.00    -0.313 OA
BRANCH  30  31
HETATM   31  C   UNK N   1      24.735  35.840  51.027  0.00  0.00     0.124 C 
HETATM   32  C   UNK N   1      25.312  34.996  49.899  0.00  0.00     0.040 C 
HETATM   33  C   UNK N   1      25.146  35.298  52.396  0.00  0.00     0.040 C 
ENDBRANCH  30  31
ENDBRANCH  28  30
ENDBRANCH  12  28
TORSDOF 4
ENDMDL
