MODEL 1
REMARK VINA RESULT:      -6.6      0.000      0.000
REMARK  7 active torsions:
REMARK  status: ('A' for Active; 'I' for Inactive)
REMARK    1  A    between atoms: O_4  and  C_36 
REMARK       I    between atoms: N_7  and  C_15 
REMARK    2  A    between atoms: N_7  and  C_17 
REMARK    3  A    between atoms: N_7  and  C_18 
REMARK    4  A    between atoms: C_12  and  C_15 
REMARK    5  A    between atoms: C_17  and  C_21 
REMARK    6  A    between atoms: C_18  and  C_23 
REMARK    7  A    between atoms: C_32  and  C_36 
ROOT
HETATM    1  O   UNK N   1      28.663  55.742  38.783  0.00  0.00    -0.266 OA
HETATM    2  N   UNK N   1      26.927  54.792  39.869  0.00  0.00    -0.338 N 
HETATM    3  C   UNK N   1      28.274  54.974  39.652  0.00  0.00     0.273 C 
ENDROOT
BRANCH   2   4
HETATM    4  C   UNK N   1      26.433  53.896  40.918  0.00  0.00     0.165 C 
BRANCH   4   5
HETATM    5  C   UNK N   1      26.109  52.537  40.362  0.00  0.00    -0.040 A 
HETATM    6  C   UNK N   1      25.756  52.389  39.013  0.00  0.00     0.010 A 
HETATM    7  C   UNK N   1      25.457  51.125  38.498  0.00  0.00     0.019 A 
HETATM    8  C   UNK N   1      25.508  49.990  39.329  0.00  0.00     0.037 A 
HETATM    9  C   UNK N   1      25.863  50.145  40.679  0.00  0.00     0.019 A 
HETATM   10  C   UNK N   1      26.159  51.410  41.192  0.00  0.00     0.010 A 
BRANCH   8  11
HETATM   11  C   UNK N   1      25.193  48.644  38.795  0.00  0.00     0.176 C 
HETATM   12  O   UNK N   1      25.571  48.317  37.679  0.00  0.00    -0.646 OA
BRANCH  11  13
HETATM   13  O   UNK N   1      24.484  47.770  39.543  0.00  0.00    -0.773 OA
HETATM   14  H   UNK N   1      24.706  46.828  39.562  0.00  0.00     0.167 HD
ENDBRANCH  11  13
ENDBRANCH   8  11
ENDBRANCH   4   5
ENDBRANCH   2   4
BRANCH   2  15
HETATM   15  C   UNK N   1      25.956  55.517  39.053  0.00  0.00     0.165 C 
BRANCH  15  16
HETATM   16  C   UNK N   1      24.795  55.972  39.886  0.00  0.00    -0.040 A 
HETATM   17  C   UNK N   1      24.977  56.956  40.870  0.00  0.00     0.009 A 
HETATM   18  C   UNK N   1      23.895  57.378  41.648  0.00  0.00     0.001 A 
HETATM   19  C   UNK N   1      22.629  56.823  41.443  0.00  0.00     0.000 A 
HETATM   20  C   UNK N   1      22.443  55.844  40.463  0.00  0.00     0.001 A 
HETATM   21  C   UNK N   1      23.523  55.416  39.687  0.00  0.00     0.009 A 
ENDBRANCH  15  16
ENDBRANCH   2  15
BRANCH   3  22
HETATM   22  C   UNK N   1      29.281  54.204  40.392  0.00  0.00     0.127 A 
HETATM   23  N   UNK N   1      29.632  52.951  40.051  0.00  0.00    -0.293 N 
HETATM   24  N   UNK N   1      30.514  52.513  40.937  0.00  0.00    -0.295 N 
ATOM     25  HN  UNK N   1      29.279  52.427  39.250  1.00  0.00     0.187 HD
HETATM   26  C   UNK N   1      30.733  53.487  41.858  0.00  0.00     0.074 A 
HETATM   27  C   UNK N   1      31.083  51.176  40.852  0.00  0.00     0.178 C 
HETATM   28  C   UNK N   1      29.963  54.568  41.536  0.00  0.00     0.029 A 
HETATM   29  C   UNK N   1      31.596  53.523  43.055  0.00  0.00     0.028 A 
HETATM   30  C   UNK N   1      29.928  55.830  42.344  0.00  0.00     0.219 A 
HETATM   31  O   UNK N   1      30.765  55.765  43.462  0.00  0.00    -0.346 OA
HETATM   32  C   UNK N   1      31.558  54.710  43.825  0.00  0.00     0.081 A 
HETATM   33  C   UNK N   1      32.345  54.814  44.979  0.00  0.00     0.039 A 
HETATM   34  C   UNK N   1      33.171  53.757  45.369  0.00  0.00     0.026 A 
HETATM   35  C   UNK N   1      33.215  52.585  44.609  0.00  0.00     0.035 A 
HETATM   36 Cl   UNK N   1      34.256  51.260  45.096  0.00  0.00    -0.084 Cl
HETATM   37  C   UNK N   1      32.431  52.465  43.459  0.00  0.00     0.040 A 
ENDBRANCH   3  22
TORSDOF 7
ENDMDL
MODEL 2
REMARK VINA RESULT:      -6.5     17.025     20.914
REMARK  7 active torsions:
REMARK  status: ('A' for Active; 'I' for Inactive)
REMARK    1  A    between atoms: O_4  and  C_36 
REMARK       I    between atoms: N_7  and  C_15 
REMARK    2  A    between atoms: N_7  and  C_17 
REMARK    3  A    between atoms: N_7  and  C_18 
REMARK    4  A    between atoms: C_12  and  C_15 
REMARK    5  A    between atoms: C_17  and  C_21 
REMARK    6  A    between atoms: C_18  and  C_23 
REMARK    7  A    between atoms: C_32  and  C_36 
ROOT
HETATM    1  O   UNK N   1      30.176  40.760  59.173  0.00  0.00    -0.266 OA
HETATM    2  N   UNK N   1      31.755  42.281  58.635  0.00  0.00    -0.338 N 
HETATM    3  C   UNK N   1      30.502  41.726  58.497  0.00  0.00     0.273 C 
ENDROOT
BRANCH   2   4
HETATM    4  C   UNK N   1      32.164  43.453  57.856  0.00  0.00     0.165 C 
BRANCH   4   5
HETATM    5  C   UNK N   1      31.401  44.678  58.277  0.00  0.00    -0.040 A 
HETATM    6  C   UNK N   1      30.879  44.777  59.576  0.00  0.00     0.010 A 
HETATM    7  C   UNK N   1      30.173  45.917  59.966  0.00  0.00     0.019 A 
HETATM    8  C   UNK N   1      29.978  46.976  59.060  0.00  0.00     0.037 A 
HETATM    9  C   UNK N   1      30.504  46.871  57.761  0.00  0.00     0.019 A 
HETATM   10  C   UNK N   1      31.208  45.730  57.373  0.00  0.00     0.010 A 
BRANCH   8  11
HETATM   11  C   UNK N   1      29.230  48.191  59.461  0.00  0.00     0.176 C 
HETATM   12  O   UNK N   1      28.191  48.095  60.099  0.00  0.00    -0.646 OA
BRANCH  11  13
HETATM   13  O   UNK N   1      29.695  49.413  59.122  0.00  0.00    -0.773 OA
HETATM   14  H   UNK N   1      30.175  49.556  58.294  0.00  0.00     0.167 HD
ENDBRANCH  11  13
ENDBRANCH   8  11
ENDBRANCH   4   5
ENDBRANCH   2   4
BRANCH   2  15
HETATM   15  C   UNK N   1      32.701  41.709  59.590  0.00  0.00     0.165 C 
BRANCH  15  16
HETATM   16  C   UNK N   1      32.722  42.506  60.860  0.00  0.00    -0.040 A 
HETATM   17  C   UNK N   1      33.787  43.382  61.123  0.00  0.00     0.009 A 
HETATM   18  C   UNK N   1      33.808  44.122  62.309  0.00  0.00     0.001 A 
HETATM   19  C   UNK N   1      32.765  43.995  63.230  0.00  0.00     0.000 A 
HETATM   20  C   UNK N   1      31.702  43.126  62.970  0.00  0.00     0.001 A 
HETATM   21  C   UNK N   1      31.681  42.380  61.790  0.00  0.00     0.009 A 
ENDBRANCH  15  16
ENDBRANCH   2  15
BRANCH   3  22
HETATM   22  C   UNK N   1      29.553  42.217  57.492  0.00  0.00     0.127 A 
HETATM   23  N   UNK N   1      28.393  42.815  57.820  0.00  0.00    -0.293 N 
HETATM   24  N   UNK N   1      27.739  43.092  56.701  0.00  0.00    -0.295 N 
ATOM     25  HN  UNK N   1      28.072  43.021  58.766  1.00  0.00     0.187 HD
HETATM   26  C   UNK N   1      28.479  42.667  55.643  0.00  0.00     0.074 A 
HETATM   27  C   UNK N   1      26.434  43.736  56.718  0.00  0.00     0.178 C 
HETATM   28  C   UNK N   1      29.631  42.108  56.118  0.00  0.00     0.029 A 
HETATM   29  C   UNK N   1      28.219  42.709  54.191  0.00  0.00     0.028 A 
HETATM   30  C   UNK N   1      30.685  41.510  55.236  0.00  0.00     0.219 A 
HETATM   31  O   UNK N   1      30.345  41.584  53.881  0.00  0.00    -0.346 OA
HETATM   32  C   UNK N   1      29.209  42.136  53.356  0.00  0.00     0.081 A 
HETATM   33  C   UNK N   1      29.028  42.134  51.967  0.00  0.00     0.039 A 
HETATM   34  C   UNK N   1      27.881  42.698  51.403  0.00  0.00     0.026 A 
HETATM   35  C   UNK N   1      26.905  43.269  52.222  0.00  0.00     0.035 A 
HETATM   36 Cl   UNK N   1      25.468  43.982  51.513  0.00  0.00    -0.084 Cl
HETATM   37  C   UNK N   1      27.069  43.273  53.610  0.00  0.00     0.040 A 
ENDBRANCH   3  22
TORSDOF 7
ENDMDL
MODEL 3
REMARK VINA RESULT:      -5.9      2.448      5.260
REMARK  7 active torsions:
REMARK  status: ('A' for Active; 'I' for Inactive)
REMARK    1  A    between atoms: O_4  and  C_36 
REMARK       I    between atoms: N_7  and  C_15 
REMARK    2  A    between atoms: N_7  and  C_17 
REMARK    3  A    between atoms: N_7  and  C_18 
REMARK    4  A    between atoms: C_12  and  C_15 
REMARK    5  A    between atoms: C_17  and  C_21 
REMARK    6  A    between atoms: C_18  and  C_23 
REMARK    7  A    between atoms: C_32  and  C_36 
ROOT
HETATM    1  O   UNK N   1      29.341  53.663  38.097  0.00  0.00    -0.266 OA
HETATM    2  N   UNK N   1      27.467  53.414  39.330  0.00  0.00    -0.338 N 
HETATM    3  C   UNK N   1      28.832  53.531  39.201  0.00  0.00     0.273 C 
ENDROOT
BRANCH   2   4
HETATM    4  C   UNK N   1      26.828  53.279  40.642  0.00  0.00     0.165 C 
BRANCH   4   5
HETATM    5  C   UNK N   1      26.322  54.605  41.138  0.00  0.00    -0.040 A 
HETATM    6  C   UNK N   1      25.220  55.219  40.523  0.00  0.00     0.010 A 
HETATM    7  C   UNK N   1      24.750  56.449  40.988  0.00  0.00     0.019 A 
HETATM    8  C   UNK N   1      25.377  57.084  42.076  0.00  0.00     0.037 A 
HETATM    9  C   UNK N   1      26.479  56.463  42.688  0.00  0.00     0.019 A 
HETATM   10  C   UNK N   1      26.949  55.234  42.221  0.00  0.00     0.010 A 
BRANCH   8  11
HETATM   11  C   UNK N   1      24.888  58.390  42.577  0.00  0.00     0.176 C 
HETATM   12  O   UNK N   1      25.573  59.055  43.340  0.00  0.00    -0.646 OA
BRANCH  11  13
HETATM   13  O   UNK N   1      23.677  58.851  42.191  0.00  0.00    -0.773 OA
HETATM   14  H   UNK N   1      23.534  59.201  41.301  0.00  0.00     0.167 HD
ENDBRANCH  11  13
ENDBRANCH   8  11
ENDBRANCH   4   5
ENDBRANCH   2   4
BRANCH   2  15
HETATM   15  C   UNK N   1      26.620  53.442  38.139  0.00  0.00     0.165 C 
BRANCH  15  16
HETATM   16  C   UNK N   1      25.611  52.333  38.178  0.00  0.00    -0.040 A 
HETATM   17  C   UNK N   1      26.035  50.995  38.164  0.00  0.00     0.009 A 
HETATM   18  C   UNK N   1      25.094  49.962  38.198  0.00  0.00     0.001 A 
HETATM   19  C   UNK N   1      23.730  50.261  38.251  0.00  0.00     0.000 A 
HETATM   20  C   UNK N   1      23.305  51.592  38.266  0.00  0.00     0.001 A 
HETATM   21  C   UNK N   1      24.241  52.627  38.227  0.00  0.00     0.009 A 
ENDBRANCH  15  16
ENDBRANCH   2  15
BRANCH   3  22
HETATM   22  C   UNK N   1      29.723  53.425  40.362  0.00  0.00     0.127 A 
HETATM   23  N   UNK N   1      30.123  54.496  41.072  0.00  0.00    -0.293 N 
HETATM   24  N   UNK N   1      30.957  54.081  42.014  0.00  0.00    -0.295 N 
ATOM     25  HN  UNK N   1      29.834  55.461  40.913  1.00  0.00     0.187 HD
HETATM   26  C   UNK N   1      31.102  52.734  41.910  0.00  0.00     0.074 A 
HETATM   27  C   UNK N   1      31.578  55.009  42.948  0.00  0.00     0.178 C 
HETATM   28  C   UNK N   1      30.332  52.295  40.872  0.00  0.00     0.029 A 
HETATM   29  C   UNK N   1      31.915  51.776  42.686  0.00  0.00     0.028 A 
HETATM   30  C   UNK N   1      30.256  50.859  40.446  0.00  0.00     0.219 A 
HETATM   31  O   UNK N   1      31.068  50.032  41.229  0.00  0.00    -0.346 OA
HETATM   32  C   UNK N   1      31.852  50.422  42.281  0.00  0.00     0.081 A 
HETATM   33  C   UNK N   1      32.602  49.457  42.966  0.00  0.00     0.039 A 
HETATM   34  C   UNK N   1      33.405  49.825  44.048  0.00  0.00     0.026 A 
HETATM   35  C   UNK N   1      33.466  51.160  44.455  0.00  0.00     0.035 A 
HETATM   36 Cl   UNK N   1      34.470  51.619  45.818  0.00  0.00    -0.084 Cl
HETATM   37  C   UNK N   1      32.728  52.133  43.778  0.00  0.00     0.040 A 
ENDBRANCH   3  22
TORSDOF 7
ENDMDL
MODEL 4
REMARK VINA RESULT:      -5.9      2.222      4.810
REMARK  7 active torsions:
REMARK  status: ('A' for Active; 'I' for Inactive)
REMARK    1  A    between atoms: O_4  and  C_36 
REMARK       I    between atoms: N_7  and  C_15 
REMARK    2  A    between atoms: N_7  and  C_17 
REMARK    3  A    between atoms: N_7  and  C_18 
REMARK    4  A    between atoms: C_12  and  C_15 
REMARK    5  A    between atoms: C_17  and  C_21 
REMARK    6  A    between atoms: C_18  and  C_23 
REMARK    7  A    between atoms: C_32  and  C_36 
ROOT
HETATM    1  O   UNK N   1      29.272  53.099  37.902  0.00  0.00    -0.266 OA
HETATM    2  N   UNK N   1      27.507  53.173  39.307  0.00  0.00    -0.338 N 
HETATM    3  C   UNK N   1      28.846  52.992  39.044  0.00  0.00     0.273 C 
ENDROOT
BRANCH   2   4
HETATM    4  C   UNK N   1      26.973  53.074  40.669  0.00  0.00     0.165 C 
BRANCH   4   5
HETATM    5  C   UNK N   1      26.498  54.413  41.163  0.00  0.00    -0.040 A 
HETATM    6  C   UNK N   1      25.392  55.038  40.567  0.00  0.00     0.010 A 
HETATM    7  C   UNK N   1      24.952  56.280  41.030  0.00  0.00     0.019 A 
HETATM    8  C   UNK N   1      25.613  56.915  42.098  0.00  0.00     0.037 A 
HETATM    9  C   UNK N   1      26.720  56.284  42.690  0.00  0.00     0.019 A 
HETATM   10  C   UNK N   1      27.160  55.043  42.225  0.00  0.00     0.010 A 
BRANCH   8  11
HETATM   11  C   UNK N   1      25.156  58.233  42.597  0.00  0.00     0.176 C 
HETATM   12  O   UNK N   1      24.084  58.695  42.233  0.00  0.00    -0.646 OA
BRANCH  11  13
HETATM   13  O   UNK N   1      25.926  58.932  43.461  0.00  0.00    -0.773 OA
HETATM   14  H   UNK N   1      25.731  59.856  43.673  0.00  0.00     0.167 HD
ENDBRANCH  11  13
ENDBRANCH   8  11
ENDBRANCH   4   5
ENDBRANCH   2   4
BRANCH   2  15
HETATM   15  C   UNK N   1      26.589  53.489  38.216  0.00  0.00     0.165 C 
BRANCH  15  16
HETATM   16  C   UNK N   1      25.594  52.384  38.021  0.00  0.00    -0.040 A 
HETATM   17  C   UNK N   1      26.032  51.095  37.681  0.00  0.00     0.009 A 
HETATM   18  C   UNK N   1      25.104  50.066  37.498  0.00  0.00     0.001 A 
HETATM   19  C   UNK N   1      23.739  50.319  37.658  0.00  0.00     0.000 A 
HETATM   20  C   UNK N   1      23.299  51.602  37.998  0.00  0.00     0.001 A 
HETATM   21  C   UNK N   1      24.223  52.633  38.177  0.00  0.00     0.009 A 
ENDBRANCH  15  16
ENDBRANCH   2  15
BRANCH   3  22
HETATM   22  C   UNK N   1      29.787  52.592  40.096  0.00  0.00     0.127 A 
HETATM   23  N   UNK N   1      30.150  51.313  40.299  0.00  0.00    -0.293 N 
HETATM   24  N   UNK N   1      30.960  51.273  41.347  0.00  0.00    -0.295 N 
ATOM     25  HN  UNK N   1      29.853  50.511  39.743  1.00  0.00     0.187 HD
HETATM   26  C   UNK N   1      31.120  52.534  41.827  0.00  0.00     0.074 A 
HETATM   27  C   UNK N   1      31.521  50.021  41.832  0.00  0.00     0.178 C 
HETATM   28  C   UNK N   1      30.386  53.387  41.054  0.00  0.00     0.029 A 
HETATM   29  C   UNK N   1      31.892  53.052  42.974  0.00  0.00     0.028 A 
HETATM   30  C   UNK N   1      30.304  54.864  41.299  0.00  0.00     0.219 A 
HETATM   31  O   UNK N   1      31.055  55.258  42.411  0.00  0.00    -0.346 OA
HETATM   32  C   UNK N   1      31.809  54.444  43.213  0.00  0.00     0.081 A 
HETATM   33  C   UNK N   1      32.509  55.006  44.288  0.00  0.00     0.039 A 
HETATM   34  C   UNK N   1      33.293  54.201  45.119  0.00  0.00     0.026 A 
HETATM   35  C   UNK N   1      33.382  52.827  44.883  0.00  0.00     0.035 A 
HETATM   36 Cl   UNK N   1      34.371  51.819  45.922  0.00  0.00    -0.084 Cl
HETATM   37  C   UNK N   1      32.685  52.253  43.818  0.00  0.00     0.040 A 
ENDBRANCH   3  22
TORSDOF 7
ENDMDL
MODEL 5
REMARK VINA RESULT:      -5.8     18.436     21.536
REMARK  7 active torsions:
REMARK  status: ('A' for Active; 'I' for Inactive)
REMARK    1  A    between atoms: O_4  and  C_36 
REMARK       I    between atoms: N_7  and  C_15 
REMARK    2  A    between atoms: N_7  and  C_17 
REMARK    3  A    between atoms: N_7  and  C_18 
REMARK    4  A    between atoms: C_12  and  C_15 
REMARK    5  A    between atoms: C_17  and  C_21 
REMARK    6  A    between atoms: C_18  and  C_23 
REMARK    7  A    between atoms: C_32  and  C_36 
ROOT
HETATM    1  O   UNK N   1      31.542  42.336  55.189  0.00  0.00    -0.266 OA
HETATM    2  N   UNK N   1      30.433  42.303  57.155  0.00  0.00    -0.338 N 
HETATM    3  C   UNK N   1      30.535  42.026  55.810  0.00  0.00     0.273 C 
ENDROOT
BRANCH   2   4
HETATM    4  C   UNK N   1      29.248  41.922  57.929  0.00  0.00     0.165 C 
BRANCH   4   5
HETATM    5  C   UNK N   1      29.572  40.833  58.914  0.00  0.00    -0.040 A 
HETATM    6  C   UNK N   1      29.701  41.127  60.280  0.00  0.00     0.010 A 
HETATM    7  C   UNK N   1      29.999  40.113  61.193  0.00  0.00     0.019 A 
HETATM    8  C   UNK N   1      30.172  38.788  60.752  0.00  0.00     0.037 A 
HETATM    9  C   UNK N   1      30.040  38.500  59.383  0.00  0.00     0.019 A 
HETATM   10  C   UNK N   1      29.744  39.515  58.471  0.00  0.00     0.010 A 
BRANCH   8  11
HETATM   11  C   UNK N   1      30.489  37.704  61.711  0.00  0.00     0.176 C 
HETATM   12  O   UNK N   1      30.503  37.926  62.913  0.00  0.00    -0.646 OA
BRANCH  11  13
HETATM   13  O   UNK N   1      30.765  36.461  61.258  0.00  0.00    -0.773 OA
HETATM   14  H   UNK N   1      31.233  35.818  61.808  0.00  0.00     0.167 HD
ENDBRANCH  11  13
ENDBRANCH   8  11
ENDBRANCH   4   5
ENDBRANCH   2   4
BRANCH   2  15
HETATM   15  C   UNK N   1      31.533  42.976  57.842  0.00  0.00     0.165 C 
BRANCH  15  16
HETATM   16  C   UNK N   1      31.096  44.313  58.362  0.00  0.00    -0.040 A 
HETATM   17  C   UNK N   1      30.832  44.484  59.730  0.00  0.00     0.009 A 
HETATM   18  C   UNK N   1      30.423  45.730  60.214  0.00  0.00     0.001 A 
HETATM   19  C   UNK N   1      30.281  46.808  59.336  0.00  0.00     0.000 A 
HETATM   20  C   UNK N   1      30.546  46.642  57.974  0.00  0.00     0.001 A 
HETATM   21  C   UNK N   1      30.949  45.397  57.486  0.00  0.00     0.009 A 
ENDBRANCH  15  16
ENDBRANCH   2  15
BRANCH   3  22
HETATM   22  C   UNK N   1      29.422  41.428  55.064  0.00  0.00     0.127 A 
HETATM   23  N   UNK N   1      28.377  42.147  54.616  0.00  0.00    -0.293 N 
HETATM   24  N   UNK N   1      27.522  41.318  54.036  0.00  0.00    -0.295 N 
ATOM     25  HN  UNK N   1      28.262  43.156  54.709  1.00  0.00     0.187 HD
HETATM   26  C   UNK N   1      28.015  40.054  54.111  0.00  0.00     0.074 A 
HETATM   27  C   UNK N   1      26.274  41.791  53.455  0.00  0.00     0.178 C 
HETATM   28  C   UNK N   1      29.216  40.096  54.759  0.00  0.00     0.029 A 
HETATM   29  C   UNK N   1      27.469  38.764  53.646  0.00  0.00     0.028 A 
HETATM   30  C   UNK N   1      30.046  38.881  55.045  0.00  0.00     0.219 A 
HETATM   31  O   UNK N   1      29.443  37.708  54.580  0.00  0.00    -0.346 OA
HETATM   32  C   UNK N   1      28.246  37.614  53.922  0.00  0.00     0.081 A 
HETATM   33  C   UNK N   1      27.789  36.354  53.516  0.00  0.00     0.039 A 
HETATM   34  C   UNK N   1      26.575  36.228  52.836  0.00  0.00     0.026 A 
HETATM   35  C   UNK N   1      25.807  37.361  52.557  0.00  0.00     0.035 A 
HETATM   36 Cl   UNK N   1      24.286  37.203  51.697  0.00  0.00    -0.084 Cl
HETATM   37  C   UNK N   1      26.249  38.623  52.960  0.00  0.00     0.040 A 
ENDBRANCH   3  22
TORSDOF 7
ENDMDL
MODEL 6
REMARK VINA RESULT:      -5.8     17.352     20.553
REMARK  7 active torsions:
REMARK  status: ('A' for Active; 'I' for Inactive)
REMARK    1  A    between atoms: O_4  and  C_36 
REMARK       I    between atoms: N_7  and  C_15 
REMARK    2  A    between atoms: N_7  and  C_17 
REMARK    3  A    between atoms: N_7  and  C_18 
REMARK    4  A    between atoms: C_12  and  C_15 
REMARK    5  A    between atoms: C_17  and  C_21 
REMARK    6  A    between atoms: C_18  and  C_23 
REMARK    7  A    between atoms: C_32  and  C_36 
ROOT
HETATM    1  O   UNK N   1      28.304  40.266  58.239  0.00  0.00    -0.266 OA
HETATM    2  N   UNK N   1      29.643  41.451  56.862  0.00  0.00    -0.338 N 
HETATM    3  C   UNK N   1      28.868  40.353  57.157  0.00  0.00     0.273 C 
ENDROOT
BRANCH   2   4
HETATM    4  C   UNK N   1      30.311  41.593  55.565  0.00  0.00     0.165 C 
BRANCH   4   5
HETATM    5  C   UNK N   1      29.344  42.042  54.504  0.00  0.00    -0.040 A 
HETATM    6  C   UNK N   1      29.681  41.935  53.146  0.00  0.00     0.010 A 
HETATM    7  C   UNK N   1      28.780  42.351  52.163  0.00  0.00     0.019 A 
HETATM    8  C   UNK N   1      27.527  42.880  52.526  0.00  0.00     0.037 A 
HETATM    9  C   UNK N   1      27.196  42.983  53.887  0.00  0.00     0.019 A 
HETATM   10  C   UNK N   1      28.099  42.569  54.869  0.00  0.00     0.010 A 
BRANCH   8  11
HETATM   11  C   UNK N   1      26.563  43.325  51.492  0.00  0.00     0.176 C 
HETATM   12  O   UNK N   1      25.662  44.100  51.779  0.00  0.00    -0.646 OA
BRANCH  11  13
HETATM   13  O   UNK N   1      26.677  42.873  50.223  0.00  0.00    -0.773 OA
HETATM   14  H   UNK N   1      26.219  43.309  49.491  0.00  0.00     0.167 HD
ENDBRANCH  11  13
ENDBRANCH   8  11
ENDBRANCH   4   5
ENDBRANCH   2   4
BRANCH   2  15
HETATM   15  C   UNK N   1      29.799  42.516  57.850  0.00  0.00     0.165 C 
BRANCH  15  16
HETATM   16  C   UNK N   1      31.096  42.371  58.589  0.00  0.00    -0.040 A 
HETATM   17  C   UNK N   1      31.184  41.507  59.693  0.00  0.00     0.009 A 
HETATM   18  C   UNK N   1      32.392  41.374  60.382  0.00  0.00     0.001 A 
HETATM   19  C   UNK N   1      33.515  42.096  59.971  0.00  0.00     0.000 A 
HETATM   20  C   UNK N   1      33.432  42.955  58.871  0.00  0.00     0.001 A 
HETATM   21  C   UNK N   1      32.225  43.095  58.183  0.00  0.00     0.009 A 
ENDBRANCH  15  16
ENDBRANCH   2  15
BRANCH   3  22
HETATM   22  C   UNK N   1      28.752  39.224  56.227  0.00  0.00     0.127 A 
HETATM   23  N   UNK N   1      29.752  38.348  56.019  0.00  0.00    -0.293 N 
HETATM   24  N   UNK N   1      29.362  37.486  55.092  0.00  0.00    -0.295 N 
ATOM     25  HN  UNK N   1      30.656  38.348  56.493  1.00  0.00     0.187 HD
HETATM   26  C   UNK N   1      28.103  37.808  54.695  0.00  0.00     0.074 A 
HETATM   27  C   UNK N   1      30.231  36.412  54.633  0.00  0.00     0.178 C 
HETATM   28  C   UNK N   1      27.695  38.905  55.397  0.00  0.00     0.029 A 
HETATM   29  C   UNK N   1      27.211  37.198  53.689  0.00  0.00     0.028 A 
HETATM   30  C   UNK N   1      26.359  39.560  55.209  0.00  0.00     0.219 A 
HETATM   31  O   UNK N   1      25.592  38.922  54.229  0.00  0.00    -0.346 OA
HETATM   32  C   UNK N   1      25.953  37.819  53.503  0.00  0.00     0.081 A 
HETATM   33  C   UNK N   1      25.056  37.300  52.560  0.00  0.00     0.039 A 
HETATM   34  C   UNK N   1      25.394  36.171  51.810  0.00  0.00     0.026 A 
HETATM   35  C   UNK N   1      26.633  35.552  51.995  0.00  0.00     0.035 A 
HETATM   36 Cl   UNK N   1      27.054  34.131  51.057  0.00  0.00    -0.084 Cl
HETATM   37  C   UNK N   1      27.539  36.062  52.927  0.00  0.00     0.040 A 
ENDBRANCH   3  22
TORSDOF 7
ENDMDL
MODEL 7
REMARK VINA RESULT:      -5.8     16.255     20.099
REMARK  7 active torsions:
REMARK  status: ('A' for Active; 'I' for Inactive)
REMARK    1  A    between atoms: O_4  and  C_36 
REMARK       I    between atoms: N_7  and  C_15 
REMARK    2  A    between atoms: N_7  and  C_17 
REMARK    3  A    between atoms: N_7  and  C_18 
REMARK    4  A    between atoms: C_12  and  C_15 
REMARK    5  A    between atoms: C_17  and  C_21 
REMARK    6  A    between atoms: C_18  and  C_23 
REMARK    7  A    between atoms: C_32  and  C_36 
ROOT
HETATM    1  O   UNK N   1      28.290  41.611  58.415  0.00  0.00    -0.266 OA
HETATM    2  N   UNK N   1      29.765  43.306  58.205  0.00  0.00    -0.338 N 
HETATM    3  C   UNK N   1      28.811  42.453  57.698  0.00  0.00     0.273 C 
ENDROOT
BRANCH   2   4
HETATM    4  C   UNK N   1      30.388  44.340  57.374  0.00  0.00     0.165 C 
BRANCH   4   5
HETATM    5  C   UNK N   1      29.931  45.713  57.784  0.00  0.00    -0.040 A 
HETATM    6  C   UNK N   1      28.713  45.883  58.460  0.00  0.00     0.010 A 
HETATM    7  C   UNK N   1      28.292  47.159  58.842  0.00  0.00     0.019 A 
HETATM    8  C   UNK N   1      29.085  48.285  58.552  0.00  0.00     0.037 A 
HETATM    9  C   UNK N   1      30.304  48.108  57.875  0.00  0.00     0.019 A 
HETATM   10  C   UNK N   1      30.722  46.832  57.493  0.00  0.00     0.010 A 
BRANCH   8  11
HETATM   11  C   UNK N   1      28.648  49.644  58.951  0.00  0.00     0.176 C 
HETATM   12  O   UNK N   1      27.459  49.908  59.045  0.00  0.00    -0.646 OA
BRANCH  11  13
HETATM   13  O   UNK N   1      29.569  50.599  59.212  0.00  0.00    -0.773 OA
HETATM   14  H   UNK N   1      29.363  51.351  59.785  0.00  0.00     0.167 HD
ENDBRANCH  11  13
ENDBRANCH   8  11
ENDBRANCH   4   5
ENDBRANCH   2   4
BRANCH   2  15
HETATM   15  C   UNK N   1      30.162  43.200  59.607  0.00  0.00     0.165 C 
BRANCH  15  16
HETATM   16  C   UNK N   1      31.460  42.460  59.738  0.00  0.00    -0.040 A 
HETATM   17  C   UNK N   1      32.677  43.144  59.594  0.00  0.00     0.009 A 
HETATM   18  C   UNK N   1      33.886  42.454  59.714  0.00  0.00     0.001 A 
HETATM   19  C   UNK N   1      33.884  41.083  59.982  0.00  0.00     0.000 A 
HETATM   20  C   UNK N   1      32.674  40.399  60.128  0.00  0.00     0.001 A 
HETATM   21  C   UNK N   1      31.464  41.084  60.004  0.00  0.00     0.009 A 
ENDBRANCH  15  16
ENDBRANCH   2  15
BRANCH   3  22
HETATM   22  C   UNK N   1      28.444  42.471  56.277  0.00  0.00     0.127 A 
HETATM   23  N   UNK N   1      29.289  42.087  55.303  0.00  0.00    -0.293 N 
HETATM   24  N   UNK N   1      28.688  42.269  54.137  0.00  0.00    -0.295 N 
ATOM     25  HN  UNK N   1      30.231  41.720  55.439  1.00  0.00     0.187 HD
HETATM   26  C   UNK N   1      27.447  42.777  54.357  0.00  0.00     0.074 A 
HETATM   27  C   UNK N   1      29.350  41.957  52.879  0.00  0.00     0.178 C 
HETATM   28  C   UNK N   1      27.269  42.915  55.704  0.00  0.00     0.029 A 
HETATM   29  C   UNK N   1      26.376  43.176  53.423  0.00  0.00     0.028 A 
HETATM   30  C   UNK N   1      26.019  43.468  56.321  0.00  0.00     0.219 A 
HETATM   31  O   UNK N   1      25.070  43.830  55.360  0.00  0.00    -0.346 OA
HETATM   32  C   UNK N   1      25.199  43.707  54.003  0.00  0.00     0.081 A 
HETATM   33  C   UNK N   1      24.142  44.114  53.178  0.00  0.00     0.039 A 
HETATM   34  C   UNK N   1      24.242  43.993  51.790  0.00  0.00     0.026 A 
HETATM   35  C   UNK N   1      25.400  43.464  51.214  0.00  0.00     0.035 A 
HETATM   36 Cl   UNK N   1      25.522  43.307  49.471  0.00  0.00    -0.084 Cl
HETATM   37  C   UNK N   1      26.463  43.060  52.024  0.00  0.00     0.040 A 
ENDBRANCH   3  22
TORSDOF 7
ENDMDL
MODEL 8
REMARK VINA RESULT:      -5.6     13.025     17.953
REMARK  7 active torsions:
REMARK  status: ('A' for Active; 'I' for Inactive)
REMARK    1  A    between atoms: O_4  and  C_36 
REMARK       I    between atoms: N_7  and  C_15 
REMARK    2  A    between atoms: N_7  and  C_17 
REMARK    3  A    between atoms: N_7  and  C_18 
REMARK    4  A    between atoms: C_12  and  C_15 
REMARK    5  A    between atoms: C_17  and  C_21 
REMARK    6  A    between atoms: C_18  and  C_23 
REMARK    7  A    between atoms: C_32  and  C_36 
ROOT
HETATM    1  O   UNK N   1      41.764  46.563  49.876  0.00  0.00    -0.266 OA
HETATM    2  N   UNK N   1      41.456  44.424  49.227  0.00  0.00    -0.338 N 
HETATM    3  C   UNK N   1      41.265  45.779  49.081  0.00  0.00     0.273 C 
ENDROOT
BRANCH   2   4
HETATM    4  C   UNK N   1      40.889  43.463  48.276  0.00  0.00     0.165 C 
BRANCH   4   5
HETATM    5  C   UNK N   1      41.887  43.101  47.212  0.00  0.00    -0.040 A 
HETATM    6  C   UNK N   1      42.556  41.868  47.256  0.00  0.00     0.010 A 
HETATM    7  C   UNK N   1      43.481  41.533  46.265  0.00  0.00     0.019 A 
HETATM    8  C   UNK N   1      43.750  42.428  45.213  0.00  0.00     0.037 A 
HETATM    9  C   UNK N   1      43.076  43.660  45.173  0.00  0.00     0.019 A 
HETATM   10  C   UNK N   1      42.153  43.994  46.166  0.00  0.00     0.010 A 
BRANCH   8  11
HETATM   11  C   UNK N   1      44.730  42.084  44.155  0.00  0.00     0.176 C 
HETATM   12  O   UNK N   1      45.176  42.953  43.419  0.00  0.00    -0.646 OA
BRANCH  11  13
HETATM   13  O   UNK N   1      45.135  40.804  44.001  0.00  0.00    -0.773 OA
HETATM   14  H   UNK N   1      44.539  40.063  44.180  0.00  0.00     0.167 HD
ENDBRANCH  11  13
ENDBRANCH   8  11
ENDBRANCH   4   5
ENDBRANCH   2   4
BRANCH   2  15
HETATM   15  C   UNK N   1      42.254  43.919  50.341  0.00  0.00     0.165 C 
BRANCH  15  16
HETATM   16  C   UNK N   1      41.459  43.930  51.613  0.00  0.00    -0.040 A 
HETATM   17  C   UNK N   1      41.852  44.751  52.681  0.00  0.00     0.009 A 
HETATM   18  C   UNK N   1      41.112  44.759  53.867  0.00  0.00     0.001 A 
HETATM   19  C   UNK N   1      39.977  43.953  53.988  0.00  0.00     0.000 A 
HETATM   20  C   UNK N   1      39.582  43.135  52.925  0.00  0.00     0.001 A 
HETATM   21  C   UNK N   1      40.322  43.120  51.741  0.00  0.00     0.009 A 
ENDBRANCH  15  16
ENDBRANCH   2  15
BRANCH   3  22
HETATM   22  C   UNK N   1      40.403  46.323  48.026  0.00  0.00     0.127 A 
HETATM   23  N   UNK N   1      39.199  45.800  47.729  0.00  0.00    -0.293 N 
HETATM   24  N   UNK N   1      38.697  46.473  46.704  0.00  0.00    -0.295 N 
ATOM     25  HN  UNK N   1      38.751  45.020  48.209  1.00  0.00     0.187 HD
HETATM   26  C   UNK N   1      39.582  47.435  46.333  0.00  0.00     0.074 A 
HETATM   27  C   UNK N   1      37.400  46.140  46.134  0.00  0.00     0.178 C 
HETATM   28  C   UNK N   1      40.671  47.360  47.153  0.00  0.00     0.029 A 
HETATM   29  C   UNK N   1      39.535  48.441  45.254  0.00  0.00     0.028 A 
HETATM   30  C   UNK N   1      41.866  48.257  47.027  0.00  0.00     0.219 A 
HETATM   31  O   UNK N   1      41.735  49.165  45.972  0.00  0.00    -0.346 OA
HETATM   32  C   UNK N   1      40.665  49.283  45.127  0.00  0.00     0.081 A 
HETATM   33  C   UNK N   1      40.694  50.258  44.121  0.00  0.00     0.039 A 
HETATM   34  C   UNK N   1      39.613  50.407  43.250  0.00  0.00     0.026 A 
HETATM   35  C   UNK N   1      38.493  49.581  43.375  0.00  0.00     0.035 A 
HETATM   36 Cl   UNK N   1      37.133  49.772  42.284  0.00  0.00    -0.084 Cl
HETATM   37  C   UNK N   1      38.452  48.601  44.370  0.00  0.00     0.040 A 
ENDBRANCH   3  22
TORSDOF 7
ENDMDL
MODEL 9
REMARK VINA RESULT:      -5.6     16.519     20.149
REMARK  7 active torsions:
REMARK  status: ('A' for Active; 'I' for Inactive)
REMARK    1  A    between atoms: O_4  and  C_36 
REMARK       I    between atoms: N_7  and  C_15 
REMARK    2  A    between atoms: N_7  and  C_17 
REMARK    3  A    between atoms: N_7  and  C_18 
REMARK    4  A    between atoms: C_12  and  C_15 
REMARK    5  A    between atoms: C_17  and  C_21 
REMARK    6  A    between atoms: C_18  and  C_23 
REMARK    7  A    between atoms: C_32  and  C_36 
ROOT
HETATM    1  O   UNK N   1      26.604  39.591  56.517  0.00  0.00    -0.266 OA
HETATM    2  N   UNK N   1      28.622  40.557  56.216  0.00  0.00    -0.338 N 
HETATM    3  C   UNK N   1      27.273  40.453  55.964  0.00  0.00     0.273 C 
ENDROOT
BRANCH   2   4
HETATM    4  C   UNK N   1      29.442  41.596  55.586  0.00  0.00     0.165 C 
BRANCH   4   5
HETATM    5  C   UNK N   1      29.698  42.734  56.534  0.00  0.00    -0.040 A 
HETATM    6  C   UNK N   1      31.012  43.116  56.847  0.00  0.00     0.010 A 
HETATM    7  C   UNK N   1      31.247  44.175  57.726  0.00  0.00     0.019 A 
HETATM    8  C   UNK N   1      30.169  44.870  58.306  0.00  0.00     0.037 A 
HETATM    9  C   UNK N   1      28.855  44.483  57.988  0.00  0.00     0.019 A 
HETATM   10  C   UNK N   1      28.623  43.422  57.110  0.00  0.00     0.010 A 
BRANCH   8  11
HETATM   11  C   UNK N   1      30.405  45.995  59.241  0.00  0.00     0.176 C 
HETATM   12  O   UNK N   1      30.658  45.779  60.417  0.00  0.00    -0.646 OA
BRANCH  11  13
HETATM   13  O   UNK N   1      30.341  47.269  58.793  0.00  0.00    -0.773 OA
HETATM   14  H   UNK N   1      31.123  47.837  58.782  0.00  0.00     0.167 HD
ENDBRANCH  11  13
ENDBRANCH   8  11
ENDBRANCH   4   5
ENDBRANCH   2   4
BRANCH   2  15
HETATM   15  C   UNK N   1      29.261  39.628  57.145  0.00  0.00     0.165 C 
BRANCH  15  16
HETATM   16  C   UNK N   1      29.549  38.319  56.474  0.00  0.00    -0.040 A 
HETATM   17  C   UNK N   1      29.383  37.116  57.178  0.00  0.00     0.009 A 
HETATM   18  C   UNK N   1      29.654  35.896  56.552  0.00  0.00     0.001 A 
HETATM   19  C   UNK N   1      30.086  35.872  55.224  0.00  0.00     0.000 A 
HETATM   20  C   UNK N   1      30.251  37.068  54.519  0.00  0.00     0.001 A 
HETATM   21  C   UNK N   1      29.986  38.289  55.142  0.00  0.00     0.009 A 
ENDBRANCH  15  16
ENDBRANCH   2  15
BRANCH   3  22
HETATM   22  C   UNK N   1      26.609  41.312  54.976  0.00  0.00     0.127 A 
HETATM   23  N   UNK N   1      25.850  42.367  55.323  0.00  0.00    -0.293 N 
HETATM   24  N   UNK N   1      25.351  42.900  54.218  0.00  0.00    -0.295 N 
ATOM     25  HN  UNK N   1      25.686  42.699  56.274  1.00  0.00     0.187 HD
HETATM   26  C   UNK N   1      25.787  42.183  53.149  0.00  0.00     0.074 A 
HETATM   27  C   UNK N   1      24.472  44.059  54.258  0.00  0.00     0.178 C 
HETATM   28  C   UNK N   1      26.584  41.172  53.602  0.00  0.00     0.029 A 
HETATM   29  C   UNK N   1      25.525  42.329  51.703  0.00  0.00     0.028 A 
HETATM   30  C   UNK N   1      27.231  40.160  52.704  0.00  0.00     0.219 A 
HETATM   31  O   UNK N   1      26.915  40.371  51.358  0.00  0.00    -0.346 OA
HETATM   32  C   UNK N   1      26.127  41.370  50.854  0.00  0.00     0.081 A 
HETATM   33  C   UNK N   1      25.918  41.441  49.470  0.00  0.00     0.039 A 
HETATM   34  C   UNK N   1      25.125  42.455  48.926  0.00  0.00     0.026 A 
HETATM   35  C   UNK N   1      24.534  43.406  49.761  0.00  0.00     0.035 A 
HETATM   36 Cl   UNK N   1      23.544  44.683  49.077  0.00  0.00    -0.084 Cl
HETATM   37  C   UNK N   1      24.729  43.345  51.143  0.00  0.00     0.040 A 
ENDBRANCH   3  22
TORSDOF 7
ENDMDL
