MODEL 1
REMARK VINA RESULT:     -10.4      0.000      0.000
REMARK  0 active torsions:
REMARK  status: ('A' for Active; 'I' for Inactive)
ROOT
HETATM    1  O   UNK N   1      42.318  44.601  53.280  0.00  0.00    -0.293 OA
HETATM    2  O   UNK N   1      39.684  50.437  44.424  0.00  0.00    -0.293 OA
HETATM    3  C   UNK N   1      41.703  46.200  48.659  0.00  0.00    -0.004 C 
HETATM    4  C   UNK N   1      40.339  46.343  47.890  0.00  0.00     0.002 C 
HETATM    5  C   UNK N   1      41.412  45.702  50.088  0.00  0.00     0.010 C 
HETATM    6  C   UNK N   1      40.665  44.344  50.123  0.00  0.00    -0.009 C 
HETATM    7  C   UNK N   1      40.539  46.886  46.415  0.00  0.00    -0.016 C 
HETATM    8  C   UNK N   1      39.490  45.032  47.972  0.00  0.00     0.007 C 
HETATM    9  C   UNK N   1      39.298  44.547  49.430  0.00  0.00     0.015 C 
HETATM   10  C   UNK N   1      42.421  47.567  48.699  0.00  0.00     0.010 C 
HETATM   11  C   UNK N   1      42.563  45.587  51.111  0.00  0.00     0.089 C 
HETATM   12  C   UNK N   1      41.452  48.128  46.477  0.00  0.00    -0.068 C 
HETATM   13  C   UNK N   1      42.729  48.041  47.283  0.00  0.00     0.035 C 
HETATM   14  C   UNK N   1      40.672  44.124  51.612  0.00  0.00    -0.008 C 
HETATM   15  C   UNK N   1      39.130  47.262  45.837  0.00  0.00     0.022 C 
HETATM   16  C   UNK N   1      41.466  43.177  49.472  0.00  0.00     0.021 C 
HETATM   17  C   UNK N   1      41.233  45.841  45.502  0.00  0.00     0.020 C 
HETATM   18  C   UNK N   1      41.876  44.772  52.161  0.00  0.00     0.156 C 
HETATM   19  C   UNK N   1      39.218  48.127  44.586  0.00  0.00     0.084 C 
HETATM   20  C   UNK N   1      41.161  49.272  45.818  0.00  0.00     0.053 C 
HETATM   21  C   UNK N   1      39.740  43.438  52.309  0.00  0.00    -0.020 C 
HETATM   22  C   UNK N   1      39.989  49.366  44.926  0.00  0.00     0.149 C 
HETATM   23  C   UNK N   1      39.809  43.268  53.799  0.00  0.00     0.036 C 
ENDROOT
TORSDOF 0
ENDMDL
MODEL 2
REMARK VINA RESULT:      -8.5      1.183      7.106
REMARK  0 active torsions:
REMARK  status: ('A' for Active; 'I' for Inactive)
ROOT
HETATM    1  O   UNK N   1      38.471  47.964  44.414  0.00  0.00    -0.293 OA
HETATM    2  O   UNK N   1      40.389  43.762  54.317  0.00  0.00    -0.293 OA
HETATM    3  C   UNK N   1      40.286  45.404  48.214  0.00  0.00    -0.004 C 
HETATM    4  C   UNK N   1      41.081  45.984  49.441  0.00  0.00     0.002 C 
HETATM    5  C   UNK N   1      39.882  46.573  47.294  0.00  0.00     0.010 C 
HETATM    6  C   UNK N   1      41.091  47.390  46.774  0.00  0.00    -0.009 C 
HETATM    7  C   UNK N   1      41.510  44.852  50.463  0.00  0.00    -0.016 C 
HETATM    8  C   UNK N   1      42.261  46.903  48.982  0.00  0.00     0.007 C 
HETATM    9  C   UNK N   1      41.797  48.009  48.002  0.00  0.00     0.015 C 
HETATM   10  C   UNK N   1      39.034  44.653  48.716  0.00  0.00     0.010 C 
HETATM   11  C   UNK N   1      38.980  46.309  46.068  0.00  0.00     0.089 C 
HETATM   12  C   UNK N   1      40.273  43.981  50.766  0.00  0.00    -0.068 C 
HETATM   13  C   UNK N   1      39.443  43.483  49.604  0.00  0.00     0.035 C 
HETATM   14  C   UNK N   1      40.351  48.318  45.848  0.00  0.00    -0.008 C 
HETATM   15  C   UNK N   1      42.034  45.546  51.769  0.00  0.00     0.022 C 
HETATM   16  C   UNK N   1      42.081  46.555  45.909  0.00  0.00     0.021 C 
HETATM   17  C   UNK N   1      42.603  43.923  49.873  0.00  0.00     0.020 C 
HETATM   18  C   UNK N   1      39.162  47.607  45.348  0.00  0.00     0.156 C 
HETATM   19  C   UNK N   1      42.128  44.586  52.948  0.00  0.00     0.084 C 
HETATM   20  C   UNK N   1      39.928  43.631  52.026  0.00  0.00     0.053 C 
HETATM   21  C   UNK N   1      40.730  49.575  45.528  0.00  0.00    -0.020 C 
HETATM   22  C   UNK N   1      40.771  43.994  53.181  0.00  0.00     0.149 C 
HETATM   23  C   UNK N   1      39.934  50.448  44.602  0.00  0.00     0.036 C 
ENDROOT
TORSDOF 0
ENDMDL
