MODEL 1
REMARK VINA RESULT:      -5.8      0.000      0.000
REMARK  8 active torsions:
REMARK  status: ('A' for Active; 'I' for Inactive)
REMARK    1  A    between atoms: O_1  and  C_12 
REMARK    2  A    between atoms: O_2  and  C_16 
REMARK    3  A    between atoms: O_3  and  C_25 
REMARK    4  A    between atoms: O_4  and  C_29 
REMARK    5  A    between atoms: C_11  and  C_21 
REMARK    6  A    between atoms: C_21  and  C_26 
REMARK    7  A    between atoms: C_26  and  C_28 
REMARK    8  A    between atoms: C_28  and  C_29 
ROOT
HETATM    1  C   UNK N   1      29.414  45.862  59.167  0.00  0.00    -0.010 C 
HETATM    2  C   UNK N   1      30.077  47.000  58.351  0.00  0.00     0.003 C 
HETATM    3  C   UNK N   1      29.053  48.038  57.810  0.00  0.00     0.024 C 
HETATM    4  C   UNK N   1      28.253  48.661  59.011  0.00  0.00     0.003 C 
HETATM    5  C   UNK N   1      27.156  49.692  58.506  0.00  0.00    -0.036 C 
HETATM    6  C   UNK N   1      30.680  45.005  59.477  0.00  0.00     0.000 C 
HETATM    7  C   UNK N   1      28.712  46.532  60.396  0.00  0.00     0.127 C 
HETATM    8  C   UNK N   1      27.656  47.553  59.928  0.00  0.00     0.038 C 
HETATM    9  C   UNK N   1      27.851  50.795  57.629  0.00  0.00    -0.001 C 
HETATM   10  C   UNK N   1      30.947  46.264  57.344  0.00  0.00     0.006 C 
HETATM   11  C   UNK N   1      29.715  49.140  56.920  0.00  0.00     0.123 C 
HETATM   12  C   UNK N   1      31.463  45.039  58.129  0.00  0.00     0.006 C 
HETATM   13  C   UNK N   1      28.656  50.164  56.460  0.00  0.00     0.037 C 
HETATM   14  C   UNK N   1      26.407  50.402  59.680  0.00  0.00     0.012 C 
HETATM   15  C   UNK N   1      28.393  45.003  58.347  0.00  0.00     0.018 C 
HETATM   16  C   UNK N   1      28.722  51.761  58.483  0.00  0.00     0.037 C 
HETATM   17  C   UNK N   1      26.046  48.977  57.674  0.00  0.00     0.016 C 
HETATM   18  C   UNK N   1      27.314  51.310  60.515  0.00  0.00     0.032 C 
HETATM   19  C   UNK N   1      27.915  52.403  59.617  0.00  0.00     0.118 C 
ENDROOT
BRANCH   6  20
HETATM   20  C   UNK N   1      30.538  43.564  60.086  0.00  0.00    -0.013 C 
HETATM   21  C   UNK N   1      30.856  43.539  61.590  0.00  0.00     0.010 C 
BRANCH  20  22
HETATM   22  C   UNK N   1      31.455  42.575  59.317  0.00  0.00     0.015 C 
BRANCH  22  23
HETATM   23  C   UNK N   1      32.689  42.059  60.089  0.00  0.00     0.110 C 
BRANCH  23  24
HETATM   24  C   UNK N   1      33.979  42.693  59.638  0.00  0.00     0.139 C 
HETATM   25  O   UNK N   1      34.222  42.819  58.455  0.00  0.00    -0.650 OA
BRANCH  24  26
HETATM   26  O   UNK N   1      34.853  43.151  60.566  0.00  0.00    -0.776 OA
HETATM   27  H   UNK N   1      35.493  43.844  60.350  0.00  0.00     0.167 HD
ENDBRANCH  24  26
ENDBRANCH  23  24
ENDBRANCH  22  23
ENDBRANCH  20  22
ENDBRANCH   6  20
BRANCH   7  28
HETATM   28  O   UNK N   1      29.660  47.182  61.208  0.00  0.00    -0.395 OA
HETATM   29  H   UNK N   1      29.265  48.047  61.490  0.00  0.00     0.210 HD
ENDBRANCH   7  28
BRANCH  11  30
HETATM   30  O   UNK N   1      30.812  49.809  57.504  0.00  0.00    -0.395 OA
HETATM   31  H   UNK N   1      31.605  49.767  56.918  0.00  0.00     0.210 HD
ENDBRANCH  11  30
BRANCH  19  32
HETATM   32  O   UNK N   1      28.761  53.235  60.367  0.00  0.00    -0.396 OA
HETATM   33  H   UNK N   1      28.180  53.868  60.863  0.00  0.00     0.210 HD
ENDBRANCH  19  32
TORSDOF 8
ENDMDL
MODEL 2
REMARK VINA RESULT:      -5.7      5.866      7.920
REMARK  8 active torsions:
REMARK  status: ('A' for Active; 'I' for Inactive)
REMARK    1  A    between atoms: O_1  and  C_12 
REMARK    2  A    between atoms: O_2  and  C_16 
REMARK    3  A    between atoms: O_3  and  C_25 
REMARK    4  A    between atoms: O_4  and  C_29 
REMARK    5  A    between atoms: C_11  and  C_21 
REMARK    6  A    between atoms: C_21  and  C_26 
REMARK    7  A    between atoms: C_26  and  C_28 
REMARK    8  A    between atoms: C_28  and  C_29 
ROOT
HETATM    1  C   UNK N   1      29.170  41.781  55.860  0.00  0.00    -0.010 C 
HETATM    2  C   UNK N   1      29.503  42.197  54.404  0.00  0.00     0.003 C 
HETATM    3  C   UNK N   1      28.570  41.534  53.352  0.00  0.00     0.024 C 
HETATM    4  C   UNK N   1      27.075  41.906  53.668  0.00  0.00     0.003 C 
HETATM    5  C   UNK N   1      26.075  41.209  52.650  0.00  0.00    -0.036 C 
HETATM    6  C   UNK N   1      30.305  42.548  56.605  0.00  0.00     0.000 C 
HETATM    7  C   UNK N   1      27.706  42.256  56.145  0.00  0.00     0.127 C 
HETATM    8  C   UNK N   1      26.720  41.607  55.154  0.00  0.00     0.038 C 
HETATM    9  C   UNK N   1      26.479  41.599  51.182  0.00  0.00    -0.001 C 
HETATM   10  C   UNK N   1      30.998  41.948  54.290  0.00  0.00     0.006 C 
HETATM   11  C   UNK N   1      28.958  41.892  51.880  0.00  0.00     0.123 C 
HETATM   12  C   UNK N   1      31.543  42.323  55.685  0.00  0.00     0.006 C 
HETATM   13  C   UNK N   1      27.964  41.246  50.892  0.00  0.00     0.037 C 
HETATM   14  C   UNK N   1      24.588  41.634  52.876  0.00  0.00     0.012 C 
HETATM   15  C   UNK N   1      29.316  40.245  56.130  0.00  0.00     0.018 C 
HETATM   16  C   UNK N   1      26.159  43.088  50.862  0.00  0.00     0.037 C 
HETATM   17  C   UNK N   1      26.096  39.656  52.809  0.00  0.00     0.016 C 
HETATM   18  C   UNK N   1      24.331  43.115  52.586  0.00  0.00     0.032 C 
HETATM   19  C   UNK N   1      24.686  43.422  51.122  0.00  0.00     0.118 C 
ENDROOT
BRANCH   6  20
HETATM   20  C   UNK N   1      30.591  42.268  58.125  0.00  0.00    -0.013 C 
HETATM   21  C   UNK N   1      29.435  42.733  59.026  0.00  0.00     0.010 C 
BRANCH  20  22
HETATM   22  C   UNK N   1      31.920  42.953  58.544  0.00  0.00     0.015 C 
BRANCH  22  23
HETATM   23  C   UNK N   1      32.805  42.161  59.530  0.00  0.00     0.110 C 
BRANCH  23  24
HETATM   24  C   UNK N   1      34.078  42.880  59.896  0.00  0.00     0.139 C 
HETATM   25  O   UNK N   1      34.316  43.160  61.053  0.00  0.00    -0.650 OA
BRANCH  24  26
HETATM   26  O   UNK N   1      34.971  43.182  58.923  0.00  0.00    -0.776 OA
HETATM   27  H   UNK N   1      34.790  43.882  58.280  0.00  0.00     0.167 HD
ENDBRANCH  24  26
ENDBRANCH  23  24
ENDBRANCH  22  23
ENDBRANCH  20  22
ENDBRANCH   6  20
BRANCH   7  28
HETATM   28  O   UNK N   1      27.617  43.657  56.041  0.00  0.00    -0.395 OA
HETATM   29  H   UNK N   1      28.385  43.962  55.491  0.00  0.00     0.210 HD
ENDBRANCH   7  28
BRANCH  11  30
HETATM   30  O   UNK N   1      29.083  43.272  51.608  0.00  0.00    -0.395 OA
HETATM   31  H   UNK N   1      29.952  43.617  51.921  0.00  0.00     0.210 HD
ENDBRANCH  11  30
BRANCH  19  32
HETATM   32  O   UNK N   1      24.469  44.781  50.846  0.00  0.00    -0.396 OA
HETATM   33  H   UNK N   1      25.105  45.295  51.409  0.00  0.00     0.210 HD
ENDBRANCH  19  32
TORSDOF 8
ENDMDL
MODEL 3
REMARK VINA RESULT:      -5.1      1.678      2.005
REMARK  8 active torsions:
REMARK  status: ('A' for Active; 'I' for Inactive)
REMARK    1  A    between atoms: O_1  and  C_12 
REMARK    2  A    between atoms: O_2  and  C_16 
REMARK    3  A    between atoms: O_3  and  C_25 
REMARK    4  A    between atoms: O_4  and  C_29 
REMARK    5  A    between atoms: C_11  and  C_21 
REMARK    6  A    between atoms: C_21  and  C_26 
REMARK    7  A    between atoms: C_26  and  C_28 
REMARK    8  A    between atoms: C_28  and  C_29 
ROOT
HETATM    1  C   UNK N   1      29.410  45.899  59.042  0.00  0.00    -0.010 C 
HETATM    2  C   UNK N   1      30.084  47.062  58.270  0.00  0.00     0.003 C 
HETATM    3  C   UNK N   1      29.066  48.115  57.746  0.00  0.00     0.024 C 
HETATM    4  C   UNK N   1      28.248  48.701  58.954  0.00  0.00     0.003 C 
HETATM    5  C   UNK N   1      27.158  49.746  58.465  0.00  0.00    -0.036 C 
HETATM    6  C   UNK N   1      30.672  45.034  59.343  0.00  0.00     0.000 C 
HETATM    7  C   UNK N   1      28.689  46.532  60.280  0.00  0.00     0.127 C 
HETATM    8  C   UNK N   1      27.639  47.565  59.828  0.00  0.00     0.038 C 
HETATM    9  C   UNK N   1      27.864  50.876  57.631  0.00  0.00    -0.001 C 
HETATM   10  C   UNK N   1      30.968  46.357  57.254  0.00  0.00     0.006 C 
HETATM   11  C   UNK N   1      29.740  49.244  56.899  0.00  0.00     0.123 C 
HETATM   12  C   UNK N   1      31.475  45.109  58.009  0.00  0.00     0.006 C 
HETATM   13  C   UNK N   1      28.686  50.281  56.456  0.00  0.00     0.037 C 
HETATM   14  C   UNK N   1      26.391  50.420  59.649  0.00  0.00     0.012 C 
HETATM   15  C   UNK N   1      28.401  45.065  58.182  0.00  0.00     0.018 C 
HETATM   16  C   UNK N   1      28.722  51.816  58.527  0.00  0.00     0.037 C 
HETATM   17  C   UNK N   1      26.061  49.056  57.595  0.00  0.00     0.016 C 
HETATM   18  C   UNK N   1      27.285  51.303  60.524  0.00  0.00     0.032 C 
HETATM   19  C   UNK N   1      27.898  52.423  59.669  0.00  0.00     0.118 C 
ENDROOT
BRANCH   6  20
HETATM   20  C   UNK N   1      30.523  43.575  59.907  0.00  0.00    -0.013 C 
HETATM   21  C   UNK N   1      31.282  43.386  61.231  0.00  0.00     0.010 C 
BRANCH  20  22
HETATM   22  C   UNK N   1      31.008  42.550  58.847  0.00  0.00     0.015 C 
BRANCH  22  23
HETATM   23  C   UNK N   1      29.937  41.576  58.310  0.00  0.00     0.110 C 
BRANCH  23  24
HETATM   24  C   UNK N   1      29.817  41.595  56.808  0.00  0.00     0.139 C 
HETATM   25  O   UNK N   1      29.965  42.630  56.192  0.00  0.00    -0.650 OA
BRANCH  24  26
HETATM   26  O   UNK N   1      29.573  40.437  56.148  0.00  0.00    -0.776 OA
HETATM   27  H   UNK N   1      28.979  40.413  55.385  0.00  0.00     0.167 HD
ENDBRANCH  24  26
ENDBRANCH  23  24
ENDBRANCH  22  23
ENDBRANCH  20  22
ENDBRANCH   6  20
BRANCH   7  28
HETATM   28  O   UNK N   1      29.625  47.157  61.125  0.00  0.00    -0.395 OA
HETATM   29  H   UNK N   1      29.348  46.974  62.060  0.00  0.00     0.210 HD
ENDBRANCH   7  28
BRANCH  11  30
HETATM   30  O   UNK N   1      30.828  49.896  57.519  0.00  0.00    -0.395 OA
HETATM   31  H   UNK N   1      30.589  50.195  58.429  0.00  0.00     0.210 HD
ENDBRANCH  11  30
BRANCH  19  32
HETATM   32  O   UNK N   1      28.732  53.232  60.455  0.00  0.00    -0.396 OA
HETATM   33  H   UNK N   1      28.498  53.054  61.403  0.00  0.00     0.210 HD
ENDBRANCH  19  32
TORSDOF 8
ENDMDL
MODEL 4
REMARK VINA RESULT:      -4.9      1.787      7.457
REMARK  8 active torsions:
REMARK  status: ('A' for Active; 'I' for Inactive)
REMARK    1  A    between atoms: O_1  and  C_12 
REMARK    2  A    between atoms: O_2  and  C_16 
REMARK    3  A    between atoms: O_3  and  C_25 
REMARK    4  A    between atoms: O_4  and  C_29 
REMARK    5  A    between atoms: C_11  and  C_21 
REMARK    6  A    between atoms: C_21  and  C_26 
REMARK    7  A    between atoms: C_26  and  C_28 
REMARK    8  A    between atoms: C_28  and  C_29 
ROOT
HETATM    1  C   UNK N   1      28.954  47.293  59.220  0.00  0.00    -0.010 C 
HETATM    2  C   UNK N   1      29.811  47.146  60.503  0.00  0.00     0.003 C 
HETATM    3  C   UNK N   1      29.944  45.673  60.981  0.00  0.00     0.024 C 
HETATM    4  C   UNK N   1      30.577  44.803  59.834  0.00  0.00     0.003 C 
HETATM    5  C   UNK N   1      30.686  43.276  60.255  0.00  0.00    -0.036 C 
HETATM    6  C   UNK N   1      28.976  48.846  59.080  0.00  0.00     0.000 C 
HETATM    7  C   UNK N   1      29.679  46.483  58.093  0.00  0.00     0.127 C 
HETATM    8  C   UNK N   1      29.815  45.001  58.490  0.00  0.00     0.038 C 
HETATM    9  C   UNK N   1      31.505  43.168  61.592  0.00  0.00    -0.001 C 
HETATM   10  C   UNK N   1      29.201  48.155  61.462  0.00  0.00     0.006 C 
HETATM   11  C   UNK N   1      30.741  45.536  62.319  0.00  0.00     0.123 C 
HETATM   12  C   UNK N   1      28.793  49.333  60.550  0.00  0.00     0.006 C 
HETATM   13  C   UNK N   1      30.881  44.049  62.709  0.00  0.00     0.037 C 
HETATM   14  C   UNK N   1      31.399  42.401  59.173  0.00  0.00     0.012 C 
HETATM   15  C   UNK N   1      27.474  46.807  59.385  0.00  0.00     0.018 C 
HETATM   16  C   UNK N   1      33.016  43.475  61.381  0.00  0.00     0.037 C 
HETATM   17  C   UNK N   1      29.275  42.638  60.446  0.00  0.00     0.016 C 
HETATM   18  C   UNK N   1      32.873  42.766  58.974  0.00  0.00     0.032 C 
HETATM   19  C   UNK N   1      33.632  42.582  60.298  0.00  0.00     0.118 C 
ENDROOT
BRANCH   6  20
HETATM   20  C   UNK N   1      28.028  49.568  58.056  0.00  0.00    -0.013 C 
HETATM   21  C   UNK N   1      27.506  48.607  56.975  0.00  0.00     0.010 C 
BRANCH  20  22
HETATM   22  C   UNK N   1      28.771  50.768  57.408  0.00  0.00     0.015 C 
BRANCH  22  23
HETATM   23  C   UNK N   1      29.301  50.540  55.976  0.00  0.00     0.110 C 
BRANCH  23  24
HETATM   24  C   UNK N   1      30.802  50.426  55.909  0.00  0.00     0.139 C 
HETATM   25  O   UNK N   1      31.330  49.347  55.734  0.00  0.00    -0.650 OA
BRANCH  24  26
HETATM   26  O   UNK N   1      31.557  51.546  56.014  0.00  0.00    -0.776 OA
HETATM   27  H   UNK N   1      32.355  51.560  56.561  0.00  0.00     0.167 HD
ENDBRANCH  24  26
ENDBRANCH  23  24
ENDBRANCH  22  23
ENDBRANCH  20  22
ENDBRANCH   6  20
BRANCH   7  28
HETATM   28  O   UNK N   1      30.958  47.020  57.850  0.00  0.00    -0.395 OA
HETATM   29  H   UNK N   1      31.589  46.258  57.774  0.00  0.00     0.210 HD
ENDBRANCH   7  28
BRANCH  11  30
HETATM   30  O   UNK N   1      32.007  46.160  62.334  0.00  0.00    -0.395 OA
HETATM   31  H   UNK N   1      31.925  47.119  62.551  0.00  0.00     0.210 HD
ENDBRANCH  11  30
BRANCH  19  32
HETATM   32  O   UNK N   1      34.983  42.929  60.134  0.00  0.00    -0.396 OA
HETATM   33  H   UNK N   1      35.002  43.816  59.688  0.00  0.00     0.210 HD
ENDBRANCH  19  32
TORSDOF 8
ENDMDL
MODEL 5
REMARK VINA RESULT:      -4.9      1.428      1.630
REMARK  8 active torsions:
REMARK  status: ('A' for Active; 'I' for Inactive)
REMARK    1  A    between atoms: O_1  and  C_12 
REMARK    2  A    between atoms: O_2  and  C_16 
REMARK    3  A    between atoms: O_3  and  C_25 
REMARK    4  A    between atoms: O_4  and  C_29 
REMARK    5  A    between atoms: C_11  and  C_21 
REMARK    6  A    between atoms: C_21  and  C_26 
REMARK    7  A    between atoms: C_26  and  C_28 
REMARK    8  A    between atoms: C_28  and  C_29 
ROOT
HETATM    1  C   UNK N   1      29.436  45.818  59.236  0.00  0.00    -0.010 C 
HETATM    2  C   UNK N   1      30.090  46.942  58.392  0.00  0.00     0.003 C 
HETATM    3  C   UNK N   1      29.061  47.971  57.845  0.00  0.00     0.024 C 
HETATM    4  C   UNK N   1      28.274  48.615  59.044  0.00  0.00     0.003 C 
HETATM    5  C   UNK N   1      27.172  49.638  58.533  0.00  0.00    -0.036 C 
HETATM    6  C   UNK N   1      30.704  44.966  59.546  0.00  0.00     0.000 C 
HETATM    7  C   UNK N   1      28.747  46.511  60.460  0.00  0.00     0.127 C 
HETATM    8  C   UNK N   1      27.686  47.523  59.986  0.00  0.00     0.038 C 
HETATM    9  C   UNK N   1      27.857  50.725  57.630  0.00  0.00    -0.001 C 
HETATM   10  C   UNK N   1      30.948  46.188  57.389  0.00  0.00     0.006 C 
HETATM   11  C   UNK N   1      29.713  49.057  56.928  0.00  0.00     0.123 C 
HETATM   12  C   UNK N   1      31.473  44.976  58.189  0.00  0.00     0.006 C 
HETATM   13  C   UNK N   1      28.649  50.073  56.463  0.00  0.00     0.037 C 
HETATM   14  C   UNK N   1      26.436  50.368  59.704  0.00  0.00     0.012 C 
HETATM   15  C   UNK N   1      28.405  44.946  58.442  0.00  0.00     0.018 C 
HETATM   16  C   UNK N   1      28.739  51.706  58.458  0.00  0.00     0.037 C 
HETATM   17  C   UNK N   1      26.053  48.909  57.726  0.00  0.00     0.016 C 
HETATM   18  C   UNK N   1      27.353  51.290  60.512  0.00  0.00     0.032 C 
HETATM   19  C   UNK N   1      27.944  52.368  59.589  0.00  0.00     0.118 C 
ENDROOT
BRANCH   6  20
HETATM   20  C   UNK N   1      30.568  43.536  60.182  0.00  0.00    -0.013 C 
HETATM   21  C   UNK N   1      30.698  43.570  61.714  0.00  0.00     0.010 C 
BRANCH  20  22
HETATM   22  C   UNK N   1      31.628  42.583  59.564  0.00  0.00     0.015 C 
BRANCH  22  23
HETATM   23  C   UNK N   1      32.067  41.398  60.451  0.00  0.00     0.110 C 
BRANCH  23  24
HETATM   24  C   UNK N   1      31.130  40.220  60.375  0.00  0.00     0.139 C 
HETATM   25  O   UNK N   1      31.035  39.449  61.308  0.00  0.00    -0.650 OA
BRANCH  24  26
HETATM   26  O   UNK N   1      30.371  40.047  59.267  0.00  0.00    -0.776 OA
HETATM   27  H   UNK N   1      29.425  40.253  59.273  0.00  0.00     0.167 HD
ENDBRANCH  24  26
ENDBRANCH  23  24
ENDBRANCH  22  23
ENDBRANCH  20  22
ENDBRANCH   6  20
BRANCH   7  28
HETATM   28  O   UNK N   1      29.705  47.173  61.250  0.00  0.00    -0.395 OA
HETATM   29  H   UNK N   1      29.223  47.851  61.792  0.00  0.00     0.210 HD
ENDBRANCH   7  28
BRANCH  11  30
HETATM   30  O   UNK N   1      30.817  49.736  57.489  0.00  0.00    -0.395 OA
HETATM   31  H   UNK N   1      31.181  50.400  56.857  0.00  0.00     0.210 HD
ENDBRANCH  11  30
BRANCH  19  32
HETATM   32  O   UNK N   1      28.799  53.211  60.315  0.00  0.00    -0.396 OA
HETATM   33  H   UNK N   1      28.332  54.082  60.413  0.00  0.00     0.210 HD
ENDBRANCH  19  32
TORSDOF 8
ENDMDL
MODEL 6
REMARK VINA RESULT:      -4.7      2.031      7.940
REMARK  8 active torsions:
REMARK  status: ('A' for Active; 'I' for Inactive)
REMARK    1  A    between atoms: O_1  and  C_12 
REMARK    2  A    between atoms: O_2  and  C_16 
REMARK    3  A    between atoms: O_3  and  C_25 
REMARK    4  A    between atoms: O_4  and  C_29 
REMARK    5  A    between atoms: C_11  and  C_21 
REMARK    6  A    between atoms: C_21  and  C_26 
REMARK    7  A    between atoms: C_26  and  C_28 
REMARK    8  A    between atoms: C_28  and  C_29 
ROOT
HETATM    1  C   UNK N   1      29.126  47.548  58.792  0.00  0.00    -0.010 C 
HETATM    2  C   UNK N   1      29.852  47.342  60.146  0.00  0.00     0.003 C 
HETATM    3  C   UNK N   1      29.794  45.873  60.651  0.00  0.00     0.024 C 
HETATM    4  C   UNK N   1      30.430  44.921  59.573  0.00  0.00     0.003 C 
HETATM    5  C   UNK N   1      30.348  43.400  60.019  0.00  0.00    -0.036 C 
HETATM    6  C   UNK N   1      29.318  49.088  58.637  0.00  0.00     0.000 C 
HETATM    7  C   UNK N   1      29.859  46.647  57.742  0.00  0.00     0.127 C 
HETATM    8  C   UNK N   1      29.809  45.167  58.166  0.00  0.00     0.038 C 
HETATM    9  C   UNK N   1      31.035  43.237  61.423  0.00  0.00    -0.001 C 
HETATM   10  C   UNK N   1      29.270  48.427  61.038  0.00  0.00     0.006 C 
HETATM   11  C   UNK N   1      30.458  45.684  62.055  0.00  0.00     0.123 C 
HETATM   12  C   UNK N   1      29.062  49.620  60.080  0.00  0.00     0.006 C 
HETATM   13  C   UNK N   1      30.412  44.199  62.472  0.00  0.00     0.037 C 
HETATM   14  C   UNK N   1      31.058  42.436  59.013  0.00  0.00     0.012 C 
HETATM   15  C   UNK N   1      27.596  47.216  58.835  0.00  0.00     0.018 C 
HETATM   16  C   UNK N   1      32.583  43.387  61.340  0.00  0.00     0.037 C 
HETATM   17  C   UNK N   1      28.869  42.910  60.095  0.00  0.00     0.016 C 
HETATM   18  C   UNK N   1      32.572  42.647  58.938  0.00  0.00     0.032 C 
HETATM   19  C   UNK N   1      33.195  42.415  60.324  0.00  0.00     0.118 C 
ENDROOT
BRANCH   6  20
HETATM   20  C   UNK N   1      28.538  49.881  57.527  0.00  0.00    -0.013 C 
HETATM   21  C   UNK N   1      29.443  50.253  56.340  0.00  0.00     0.010 C 
BRANCH  20  22
HETATM   22  C   UNK N   1      27.893  51.151  58.143  0.00  0.00     0.015 C 
BRANCH  22  23
HETATM   23  C   UNK N   1      26.359  51.115  58.310  0.00  0.00     0.110 C 
BRANCH  23  24
HETATM   24  C   UNK N   1      25.638  50.629  57.079  0.00  0.00     0.139 C 
HETATM   25  O   UNK N   1      24.990  49.603  57.111  0.00  0.00    -0.650 OA
BRANCH  24  26
HETATM   26  O   UNK N   1      25.695  51.366  55.944  0.00  0.00    -0.776 OA
HETATM   27  H   UNK N   1      25.659  52.333  55.974  0.00  0.00     0.167 HD
ENDBRANCH  24  26
ENDBRANCH  23  24
ENDBRANCH  22  23
ENDBRANCH  20  22
ENDBRANCH   6  20
BRANCH   7  28
HETATM   28  O   UNK N   1      31.201  47.048  57.604  0.00  0.00    -0.395 OA
HETATM   29  H   UNK N   1      31.765  46.243  57.739  0.00  0.00     0.210 HD
ENDBRANCH   7  28
BRANCH  11  30
HETATM   30  O   UNK N   1      31.774  46.178  62.171  0.00  0.00    -0.395 OA
HETATM   31  H   UNK N   1      32.432  45.444  62.132  0.00  0.00     0.210 HD
ENDBRANCH  11  30
BRANCH  19  32
HETATM   32  O   UNK N   1      34.582  42.621  60.273  0.00  0.00    -0.396 OA
HETATM   33  H   UNK N   1      35.008  41.832  60.699  0.00  0.00     0.210 HD
ENDBRANCH  19  32
TORSDOF 8
ENDMDL
MODEL 7
REMARK VINA RESULT:      -4.7      4.568      6.680
REMARK  8 active torsions:
REMARK  status: ('A' for Active; 'I' for Inactive)
REMARK    1  A    between atoms: O_1  and  C_12 
REMARK    2  A    between atoms: O_2  and  C_16 
REMARK    3  A    between atoms: O_3  and  C_25 
REMARK    4  A    between atoms: O_4  and  C_29 
REMARK    5  A    between atoms: C_11  and  C_21 
REMARK    6  A    between atoms: C_21  and  C_26 
REMARK    7  A    between atoms: C_26  and  C_28 
REMARK    8  A    between atoms: C_28  and  C_29 
ROOT
HETATM    1  C   UNK N   1      28.699  41.304  56.348  0.00  0.00    -0.010 C 
HETATM    2  C   UNK N   1      30.061  42.031  56.495  0.00  0.00     0.003 C 
HETATM    3  C   UNK N   1      29.922  43.477  57.049  0.00  0.00     0.024 C 
HETATM    4  C   UNK N   1      29.203  43.437  58.447  0.00  0.00     0.003 C 
HETATM    5  C   UNK N   1      28.991  44.897  59.034  0.00  0.00    -0.036 C 
HETATM    6  C   UNK N   1      29.197  39.964  55.724  0.00  0.00     0.000 C 
HETATM    7  C   UNK N   1      28.074  41.214  57.781  0.00  0.00     0.127 C 
HETATM    8  C   UNK N   1      27.878  42.621  58.378  0.00  0.00     0.038 C 
HETATM    9  C   UNK N   1      30.380  45.629  59.109  0.00  0.00    -0.001 C 
HETATM   10  C   UNK N   1      30.717  41.847  55.136  0.00  0.00     0.006 C 
HETATM   11  C   UNK N   1      31.288  44.235  57.121  0.00  0.00     0.123 C 
HETATM   12  C   UNK N   1      30.275  40.433  54.700  0.00  0.00     0.006 C 
HETATM   13  C   UNK N   1      31.088  45.640  57.727  0.00  0.00     0.037 C 
HETATM   14  C   UNK N   1      28.365  44.888  60.466  0.00  0.00     0.012 C 
HETATM   15  C   UNK N   1      27.709  42.003  55.356  0.00  0.00     0.018 C 
HETATM   16  C   UNK N   1      31.291  45.044  60.228  0.00  0.00     0.037 C 
HETATM   17  C   UNK N   1      28.005  45.724  58.152  0.00  0.00     0.016 C 
HETATM   18  C   UNK N   1      29.282  44.268  61.524  0.00  0.00     0.032 C 
HETATM   19  C   UNK N   1      30.597  45.061  61.594  0.00  0.00     0.118 C 
ENDROOT
BRANCH   6  20
HETATM   20  C   UNK N   1      28.172  38.932  55.130  0.00  0.00    -0.013 C 
HETATM   21  C   UNK N   1      27.448  38.138  56.230  0.00  0.00     0.010 C 
BRANCH  20  22
HETATM   22  C   UNK N   1      28.900  37.972  54.151  0.00  0.00     0.015 C 
BRANCH  22  23
HETATM   23  C   UNK N   1      29.270  36.584  54.718  0.00  0.00     0.110 C 
BRANCH  23  24
HETATM   24  C   UNK N   1      30.756  36.347  54.785  0.00  0.00     0.139 C 
HETATM   25  O   UNK N   1      31.210  35.482  55.506  0.00  0.00    -0.650 OA
BRANCH  24  26
HETATM   26  O   UNK N   1      31.582  37.088  54.006  0.00  0.00    -0.776 OA
HETATM   27  H   UNK N   1      31.567  38.055  54.043  0.00  0.00     0.167 HD
ENDBRANCH  24  26
ENDBRANCH  23  24
ENDBRANCH  22  23
ENDBRANCH  20  22
ENDBRANCH   6  20
BRANCH   7  28
HETATM   28  O   UNK N   1      28.904  40.458  58.630  0.00  0.00    -0.395 OA
HETATM   29  H   UNK N   1      29.110  41.022  59.421  0.00  0.00     0.210 HD
ENDBRANCH   7  28
BRANCH  11  30
HETATM   30  O   UNK N   1      32.320  43.557  57.805  0.00  0.00    -0.395 OA
HETATM   31  H   UNK N   1      32.231  43.671  58.781  0.00  0.00     0.210 HD
ENDBRANCH  11  30
BRANCH  19  32
HETATM   32  O   UNK N   1      31.454  44.494  62.550  0.00  0.00    -0.396 OA
HETATM   33  H   UNK N   1      31.863  45.245  63.054  0.00  0.00     0.210 HD
ENDBRANCH  19  32
TORSDOF 8
ENDMDL
MODEL 8
REMARK VINA RESULT:      -4.6      2.324      7.932
REMARK  8 active torsions:
REMARK  status: ('A' for Active; 'I' for Inactive)
REMARK    1  A    between atoms: O_1  and  C_12 
REMARK    2  A    between atoms: O_2  and  C_16 
REMARK    3  A    between atoms: O_3  and  C_25 
REMARK    4  A    between atoms: O_4  and  C_29 
REMARK    5  A    between atoms: C_11  and  C_21 
REMARK    6  A    between atoms: C_21  and  C_26 
REMARK    7  A    between atoms: C_26  and  C_28 
REMARK    8  A    between atoms: C_28  and  C_29 
ROOT
HETATM    1  C   UNK N   1      29.486  46.025  59.395  0.00  0.00    -0.010 C 
HETATM    2  C   UNK N   1      30.430  44.956  58.789  0.00  0.00     0.003 C 
HETATM    3  C   UNK N   1      31.054  44.017  59.861  0.00  0.00     0.024 C 
HETATM    4  C   UNK N   1      29.907  43.300  60.663  0.00  0.00     0.003 C 
HETATM    5  C   UNK N   1      30.493  42.368  61.806  0.00  0.00    -0.036 C 
HETATM    6  C   UNK N   1      29.117  46.800  58.093  0.00  0.00     0.000 C 
HETATM    7  C   UNK N   1      28.319  45.255  60.101  0.00  0.00     0.127 C 
HETATM    8  C   UNK N   1      28.868  44.328  61.202  0.00  0.00     0.038 C 
HETATM    9  C   UNK N   1      31.494  41.338  61.169  0.00  0.00    -0.001 C 
HETATM   10  C   UNK N   1      31.373  45.762  57.911  0.00  0.00     0.006 C 
HETATM   11  C   UNK N   1      32.068  42.991  59.256  0.00  0.00     0.123 C 
HETATM   12  C   UNK N   1      30.477  46.879  57.335  0.00  0.00     0.006 C 
HETATM   13  C   UNK N   1      32.608  42.059  60.361  0.00  0.00     0.037 C 
HETATM   14  C   UNK N   1      29.383  41.566  62.561  0.00  0.00     0.012 C 
HETATM   15  C   UNK N   1      30.191  47.001  60.398  0.00  0.00     0.018 C 
HETATM   16  C   UNK N   1      30.764  40.258  60.319  0.00  0.00     0.037 C 
HETATM   17  C   UNK N   1      31.223  43.205  62.903  0.00  0.00     0.016 C 
HETATM   18  C   UNK N   1      28.666  40.544  61.674  0.00  0.00     0.032 C 
HETATM   19  C   UNK N   1      29.685  39.530  61.130  0.00  0.00     0.118 C 
ENDROOT
BRANCH   6  20
HETATM   20  C   UNK N   1      28.358  48.173  58.170  0.00  0.00    -0.013 C 
HETATM   21  C   UNK N   1      26.861  47.991  58.472  0.00  0.00     0.010 C 
BRANCH  20  22
HETATM   22  C   UNK N   1      28.557  48.959  56.846  0.00  0.00     0.015 C 
BRANCH  22  23
HETATM   23  C   UNK N   1      29.488  50.188  56.924  0.00  0.00     0.110 C 
BRANCH  23  24
HETATM   24  C   UNK N   1      30.436  50.290  55.758  0.00  0.00     0.139 C 
HETATM   25  O   UNK N   1      31.635  50.199  55.929  0.00  0.00    -0.650 OA
BRANCH  24  26
HETATM   26  O   UNK N   1      29.937  50.452  54.509  0.00  0.00    -0.776 OA
HETATM   27  H   UNK N   1      30.366  50.045  53.743  0.00  0.00     0.167 HD
ENDBRANCH  24  26
ENDBRANCH  23  24
ENDBRANCH  22  23
ENDBRANCH  20  22
ENDBRANCH   6  20
BRANCH   7  28
HETATM   28  O   UNK N   1      27.599  44.491  59.163  0.00  0.00    -0.395 OA
HETATM   29  H   UNK N   1      28.203  43.772  58.842  0.00  0.00     0.210 HD
ENDBRANCH   7  28
BRANCH  11  30
HETATM   30  O   UNK N   1      31.579  42.226  58.175  0.00  0.00    -0.395 OA
HETATM   31  H   UNK N   1      31.215  41.364  58.488  0.00  0.00     0.210 HD
ENDBRANCH  11  30
BRANCH  19  32
HETATM   32  O   UNK N   1      29.044  38.595  60.303  0.00  0.00    -0.396 OA
HETATM   33  H   UNK N   1      29.707  37.885  60.100  0.00  0.00     0.210 HD
ENDBRANCH  19  32
TORSDOF 8
ENDMDL
MODEL 9
REMARK VINA RESULT:      -4.6      4.671      8.538
REMARK  8 active torsions:
REMARK  status: ('A' for Active; 'I' for Inactive)
REMARK    1  A    between atoms: O_1  and  C_12 
REMARK    2  A    between atoms: O_2  and  C_16 
REMARK    3  A    between atoms: O_3  and  C_25 
REMARK    4  A    between atoms: O_4  and  C_29 
REMARK    5  A    between atoms: C_11  and  C_21 
REMARK    6  A    between atoms: C_21  and  C_26 
REMARK    7  A    between atoms: C_26  and  C_28 
REMARK    8  A    between atoms: C_28  and  C_29 
ROOT
HETATM    1  C   UNK N   1      29.338  43.415  57.888  0.00  0.00    -0.010 C 
HETATM    2  C   UNK N   1      29.962  42.860  56.582  0.00  0.00     0.003 C 
HETATM    3  C   UNK N   1      29.607  41.368  56.325  0.00  0.00     0.024 C 
HETATM    4  C   UNK N   1      28.044  41.202  56.263  0.00  0.00     0.003 C 
HETATM    5  C   UNK N   1      27.629  39.685  56.053  0.00  0.00    -0.036 C 
HETATM    6  C   UNK N   1      29.939  44.854  57.861  0.00  0.00     0.000 C 
HETATM    7  C   UNK N   1      27.784  43.308  57.731  0.00  0.00     0.127 C 
HETATM    8  C   UNK N   1      27.359  41.844  57.506  0.00  0.00     0.038 C 
HETATM    9  C   UNK N   1      28.328  39.133  54.758  0.00  0.00    -0.001 C 
HETATM   10  C   UNK N   1      31.430  43.235  56.695  0.00  0.00     0.006 C 
HETATM   11  C   UNK N   1      30.302  40.788  55.050  0.00  0.00     0.123 C 
HETATM   12  C   UNK N   1      31.407  44.611  57.395  0.00  0.00     0.006 C 
HETATM   13  C   UNK N   1      29.868  39.324  54.823  0.00  0.00     0.037 C 
HETATM   14  C   UNK N   1      26.085  39.498  55.891  0.00  0.00     0.012 C 
HETATM   15  C   UNK N   1      29.815  42.677  59.185  0.00  0.00     0.018 C 
HETATM   16  C   UNK N   1      27.719  39.738  53.459  0.00  0.00     0.037 C 
HETATM   17  C   UNK N   1      28.029  38.811  57.282  0.00  0.00     0.016 C 
HETATM   18  C   UNK N   1      25.527  40.143  54.620  0.00  0.00     0.032 C 
HETATM   19  C   UNK N   1      26.203  39.522  53.387  0.00  0.00     0.118 C 
ENDROOT
BRANCH   6  20
HETATM   20  C   UNK N   1      29.824  45.790  59.117  0.00  0.00    -0.013 C 
HETATM   21  C   UNK N   1      28.372  45.925  59.607  0.00  0.00     0.010 C 
BRANCH  20  22
HETATM   22  C   UNK N   1      30.422  47.185  58.790  0.00  0.00     0.015 C 
BRANCH  22  23
HETATM   23  C   UNK N   1      29.660  48.016  57.735  0.00  0.00     0.110 C 
BRANCH  23  24
HETATM   24  C   UNK N   1      30.118  49.449  57.664  0.00  0.00     0.139 C 
HETATM   25  O   UNK N   1      30.512  49.918  56.615  0.00  0.00    -0.650 OA
BRANCH  24  26
HETATM   26  O   UNK N   1      30.055  50.221  58.775  0.00  0.00    -0.776 OA
HETATM   27  H   UNK N   1      30.269  49.859  59.647  0.00  0.00     0.167 HD
ENDBRANCH  24  26
ENDBRANCH  23  24
ENDBRANCH  22  23
ENDBRANCH  20  22
ENDBRANCH   6  20
BRANCH   7  28
HETATM   28  O   UNK N   1      27.346  44.093  56.648  0.00  0.00    -0.395 OA
HETATM   29  H   UNK N   1      27.364  45.041  56.943  0.00  0.00     0.210 HD
ENDBRANCH   7  28
BRANCH  11  30
HETATM   30  O   UNK N   1      30.115  41.535  53.867  0.00  0.00    -0.395 OA
HETATM   31  H   UNK N   1      30.496  42.441  53.958  0.00  0.00     0.210 HD
ENDBRANCH  11  30
BRANCH  19  32
HETATM   32  O   UNK N   1      25.712  40.115  52.214  0.00  0.00    -0.396 OA
HETATM   33  H   UNK N   1      25.961  39.518  51.461  0.00  0.00     0.210 HD
ENDBRANCH  19  32
TORSDOF 8
ENDMDL
