MODEL 1
REMARK VINA RESULT:      -6.3      0.000      0.000
REMARK  8 active torsions:
REMARK  status: ('A' for Active; 'I' for Inactive)
REMARK    1  A    between atoms: O_1  and  C_12 
REMARK    2  A    between atoms: O_2  and  C_24 
REMARK    3  A    between atoms: O_3  and  C_30 
REMARK    4  A    between atoms: C_11  and  C_22 
REMARK    5  A    between atoms: C_15  and  C_25 
REMARK    6  A    between atoms: C_22  and  C_26 
REMARK    7  A    between atoms: C_26  and  C_29 
REMARK    8  A    between atoms: C_29  and  C_30 
ROOT
HETATM    1  C   UNK N   1      28.483  54.590  40.842  0.00  0.00     0.024 C 
HETATM    2  C   UNK N   1      28.490  53.220  40.091  0.00  0.00     0.001 C 
HETATM    3  C   UNK N   1      29.319  54.444  42.138  0.00  0.00     0.001 C 
HETATM    4  C   UNK N   1      30.787  54.044  41.858  0.00  0.00    -0.036 C 
HETATM    5  C   UNK N   1      27.651  53.249  38.754  0.00  0.00    -0.036 C 
HETATM    6  C   UNK N   1      26.207  53.866  39.001  0.00  0.00     0.003 C 
HETATM    7  C   UNK N   1      31.325  54.046  43.310  0.00  0.00    -0.002 C 
HETATM    8  C   UNK N   1      27.036  55.044  41.142  0.00  0.00     0.127 C 
HETATM    9  C   UNK N   1      29.941  52.694  39.871  0.00  0.00     0.007 C 
HETATM   10  C   UNK N   1      30.744  52.647  41.177  0.00  0.00     0.010 C 
HETATM   11  C   UNK N   1      26.257  55.199  39.817  0.00  0.00     0.019 C 
HETATM   12  C   UNK N   1      29.445  55.646  43.063  0.00  0.00     0.006 C 
HETATM   13  C   UNK N   1      30.670  55.311  43.937  0.00  0.00     0.006 C 
HETATM   14  C   UNK N   1      27.545  51.757  38.241  0.00  0.00     0.012 C 
HETATM   15  C   UNK N   1      25.268  52.776  39.550  0.00  0.00     0.037 C 
HETATM   16  C   UNK N   1      31.581  55.073  40.988  0.00  0.00     0.016 C 
HETATM   17  C   UNK N   1      28.342  54.110  37.657  0.00  0.00     0.016 C 
HETATM   18  C   UNK N   1      26.240  51.515  37.499  0.00  0.00     0.032 C 
HETATM   19  C   UNK N   1      25.042  51.671  38.480  0.00  0.00     0.118 C 
ENDROOT
BRANCH   7  20
HETATM   20  C   UNK N   1      32.862  53.942  43.589  0.00  0.00    -0.013 C 
HETATM   21  C   UNK N   1      33.227  52.769  44.513  0.00  0.00     0.010 C 
BRANCH  20  22
HETATM   22  C   UNK N   1      33.437  55.268  44.155  0.00  0.00     0.015 C 
BRANCH  22  23
HETATM   23  C   UNK N   1      33.910  55.185  45.621  0.00  0.00     0.110 C 
BRANCH  23  24
HETATM   24  C   UNK N   1      34.322  56.520  46.180  0.00  0.00     0.139 C 
HETATM   25  O   UNK N   1      34.685  56.636  47.335  0.00  0.00    -0.650 OA
BRANCH  24  26
HETATM   26  O   UNK N   1      34.298  57.599  45.365  0.00  0.00    -0.776 OA
HETATM   27  H   UNK N   1      35.118  58.042  45.102  0.00  0.00     0.167 HD
ENDBRANCH  24  26
ENDBRANCH  23  24
ENDBRANCH  22  23
ENDBRANCH  20  22
ENDBRANCH   7  20
BRANCH   8  28
HETATM   28  O   UNK N   1      26.402  54.135  42.009  0.00  0.00    -0.395 OA
HETATM   29  H   UNK N   1      26.466  53.237  41.592  0.00  0.00     0.210 HD
ENDBRANCH   8  28
BRANCH  11  30
HETATM   30  C   UNK N   1      24.872  55.852  40.058  0.00  0.00     0.003 C 
HETATM   31  C   UNK N   1      24.948  57.124  40.904  0.00  0.00     0.005 C 
ENDBRANCH  11  30
BRANCH  19  32
HETATM   32  O   UNK N   1      24.782  50.470  39.157  0.00  0.00    -0.396 OA
HETATM   33  H   UNK N   1      24.203  49.922  38.565  0.00  0.00     0.210 HD
ENDBRANCH  19  32
TORSDOF 8
ENDMDL
MODEL 2
REMARK VINA RESULT:      -6.0     16.089     19.320
REMARK  8 active torsions:
REMARK  status: ('A' for Active; 'I' for Inactive)
REMARK    1  A    between atoms: O_1  and  C_12 
REMARK    2  A    between atoms: O_2  and  C_24 
REMARK    3  A    between atoms: O_3  and  C_30 
REMARK    4  A    between atoms: C_11  and  C_22 
REMARK    5  A    between atoms: C_15  and  C_25 
REMARK    6  A    between atoms: C_22  and  C_26 
REMARK    7  A    between atoms: C_26  and  C_29 
REMARK    8  A    between atoms: C_29  and  C_30 
ROOT
HETATM    1  C   UNK N   1      29.119  47.732  57.759  0.00  0.00     0.024 C 
HETATM    2  C   UNK N   1      28.278  48.232  58.978  0.00  0.00     0.001 C 
HETATM    3  C   UNK N   1      30.189  46.737  58.276  0.00  0.00     0.001 C 
HETATM    4  C   UNK N   1      29.568  45.509  58.983  0.00  0.00    -0.036 C 
HETATM    5  C   UNK N   1      27.161  49.269  58.568  0.00  0.00    -0.036 C 
HETATM    6  C   UNK N   1      27.761  50.422  57.654  0.00  0.00     0.003 C 
HETATM    7  C   UNK N   1      30.865  44.727  59.305  0.00  0.00    -0.002 C 
HETATM    8  C   UNK N   1      29.759  48.922  57.008  0.00  0.00     0.127 C 
HETATM    9  C   UNK N   1      27.711  47.043  59.810  0.00  0.00     0.007 C 
HETATM   10  C   UNK N   1      28.804  46.051  60.224  0.00  0.00     0.010 C 
HETATM   11  C   UNK N   1      28.650  49.865  56.493  0.00  0.00     0.019 C 
HETATM   12  C   UNK N   1      31.156  46.123  57.275  0.00  0.00     0.006 C 
HETATM   13  C   UNK N   1      31.716  44.891  58.012  0.00  0.00     0.006 C 
HETATM   14  C   UNK N   1      26.567  49.865  59.907  0.00  0.00     0.012 C 
HETATM   15  C   UNK N   1      28.413  51.498  58.542  0.00  0.00     0.037 C 
HETATM   16  C   UNK N   1      28.631  44.647  58.075  0.00  0.00     0.016 C 
HETATM   17  C   UNK N   1      26.012  48.592  57.765  0.00  0.00     0.016 C 
HETATM   18  C   UNK N   1      26.108  51.302  59.721  0.00  0.00     0.032 C 
HETATM   19  C   UNK N   1      27.333  52.207  59.407  0.00  0.00     0.118 C 
ENDROOT
BRANCH   7  20
HETATM   20  C   UNK N   1      30.797  43.250  59.818  0.00  0.00    -0.013 C 
HETATM   21  C   UNK N   1      30.832  43.145  61.352  0.00  0.00     0.010 C 
BRANCH  20  22
HETATM   22  C   UNK N   1      31.914  42.370  59.195  0.00  0.00     0.015 C 
BRANCH  22  23
HETATM   23  C   UNK N   1      33.041  41.981  60.173  0.00  0.00     0.110 C 
BRANCH  23  24
HETATM   24  C   UNK N   1      34.201  42.939  60.142  0.00  0.00     0.139 C 
HETATM   25  O   UNK N   1      34.593  43.489  61.154  0.00  0.00    -0.650 OA
BRANCH  24  26
HETATM   26  O   UNK N   1      34.819  43.170  58.962  0.00  0.00    -0.776 OA
HETATM   27  H   UNK N   1      34.631  43.969  58.450  0.00  0.00     0.167 HD
ENDBRANCH  24  26
ENDBRANCH  23  24
ENDBRANCH  22  23
ENDBRANCH  20  22
ENDBRANCH   7  20
BRANCH   8  28
HETATM   28  O   UNK N   1      30.669  49.601  57.841  0.00  0.00    -0.395 OA
HETATM   29  H   UNK N   1      30.809  50.502  57.449  0.00  0.00     0.210 HD
ENDBRANCH   8  28
BRANCH  11  30
HETATM   30  C   UNK N   1      29.234  50.955  55.558  0.00  0.00     0.003 C 
HETATM   31  C   UNK N   1      30.303  50.417  54.605  0.00  0.00     0.005 C 
ENDBRANCH  11  30
BRANCH  19  32
HETATM   32  O   UNK N   1      27.953  52.647  60.586  0.00  0.00    -0.396 OA
HETATM   33  H   UNK N   1      28.454  51.874  60.957  0.00  0.00     0.210 HD
ENDBRANCH  19  32
TORSDOF 8
ENDMDL
MODEL 3
REMARK VINA RESULT:      -5.8     16.824     20.610
REMARK  8 active torsions:
REMARK  status: ('A' for Active; 'I' for Inactive)
REMARK    1  A    between atoms: O_1  and  C_12 
REMARK    2  A    between atoms: O_2  and  C_24 
REMARK    3  A    between atoms: O_3  and  C_30 
REMARK    4  A    between atoms: C_11  and  C_22 
REMARK    5  A    between atoms: C_15  and  C_25 
REMARK    6  A    between atoms: C_22  and  C_26 
REMARK    7  A    between atoms: C_26  and  C_29 
REMARK    8  A    between atoms: C_29  and  C_30 
ROOT
HETATM    1  C   UNK N   1      29.829  45.499  60.220  0.00  0.00     0.024 C 
HETATM    2  C   UNK N   1      30.998  45.134  59.250  0.00  0.00     0.001 C 
HETATM    3  C   UNK N   1      29.536  47.015  60.089  0.00  0.00     0.001 C 
HETATM    4  C   UNK N   1      29.129  47.421  58.653  0.00  0.00    -0.036 C 
HETATM    5  C   UNK N   1      31.393  43.606  59.312  0.00  0.00    -0.036 C 
HETATM    6  C   UNK N   1      31.600  43.131  60.814  0.00  0.00     0.003 C 
HETATM    7  C   UNK N   1      28.863  48.928  58.889  0.00  0.00    -0.002 C 
HETATM    8  C   UNK N   1      30.178  45.107  61.674  0.00  0.00     0.127 C 
HETATM    9  C   UNK N   1      30.709  45.616  57.797  0.00  0.00     0.007 C 
HETATM   10  C   UNK N   1      30.348  47.106  57.741  0.00  0.00     0.010 C 
HETATM   11  C   UNK N   1      30.433  43.585  61.752  0.00  0.00     0.019 C 
HETATM   12  C   UNK N   1      28.445  47.624  60.957  0.00  0.00     0.006 C 
HETATM   13  C   UNK N   1      28.114  48.954  60.253  0.00  0.00     0.006 C 
HETATM   14  C   UNK N   1      32.726  43.438  58.480  0.00  0.00     0.012 C 
HETATM   15  C   UNK N   1      33.020  43.502  61.281  0.00  0.00     0.037 C 
HETATM   16  C   UNK N   1      27.834  46.721  58.127  0.00  0.00     0.016 C 
HETATM   17  C   UNK N   1      30.292  42.701  58.686  0.00  0.00     0.016 C 
HETATM   18  C   UNK N   1      33.595  42.324  59.040  0.00  0.00     0.032 C 
HETATM   19  C   UNK N   1      34.078  42.703  60.469  0.00  0.00     0.118 C 
ENDROOT
BRANCH   7  20
HETATM   20  C   UNK N   1      28.171  49.796  57.786  0.00  0.00    -0.013 C 
HETATM   21  C   UNK N   1      26.636  49.768  57.875  0.00  0.00     0.010 C 
BRANCH  20  22
HETATM   22  C   UNK N   1      28.631  49.392  56.360  0.00  0.00     0.015 C 
BRANCH  22  23
HETATM   23  C   UNK N   1      29.298  50.528  55.558  0.00  0.00     0.110 C 
BRANCH  23  24
HETATM   24  C   UNK N   1      30.796  50.545  55.700  0.00  0.00     0.139 C 
HETATM   25  O   UNK N   1      31.458  49.540  55.523  0.00  0.00    -0.650 OA
BRANCH  24  26
HETATM   26  O   UNK N   1      31.404  51.712  56.014  0.00  0.00    -0.776 OA
HETATM   27  H   UNK N   1      30.949  52.558  55.895  0.00  0.00     0.167 HD
ENDBRANCH  24  26
ENDBRANCH  23  24
ENDBRANCH  22  23
ENDBRANCH  20  22
ENDBRANCH   7  20
BRANCH   8  28
HETATM   28  O   UNK N   1      31.290  45.839  62.131  0.00  0.00    -0.395 OA
HETATM   29  H   UNK N   1      31.652  45.362  62.922  0.00  0.00     0.210 HD
ENDBRANCH   8  28
BRANCH  11  30
HETATM   30  C   UNK N   1      30.580  43.119  63.223  0.00  0.00     0.003 C 
HETATM   31  C   UNK N   1      29.635  41.972  63.586  0.00  0.00     0.005 C 
ENDBRANCH  11  30
BRANCH  19  32
HETATM   32  O   UNK N   1      35.249  43.476  60.419  0.00  0.00    -0.396 OA
HETATM   33  H   UNK N   1      35.873  43.018  59.798  0.00  0.00     0.210 HD
ENDBRANCH  19  32
TORSDOF 8
ENDMDL
MODEL 4
REMARK VINA RESULT:      -5.4     16.038     19.394
REMARK  8 active torsions:
REMARK  status: ('A' for Active; 'I' for Inactive)
REMARK    1  A    between atoms: O_1  and  C_12 
REMARK    2  A    between atoms: O_2  and  C_24 
REMARK    3  A    between atoms: O_3  and  C_30 
REMARK    4  A    between atoms: C_11  and  C_22 
REMARK    5  A    between atoms: C_15  and  C_25 
REMARK    6  A    between atoms: C_22  and  C_26 
REMARK    7  A    between atoms: C_26  and  C_29 
REMARK    8  A    between atoms: C_29  and  C_30 
ROOT
HETATM    1  C   UNK N   1      29.120  47.895  57.977  0.00  0.00     0.024 C 
HETATM    2  C   UNK N   1      28.490  48.485  59.279  0.00  0.00     0.001 C 
HETATM    3  C   UNK N   1      30.214  46.874  58.379  0.00  0.00     0.001 C 
HETATM    4  C   UNK N   1      29.657  45.707  59.228  0.00  0.00    -0.036 C 
HETATM    5  C   UNK N   1      27.366  49.555  58.987  0.00  0.00    -0.036 C 
HETATM    6  C   UNK N   1      27.869  50.638  57.940  0.00  0.00     0.003 C 
HETATM    7  C   UNK N   1      30.956  44.881  59.395  0.00  0.00    -0.002 C 
HETATM    8  C   UNK N   1      29.688  49.020  57.083  0.00  0.00     0.127 C 
HETATM    9  C   UNK N   1      28.005  47.360  60.243  0.00  0.00     0.007 C 
HETATM   10  C   UNK N   1      29.108  46.337  60.540  0.00  0.00     0.010 C 
HETATM   11  C   UNK N   1      28.553  49.992  56.690  0.00  0.00     0.019 C 
HETATM   12  C   UNK N   1      30.997  46.174  57.278  0.00  0.00     0.006 C 
HETATM   13  C   UNK N   1      31.611  44.949  57.985  0.00  0.00     0.006 C 
HETATM   14  C   UNK N   1      27.002  50.233  60.368  0.00  0.00     0.012 C 
HETATM   15  C   UNK N   1      28.687  51.719  58.670  0.00  0.00     0.037 C 
HETATM   16  C   UNK N   1      28.562  44.852  58.511  0.00  0.00     0.016 C 
HETATM   17  C   UNK N   1      26.084  48.897  58.396  0.00  0.00     0.016 C 
HETATM   18  C   UNK N   1      26.577  51.681  60.181  0.00  0.00     0.032 C 
HETATM   19  C   UNK N   1      27.777  52.515  59.647  0.00  0.00     0.118 C 
ENDROOT
BRANCH   7  20
HETATM   20  C   UNK N   1      30.906  43.431  59.984  0.00  0.00    -0.013 C 
HETATM   21  C   UNK N   1      31.744  43.275  61.264  0.00  0.00     0.010 C 
BRANCH  20  22
HETATM   22  C   UNK N   1      31.326  42.367  58.936  0.00  0.00     0.015 C 
BRANCH  22  23
HETATM   23  C   UNK N   1      30.184  41.438  58.477  0.00  0.00     0.110 C 
BRANCH  23  24
HETATM   24  C   UNK N   1      29.730  41.719  57.070  0.00  0.00     0.139 C 
HETATM   25  O   UNK N   1      30.510  42.105  56.220  0.00  0.00    -0.650 OA
BRANCH  24  26
HETATM   26  O   UNK N   1      28.429  41.518  56.756  0.00  0.00    -0.776 OA
HETATM   27  H   UNK N   1      28.127  40.666  56.410  0.00  0.00     0.167 HD
ENDBRANCH  24  26
ENDBRANCH  23  24
ENDBRANCH  22  23
ENDBRANCH  20  22
ENDBRANCH   7  20
BRANCH   8  28
HETATM   28  O   UNK N   1      30.737  49.691  57.738  0.00  0.00    -0.395 OA
HETATM   29  H   UNK N   1      30.791  50.603  57.350  0.00  0.00     0.210 HD
ENDBRANCH   8  28
BRANCH  11  30
HETATM   30  C   UNK N   1      29.034  51.013  55.627  0.00  0.00     0.003 C 
HETATM   31  C   UNK N   1      30.146  50.464  54.731  0.00  0.00     0.005 C 
ENDBRANCH  11  30
BRANCH  19  32
HETATM   32  O   UNK N   1      28.583  52.975  60.700  0.00  0.00    -0.396 OA
HETATM   33  H   UNK N   1      28.110  53.744  61.113  0.00  0.00     0.210 HD
ENDBRANCH  19  32
TORSDOF 8
ENDMDL
MODEL 5
REMARK VINA RESULT:      -5.4     17.108     20.841
REMARK  8 active torsions:
REMARK  status: ('A' for Active; 'I' for Inactive)
REMARK    1  A    between atoms: O_1  and  C_12 
REMARK    2  A    between atoms: O_2  and  C_24 
REMARK    3  A    between atoms: O_3  and  C_30 
REMARK    4  A    between atoms: C_11  and  C_22 
REMARK    5  A    between atoms: C_15  and  C_25 
REMARK    6  A    between atoms: C_22  and  C_26 
REMARK    7  A    between atoms: C_26  and  C_29 
REMARK    8  A    between atoms: C_29  and  C_30 
ROOT
HETATM    1  C   UNK N   1      29.923  45.640  60.219  0.00  0.00     0.024 C 
HETATM    2  C   UNK N   1      31.061  45.208  59.239  0.00  0.00     0.001 C 
HETATM    3  C   UNK N   1      29.699  47.166  60.070  0.00  0.00     0.001 C 
HETATM    4  C   UNK N   1      29.290  47.569  58.633  0.00  0.00    -0.036 C 
HETATM    5  C   UNK N   1      31.385  43.664  59.318  0.00  0.00    -0.036 C 
HETATM    6  C   UNK N   1      31.592  43.202  60.824  0.00  0.00     0.003 C 
HETATM    7  C   UNK N   1      29.097  49.090  58.850  0.00  0.00    -0.002 C 
HETATM    8  C   UNK N   1      30.276  45.253  61.674  0.00  0.00     0.127 C 
HETATM    9  C   UNK N   1      30.772  45.681  57.782  0.00  0.00     0.007 C 
HETATM   10  C   UNK N   1      30.480  47.185  57.709  0.00  0.00     0.010 C 
HETATM   11  C   UNK N   1      30.461  43.723  61.772  0.00  0.00     0.019 C 
HETATM   12  C   UNK N   1      28.649  47.837  60.943  0.00  0.00     0.006 C 
HETATM   13  C   UNK N   1      28.370  49.171  60.223  0.00  0.00     0.006 C 
HETATM   14  C   UNK N   1      32.697  43.423  58.470  0.00  0.00     0.012 C 
HETATM   15  C   UNK N   1      33.035  43.514  61.265  0.00  0.00     0.037 C 
HETATM   16  C   UNK N   1      27.956  46.923  58.136  0.00  0.00     0.016 C 
HETATM   17  C   UNK N   1      30.234  42.802  58.722  0.00  0.00     0.016 C 
HETATM   18  C   UNK N   1      33.522  42.277  59.035  0.00  0.00     0.032 C 
HETATM   19  C   UNK N   1      34.043  42.655  60.451  0.00  0.00     0.118 C 
ENDROOT
BRANCH   7  20
HETATM   20  C   UNK N   1      28.429  49.973  57.743  0.00  0.00    -0.013 C 
HETATM   21  C   UNK N   1      29.399  50.359  56.615  0.00  0.00     0.010 C 
BRANCH  20  22
HETATM   22  C   UNK N   1      27.768  51.245  58.339  0.00  0.00     0.015 C 
BRANCH  22  23
HETATM   23  C   UNK N   1      26.227  51.208  58.373  0.00  0.00     0.110 C 
BRANCH  23  24
HETATM   24  C   UNK N   1      25.627  50.632  57.119  0.00  0.00     0.139 C 
HETATM   25  O   UNK N   1      25.057  49.557  57.128  0.00  0.00    -0.650 OA
BRANCH  24  26
HETATM   26  O   UNK N   1      25.717  51.343  55.972  0.00  0.00    -0.776 OA
HETATM   27  H   UNK N   1      25.659  50.906  55.110  0.00  0.00     0.167 HD
ENDBRANCH  24  26
ENDBRANCH  23  24
ENDBRANCH  22  23
ENDBRANCH  20  22
ENDBRANCH   7  20
BRANCH   8  28
HETATM   28  O   UNK N   1      31.426  45.941  62.104  0.00  0.00    -0.395 OA
HETATM   29  H   UNK N   1      31.217  46.910  62.075  0.00  0.00     0.210 HD
ENDBRANCH   8  28
BRANCH  11  30
HETATM   30  C   UNK N   1      30.608  43.272  63.247  0.00  0.00     0.003 C 
HETATM   31  C   UNK N   1      29.391  42.500  63.762  0.00  0.00     0.005 C 
ENDBRANCH  11  30
BRANCH  19  32
HETATM   32  O   UNK N   1      35.247  43.372  60.373  0.00  0.00    -0.396 OA
HETATM   33  H   UNK N   1      35.981  42.704  60.346  0.00  0.00     0.210 HD
ENDBRANCH  19  32
TORSDOF 8
ENDMDL
MODEL 6
REMARK VINA RESULT:      -5.3     18.167     21.673
REMARK  8 active torsions:
REMARK  status: ('A' for Active; 'I' for Inactive)
REMARK    1  A    between atoms: O_1  and  C_12 
REMARK    2  A    between atoms: O_2  and  C_24 
REMARK    3  A    between atoms: O_3  and  C_30 
REMARK    4  A    between atoms: C_11  and  C_22 
REMARK    5  A    between atoms: C_15  and  C_25 
REMARK    6  A    between atoms: C_22  and  C_26 
REMARK    7  A    between atoms: C_26  and  C_29 
REMARK    8  A    between atoms: C_29  and  C_30 
ROOT
HETATM    1  C   UNK N   1      29.587  42.040  56.893  0.00  0.00     0.024 C 
HETATM    2  C   UNK N   1      30.221  41.208  58.054  0.00  0.00     0.001 C 
HETATM    3  C   UNK N   1      29.398  41.109  55.668  0.00  0.00     0.001 C 
HETATM    4  C   UNK N   1      28.475  39.906  55.972  0.00  0.00    -0.036 C 
HETATM    5  C   UNK N   1      30.473  42.066  59.356  0.00  0.00    -0.036 C 
HETATM    6  C   UNK N   1      31.236  43.416  59.010  0.00  0.00     0.003 C 
HETATM    7  C   UNK N   1      28.460  39.247  54.571  0.00  0.00    -0.002 C 
HETATM    8  C   UNK N   1      30.467  43.264  56.550  0.00  0.00     0.127 C 
HETATM    9  C   UNK N   1      29.404  39.913  58.344  0.00  0.00     0.007 C 
HETATM   10  C   UNK N   1      29.181  39.074  57.080  0.00  0.00     0.010 C 
HETATM   11  C   UNK N   1      30.599  44.170  57.795  0.00  0.00     0.019 C 
HETATM   12  C   UNK N   1      28.815  41.695  54.391  0.00  0.00     0.006 C 
HETATM   13  C   UNK N   1      28.340  40.459  53.602  0.00  0.00     0.006 C 
HETATM   14  C   UNK N   1      31.328  41.173  60.341  0.00  0.00     0.012 C 
HETATM   15  C   UNK N   1      32.748  43.144  58.914  0.00  0.00     0.037 C 
HETATM   16  C   UNK N   1      27.023  40.298  56.399  0.00  0.00     0.016 C 
HETATM   17  C   UNK N   1      29.138  42.454  60.059  0.00  0.00     0.016 C 
HETATM   18  C   UNK N   1      32.251  42.021  61.201  0.00  0.00     0.032 C 
HETATM   19  C   UNK N   1      33.308  42.724  60.302  0.00  0.00     0.118 C 
ENDROOT
BRANCH   7  20
HETATM   20  C   UNK N   1      27.453  38.093  54.245  0.00  0.00    -0.013 C 
HETATM   21  C   UNK N   1      28.150  36.785  53.837  0.00  0.00     0.010 C 
BRANCH  20  22
HETATM   22  C   UNK N   1      26.424  38.513  53.162  0.00  0.00     0.015 C 
BRANCH  22  23
HETATM   23  C   UNK N   1      25.234  37.546  53.003  0.00  0.00     0.110 C 
BRANCH  23  24
HETATM   24  C   UNK N   1      25.077  37.036  51.596  0.00  0.00     0.139 C 
HETATM   25  O   UNK N   1      25.102  35.845  51.350  0.00  0.00    -0.650 OA
BRANCH  24  26
HETATM   26  O   UNK N   1      24.891  37.931  50.599  0.00  0.00    -0.776 OA
HETATM   27  H   UNK N   1      25.616  38.496  50.296  0.00  0.00     0.167 HD
ENDBRANCH  24  26
ENDBRANCH  23  24
ENDBRANCH  22  23
ENDBRANCH  20  22
ENDBRANCH   7  20
BRANCH   8  28
HETATM   28  O   UNK N   1      31.726  42.852  56.076  0.00  0.00    -0.395 OA
HETATM   29  H   UNK N   1      32.383  43.021  56.800  0.00  0.00     0.210 HD
ENDBRANCH   8  28
BRANCH  11  30
HETATM   30  C   UNK N   1      31.296  45.508  57.440  0.00  0.00     0.003 C 
HETATM   31  C   UNK N   1      30.520  46.735  57.926  0.00  0.00     0.005 C 
ENDBRANCH  11  30
BRANCH  19  32
HETATM   32  O   UNK N   1      34.417  41.893  60.080  0.00  0.00    -0.396 OA
HETATM   33  H   UNK N   1      34.290  41.470  59.191  0.00  0.00     0.210 HD
ENDBRANCH  19  32
TORSDOF 8
ENDMDL
MODEL 7
REMARK VINA RESULT:      -5.1      2.985      4.078
REMARK  8 active torsions:
REMARK  status: ('A' for Active; 'I' for Inactive)
REMARK    1  A    between atoms: O_1  and  C_12 
REMARK    2  A    between atoms: O_2  and  C_24 
REMARK    3  A    between atoms: O_3  and  C_30 
REMARK    4  A    between atoms: C_11  and  C_22 
REMARK    5  A    between atoms: C_15  and  C_25 
REMARK    6  A    between atoms: C_22  and  C_26 
REMARK    7  A    between atoms: C_26  and  C_29 
REMARK    8  A    between atoms: C_29  and  C_30 
ROOT
HETATM    1  C   UNK N   1      28.272  55.061  40.446  0.00  0.00     0.024 C 
HETATM    2  C   UNK N   1      27.098  54.363  39.686  0.00  0.00     0.001 C 
HETATM    3  C   UNK N   1      29.054  53.982  41.238  0.00  0.00     0.001 C 
HETATM    4  C   UNK N   1      29.644  52.883  40.324  0.00  0.00    -0.036 C 
HETATM    5  C   UNK N   1      26.220  55.376  38.851  0.00  0.00    -0.036 C 
HETATM    6  C   UNK N   1      25.792  56.624  39.738  0.00  0.00     0.003 C 
HETATM    7  C   UNK N   1      30.379  52.040  41.395  0.00  0.00    -0.002 C 
HETATM    8  C   UNK N   1      27.740  56.178  41.372  0.00  0.00     0.127 C 
HETATM    9  C   UNK N   1      27.603  53.165  38.826  0.00  0.00     0.007 C 
HETATM   10  C   UNK N   1      28.437  52.174  39.647  0.00  0.00     0.010 C 
HETATM   11  C   UNK N   1      26.995  57.237  40.530  0.00  0.00     0.019 C 
HETATM   12  C   UNK N   1      30.240  54.418  42.086  0.00  0.00     0.006 C 
HETATM   13  C   UNK N   1      31.026  53.113  42.319  0.00  0.00     0.006 C 
HETATM   14  C   UNK N   1      24.950  54.582  38.347  0.00  0.00     0.012 C 
HETATM   15  C   UNK N   1      24.552  56.260  40.575  0.00  0.00     0.037 C 
HETATM   16  C   UNK N   1      30.662  53.407  39.259  0.00  0.00     0.016 C 
HETATM   17  C   UNK N   1      26.992  55.927  37.616  0.00  0.00     0.016 C 
HETATM   18  C   UNK N   1      23.735  55.490  38.234  0.00  0.00     0.032 C 
HETATM   19  C   UNK N   1      23.332  56.005  39.645  0.00  0.00     0.118 C 
ENDROOT
BRANCH   7  20
HETATM   20  C   UNK N   1      31.374  50.908  40.971  0.00  0.00    -0.013 C 
HETATM   21  C   UNK N   1      30.683  49.552  40.752  0.00  0.00     0.010 C 
BRANCH  20  22
HETATM   22  C   UNK N   1      32.542  50.757  41.982  0.00  0.00     0.015 C 
BRANCH  22  23
HETATM   23  C   UNK N   1      32.486  49.474  42.836  0.00  0.00     0.110 C 
BRANCH  23  24
HETATM   24  C   UNK N   1      32.412  49.756  44.312  0.00  0.00     0.139 C 
HETATM   25  O   UNK N   1      31.457  49.399  44.976  0.00  0.00    -0.650 OA
BRANCH  24  26
HETATM   26  O   UNK N   1      33.443  50.405  44.901  0.00  0.00    -0.776 OA
HETATM   27  H   UNK N   1      34.359  50.192  44.674  0.00  0.00     0.167 HD
ENDBRANCH  24  26
ENDBRANCH  23  24
ENDBRANCH  22  23
ENDBRANCH  20  22
ENDBRANCH   7  20
BRANCH   8  28
HETATM   28  O   UNK N   1      26.910  55.638  42.373  0.00  0.00    -0.395 OA
HETATM   29  H   UNK N   1      26.242  55.060  41.921  0.00  0.00     0.210 HD
ENDBRANCH   8  28
BRANCH  11  30
HETATM   30  C   UNK N   1      26.628  58.475  41.387  0.00  0.00     0.003 C 
HETATM   31  C   UNK N   1      27.824  59.055  42.144  0.00  0.00     0.005 C 
ENDBRANCH  11  30
BRANCH  19  32
HETATM   32  O   UNK N   1      22.486  55.094  40.295  0.00  0.00    -0.396 OA
HETATM   33  H   UNK N   1      23.058  54.533  40.882  0.00  0.00     0.210 HD
ENDBRANCH  19  32
TORSDOF 8
ENDMDL
MODEL 8
REMARK VINA RESULT:      -5.0     17.669     19.524
REMARK  8 active torsions:
REMARK  status: ('A' for Active; 'I' for Inactive)
REMARK    1  A    between atoms: O_1  and  C_12 
REMARK    2  A    between atoms: O_2  and  C_24 
REMARK    3  A    between atoms: O_3  and  C_30 
REMARK    4  A    between atoms: C_11  and  C_22 
REMARK    5  A    between atoms: C_15  and  C_25 
REMARK    6  A    between atoms: C_22  and  C_26 
REMARK    7  A    between atoms: C_26  and  C_29 
REMARK    8  A    between atoms: C_29  and  C_30 
ROOT
HETATM    1  C   UNK N   1      29.794  44.845  58.626  0.00  0.00     0.024 C 
HETATM    2  C   UNK N   1      28.920  44.137  57.541  0.00  0.00     0.001 C 
HETATM    3  C   UNK N   1      29.433  46.351  58.642  0.00  0.00     0.001 C 
HETATM    4  C   UNK N   1      27.942  46.603  58.971  0.00  0.00    -0.036 C 
HETATM    5  C   UNK N   1      29.217  42.590  57.426  0.00  0.00    -0.036 C 
HETATM    6  C   UNK N   1      30.778  42.318  57.306  0.00  0.00     0.003 C 
HETATM    7  C   UNK N   1      27.946  48.151  58.963  0.00  0.00    -0.002 C 
HETATM    8  C   UNK N   1      31.299  44.620  58.351  0.00  0.00     0.127 C 
HETATM    9  C   UNK N   1      27.404  44.439  57.740  0.00  0.00     0.007 C 
HETATM   10  C   UNK N   1      27.119  45.943  57.829  0.00  0.00     0.010 C 
HETATM   11  C   UNK N   1      31.608  43.106  58.373  0.00  0.00     0.019 C 
HETATM   12  C   UNK N   1      30.172  47.267  59.607  0.00  0.00     0.006 C 
HETATM   13  C   UNK N   1      29.270  48.514  59.694  0.00  0.00     0.006 C 
HETATM   14  C   UNK N   1      28.454  42.066  56.145  0.00  0.00     0.012 C 
HETATM   15  C   UNK N   1      31.221  42.497  55.843  0.00  0.00     0.037 C 
HETATM   16  C   UNK N   1      27.492  46.073  60.371  0.00  0.00     0.016 C 
HETATM   17  C   UNK N   1      28.704  41.811  58.672  0.00  0.00     0.016 C 
HETATM   18  C   UNK N   1      29.196  40.912  55.490  0.00  0.00     0.032 C 
HETATM   19  C   UNK N   1      30.565  41.410  54.945  0.00  0.00     0.118 C 
ENDROOT
BRANCH   7  20
HETATM   20  C   UNK N   1      26.708  48.952  59.490  0.00  0.00    -0.013 C 
HETATM   21  C   UNK N   1      25.676  49.254  58.391  0.00  0.00     0.010 C 
BRANCH  20  22
HETATM   22  C   UNK N   1      27.131  50.264  60.203  0.00  0.00     0.015 C 
BRANCH  22  23
HETATM   23  C   UNK N   1      27.034  51.528  59.325  0.00  0.00     0.110 C 
BRANCH  23  24
HETATM   24  C   UNK N   1      28.345  51.899  58.686  0.00  0.00     0.139 C 
HETATM   25  O   UNK N   1      28.743  51.331  57.687  0.00  0.00    -0.650 OA
BRANCH  24  26
HETATM   26  O   UNK N   1      29.075  52.896  59.236  0.00  0.00    -0.776 OA
HETATM   27  H   UNK N   1      28.974  53.129  60.170  0.00  0.00     0.167 HD
ENDBRANCH  24  26
ENDBRANCH  23  24
ENDBRANCH  22  23
ENDBRANCH  20  22
ENDBRANCH   7  20
BRANCH   8  28
HETATM   28  O   UNK N   1      31.671  45.204  57.126  0.00  0.00    -0.395 OA
HETATM   29  H   UNK N   1      31.866  44.465  56.494  0.00  0.00     0.210 HD
ENDBRANCH   8  28
BRANCH  11  30
HETATM   30  C   UNK N   1      33.135  42.848  58.310  0.00  0.00     0.003 C 
HETATM   31  C   UNK N   1      33.690  42.223  59.592  0.00  0.00     0.005 C 
ENDBRANCH  11  30
BRANCH  19  32
HETATM   32  O   UNK N   1      30.432  41.947  53.655  0.00  0.00    -0.396 OA
HETATM   33  H   UNK N   1      30.153  41.204  53.059  0.00  0.00     0.210 HD
ENDBRANCH  19  32
TORSDOF 8
ENDMDL
MODEL 9
REMARK VINA RESULT:      -5.0     18.498     21.136
REMARK  8 active torsions:
REMARK  status: ('A' for Active; 'I' for Inactive)
REMARK    1  A    between atoms: O_1  and  C_12 
REMARK    2  A    between atoms: O_2  and  C_24 
REMARK    3  A    between atoms: O_3  and  C_30 
REMARK    4  A    between atoms: C_11  and  C_22 
REMARK    5  A    between atoms: C_15  and  C_25 
REMARK    6  A    between atoms: C_22  and  C_26 
REMARK    7  A    between atoms: C_26  and  C_29 
REMARK    8  A    between atoms: C_29  and  C_30 
ROOT
HETATM    1  C   UNK N   1      28.571  40.100  57.693  0.00  0.00     0.024 C 
HETATM    2  C   UNK N   1      29.223  39.619  56.357  0.00  0.00     0.001 C 
HETATM    3  C   UNK N   1      29.391  41.296  58.238  0.00  0.00     0.001 C 
HETATM    4  C   UNK N   1      29.431  42.489  57.253  0.00  0.00    -0.036 C 
HETATM    5  C   UNK N   1      28.473  38.386  55.716  0.00  0.00    -0.036 C 
HETATM    6  C   UNK N   1      28.237  37.241  56.792  0.00  0.00     0.003 C 
HETATM    7  C   UNK N   1      30.248  43.487  58.109  0.00  0.00    -0.002 C 
HETATM    8  C   UNK N   1      28.497  38.943  58.716  0.00  0.00     0.127 C 
HETATM    9  C   UNK N   1      29.402  40.796  55.351  0.00  0.00     0.007 C 
HETATM   10  C   UNK N   1      30.151  41.981  55.972  0.00  0.00     0.010 C 
HETATM   11  C   UNK N   1      27.648  37.791  58.133  0.00  0.00     0.019 C 
HETATM   12  C   UNK N   1      28.965  41.932  59.554  0.00  0.00     0.006 C 
HETATM   13  C   UNK N   1      29.656  43.309  59.537  0.00  0.00     0.006 C 
HETATM   14  C   UNK N   1      29.374  37.863  54.527  0.00  0.00     0.012 C 
HETATM   15  C   UNK N   1      29.509  36.383  56.919  0.00  0.00     0.037 C 
HETATM   16  C   UNK N   1      28.029  43.092  56.913  0.00  0.00     0.016 C 
HETATM   17  C   UNK N   1      27.079  38.789  55.153  0.00  0.00     0.016 C 
HETATM   18  C   UNK N   1      29.230  36.362  54.339  0.00  0.00     0.032 C 
HETATM   19  C   UNK N   1      29.779  35.621  55.591  0.00  0.00     0.118 C 
ENDROOT
BRANCH   7  20
HETATM   20  C   UNK N   1      30.377  44.986  57.675  0.00  0.00    -0.013 C 
HETATM   21  C   UNK N   1      31.817  45.384  57.311  0.00  0.00     0.010 C 
BRANCH  20  22
HETATM   22  C   UNK N   1      29.812  45.950  58.752  0.00  0.00     0.015 C 
BRANCH  22  23
HETATM   23  C   UNK N   1      28.607  46.792  58.287  0.00  0.00     0.110 C 
BRANCH  23  24
HETATM   24  C   UNK N   1      29.006  47.959  57.425  0.00  0.00     0.139 C 
HETATM   25  O   UNK N   1      30.060  48.541  57.598  0.00  0.00    -0.650 OA
BRANCH  24  26
HETATM   26  O   UNK N   1      28.172  48.348  56.434  0.00  0.00    -0.776 OA
HETATM   27  H   UNK N   1      28.033  49.286  56.240  0.00  0.00     0.167 HD
ENDBRANCH  24  26
ENDBRANCH  23  24
ENDBRANCH  22  23
ENDBRANCH  20  22
ENDBRANCH   7  20
BRANCH   8  28
HETATM   28  O   UNK N   1      29.789  38.506  59.063  0.00  0.00    -0.395 OA
HETATM   29  H   UNK N   1      29.954  37.658  58.575  0.00  0.00     0.210 HD
ENDBRANCH   8  28
BRANCH  11  30
HETATM   30  C   UNK N   1      27.375  36.703  59.203  0.00  0.00     0.003 C 
HETATM   31  C   UNK N   1      26.789  37.270  60.498  0.00  0.00     0.005 C 
ENDBRANCH  11  30
BRANCH  19  32
HETATM   32  O   UNK N   1      31.163  35.416  55.492  0.00  0.00    -0.396 OA
HETATM   33  H   UNK N   1      31.591  36.312  55.490  0.00  0.00     0.210 HD
ENDBRANCH  19  32
TORSDOF 8
ENDMDL
