MODEL 1
REMARK VINA RESULT:      -7.7      0.000      0.000
REMARK  7 active torsions:
REMARK  status: ('A' for Active; 'I' for Inactive)
REMARK    1  A    between atoms: O_1  and  C_11 
REMARK    2  A    between atoms: O_2  and  C_17 
REMARK    3  A    between atoms: O_4  and  C_23 
REMARK    4  A    between atoms: C_8  and  C_17 
REMARK    5  A    between atoms: C_9  and  C_19 
REMARK    6  A    between atoms: C_19  and  C_21 
REMARK    7  A    between atoms: C_21  and  C_22 
ROOT
HETATM    1  C   UNK N   1      40.725  46.051  47.962  0.00  0.00    -0.032 C 
HETATM    2  C   UNK N   1      41.407  46.176  49.405  0.00  0.00     0.007 C 
HETATM    3  C   UNK N   1      41.279  44.920  50.378  0.00  0.00     0.008 C 
HETATM    4  C   UNK N   1      40.714  47.501  47.319  0.00  0.00     0.025 C 
HETATM    5  C   UNK N   1      39.267  45.549  48.172  0.00  0.00     0.012 C 
HETATM    6  C   UNK N   1      39.771  44.496  50.411  0.00  0.00     0.128 C 
HETATM    7  C   UNK N   1      42.856  46.736  49.288  0.00  0.00     0.010 C 
HETATM    8  C   UNK N   1      39.190  44.259  49.007  0.00  0.00     0.033 C 
HETATM    9  C   UNK N   1      41.452  45.086  46.974  0.00  0.00     0.016 C 
HETATM   10  C   UNK N   1      42.859  48.109  48.615  0.00  0.00     0.034 C 
HETATM   11  C   UNK N   1      42.160  48.022  47.291  0.00  0.00    -0.084 C 
HETATM   12  C   UNK N   1      41.664  45.358  51.824  0.00  0.00     0.020 C 
HETATM   13  C   UNK N   1      42.826  48.371  46.168  0.00  0.00     0.015 C 
ENDROOT
BRANCH   4  14
HETATM   14  C   UNK N   1      39.994  47.621  45.943  0.00  0.00     0.037 C 
BRANCH  14  15
HETATM   15  C   UNK N   1      39.291  48.954  45.814  0.00  0.00    -0.010 C 
BRANCH  15  16
HETATM   16  C   UNK N   1      39.031  49.516  44.620  0.00  0.00     0.044 C 
HETATM   17  C   UNK N   1      37.773  49.401  43.828  0.00  0.00     0.181 C 
HETATM   18  C   UNK N   1      38.061  50.392  42.651  0.00  0.00     0.215 C 
HETATM   19  O   UNK N   1      39.414  50.689  42.696  0.00  0.00    -0.315 OA
HETATM   20  C   UNK N   1      39.974  50.253  43.827  0.00  0.00     0.291 C 
HETATM   21  O   UNK N   1      41.137  50.465  44.123  0.00  0.00    -0.260 OA
BRANCH  17  22
HETATM   22  O   UNK N   1      37.699  48.077  43.361  0.00  0.00    -0.389 OA
HETATM   23  H   UNK N   1      36.760  47.780  43.472  0.00  0.00     0.210 HD
ENDBRANCH  17  22
ENDBRANCH  15  16
ENDBRANCH  14  15
ENDBRANCH   4  14
BRANCH   3  24
HETATM   24  C   UNK N   1      42.220  43.728  50.006  0.00  0.00     0.176 C 
BRANCH  24  25
HETATM   25  O   UNK N   1      41.501  42.681  49.408  0.00  0.00    -0.400 OA
HETATM   26  H   UNK N   1      41.090  42.161  50.148  0.00  0.00     0.209 HD
ENDBRANCH  24  25
ENDBRANCH   3  24
BRANCH   6  27
HETATM   27  O   UNK N   1      39.591  43.349  51.204  0.00  0.00    -0.395 OA
HETATM   28  H   UNK N   1      40.474  43.121  51.594  0.00  0.00     0.210 HD
ENDBRANCH   6  27
TORSDOF 7
ENDMDL
MODEL 2
REMARK VINA RESULT:      -7.5      0.698      1.514
REMARK  7 active torsions:
REMARK  status: ('A' for Active; 'I' for Inactive)
REMARK    1  A    between atoms: O_1  and  C_11 
REMARK    2  A    between atoms: O_2  and  C_17 
REMARK    3  A    between atoms: O_4  and  C_23 
REMARK    4  A    between atoms: C_8  and  C_17 
REMARK    5  A    between atoms: C_9  and  C_19 
REMARK    6  A    between atoms: C_19  and  C_21 
REMARK    7  A    between atoms: C_21  and  C_22 
ROOT
HETATM    1  C   UNK N   1      40.773  46.001  47.891  0.00  0.00    -0.032 C 
HETATM    2  C   UNK N   1      41.354  46.178  49.372  0.00  0.00     0.007 C 
HETATM    3  C   UNK N   1      41.186  44.945  50.368  0.00  0.00     0.008 C 
HETATM    4  C   UNK N   1      40.777  47.435  47.209  0.00  0.00     0.025 C 
HETATM    5  C   UNK N   1      39.316  45.473  48.015  0.00  0.00     0.012 C 
HETATM    6  C   UNK N   1      39.688  44.488  50.310  0.00  0.00     0.128 C 
HETATM    7  C   UNK N   1      42.795  46.767  49.338  0.00  0.00     0.010 C 
HETATM    8  C   UNK N   1      39.208  44.203  48.877  0.00  0.00     0.033 C 
HETATM    9  C   UNK N   1      41.587  45.029  46.980  0.00  0.00     0.016 C 
HETATM   10  C   UNK N   1      42.816  48.123  48.631  0.00  0.00     0.034 C 
HETATM   11  C   UNK N   1      42.211  47.987  47.265  0.00  0.00    -0.084 C 
HETATM   12  C   UNK N   1      41.462  45.428  51.824  0.00  0.00     0.020 C 
HETATM   13  C   UNK N   1      42.944  48.322  46.181  0.00  0.00     0.015 C 
ENDROOT
BRANCH   4  14
HETATM   14  C   UNK N   1      40.151  47.503  45.785  0.00  0.00     0.037 C 
BRANCH  14  15
HETATM   15  C   UNK N   1      39.462  48.832  45.560  0.00  0.00    -0.010 C 
BRANCH  15  16
HETATM   16  C   UNK N   1      39.380  49.400  44.345  0.00  0.00     0.044 C 
HETATM   17  C   UNK N   1      40.221  50.511  43.813  0.00  0.00     0.181 C 
HETATM   18  C   UNK N   1      39.729  50.584  42.329  0.00  0.00     0.215 C 
HETATM   19  O   UNK N   1      38.568  49.831  42.252  0.00  0.00    -0.315 OA
HETATM   20  C   UNK N   1      38.378  49.109  43.358  0.00  0.00     0.291 C 
HETATM   21  O   UNK N   1      37.464  48.314  43.489  0.00  0.00    -0.260 OA
BRANCH  17  22
HETATM   22  O   UNK N   1      39.863  51.673  44.518  0.00  0.00    -0.389 OA
HETATM   23  H   UNK N   1      39.362  52.254  43.890  0.00  0.00     0.210 HD
ENDBRANCH  17  22
ENDBRANCH  15  16
ENDBRANCH  14  15
ENDBRANCH   4  14
BRANCH   3  24
HETATM   24  C   UNK N   1      42.174  43.765  50.092  0.00  0.00     0.176 C 
BRANCH  24  25
HETATM   25  O   UNK N   1      42.121  42.808  51.118  0.00  0.00    -0.400 OA
HETATM   26  H   UNK N   1      42.881  43.004  51.727  0.00  0.00     0.209 HD
ENDBRANCH  24  25
ENDBRANCH   3  24
BRANCH   6  27
HETATM   27  O   UNK N   1      39.478  43.358  51.119  0.00  0.00    -0.395 OA
HETATM   28  H   UNK N   1      38.541  43.063  50.972  0.00  0.00     0.210 HD
ENDBRANCH   6  27
TORSDOF 7
ENDMDL
MODEL 3
REMARK VINA RESULT:      -6.1      3.275      7.029
REMARK  7 active torsions:
REMARK  status: ('A' for Active; 'I' for Inactive)
REMARK    1  A    between atoms: O_1  and  C_11 
REMARK    2  A    between atoms: O_2  and  C_17 
REMARK    3  A    between atoms: O_4  and  C_23 
REMARK    4  A    between atoms: C_8  and  C_17 
REMARK    5  A    between atoms: C_9  and  C_19 
REMARK    6  A    between atoms: C_19  and  C_21 
REMARK    7  A    between atoms: C_21  and  C_22 
ROOT
HETATM    1  C   UNK N   1      41.416  44.682  47.745  0.00  0.00    -0.032 C 
HETATM    2  C   UNK N   1      42.229  44.684  46.365  0.00  0.00     0.007 C 
HETATM    3  C   UNK N   1      42.284  43.313  45.555  0.00  0.00     0.008 C 
HETATM    4  C   UNK N   1      41.765  46.035  48.498  0.00  0.00     0.025 C 
HETATM    5  C   UNK N   1      41.907  43.465  48.579  0.00  0.00     0.012 C 
HETATM    6  C   UNK N   1      42.712  42.186  46.557  0.00  0.00     0.128 C 
HETATM    7  C   UNK N   1      41.841  45.915  45.493  0.00  0.00     0.010 C 
HETATM    8  C   UNK N   1      41.823  42.136  47.810  0.00  0.00     0.033 C 
HETATM    9  C   UNK N   1      39.865  44.597  47.592  0.00  0.00     0.016 C 
HETATM   10  C   UNK N   1      42.120  47.222  46.236  0.00  0.00     0.034 C 
HETATM   11  C   UNK N   1      41.419  47.205  47.562  0.00  0.00    -0.084 C 
HETATM   12  C   UNK N   1      43.399  43.409  44.470  0.00  0.00     0.020 C 
HETATM   13  C   UNK N   1      40.526  48.177  47.851  0.00  0.00     0.015 C 
ENDROOT
BRANCH   4  14
HETATM   14  C   UNK N   1      41.150  46.189  49.921  0.00  0.00     0.037 C 
BRANCH  14  15
HETATM   15  C   UNK N   1      42.126  45.730  50.984  0.00  0.00    -0.010 C 
BRANCH  15  16
HETATM   16  C   UNK N   1      41.769  44.886  51.968  0.00  0.00     0.044 C 
HETATM   17  C   UNK N   1      41.198  43.517  51.814  0.00  0.00     0.181 C 
HETATM   18  C   UNK N   1      41.160  43.034  53.303  0.00  0.00     0.215 C 
HETATM   19  O   UNK N   1      41.373  44.151  54.095  0.00  0.00    -0.315 OA
HETATM   20  C   UNK N   1      41.774  45.196  53.370  0.00  0.00     0.291 C 
HETATM   21  O   UNK N   1      42.094  46.267  53.858  0.00  0.00    -0.260 OA
BRANCH  17  22
HETATM   22  O   UNK N   1      39.898  43.668  51.303  0.00  0.00    -0.389 OA
HETATM   23  H   UNK N   1      39.353  44.100  52.010  0.00  0.00     0.210 HD
ENDBRANCH  17  22
ENDBRANCH  15  16
ENDBRANCH  14  15
ENDBRANCH   4  14
BRANCH   3  24
HETATM   24  C   UNK N   1      40.957  42.963  44.805  0.00  0.00     0.176 C 
BRANCH  24  25
HETATM   25  O   UNK N   1      40.840  43.695  43.613  0.00  0.00    -0.400 OA
HETATM   26  H   UNK N   1      40.693  43.032  42.887  0.00  0.00     0.209 HD
ENDBRANCH  24  25
ENDBRANCH   3  24
BRANCH   6  27
HETATM   27  O   UNK N   1      42.720  40.931  45.924  0.00  0.00    -0.395 OA
HETATM   28  H   UNK N   1      43.655  40.750  45.644  0.00  0.00     0.210 HD
ENDBRANCH   6  27
TORSDOF 7
ENDMDL
MODEL 4
REMARK VINA RESULT:      -5.6     13.381     16.479
REMARK  7 active torsions:
REMARK  status: ('A' for Active; 'I' for Inactive)
REMARK    1  A    between atoms: O_1  and  C_11 
REMARK    2  A    between atoms: O_2  and  C_17 
REMARK    3  A    between atoms: O_4  and  C_23 
REMARK    4  A    between atoms: C_8  and  C_17 
REMARK    5  A    between atoms: C_9  and  C_19 
REMARK    6  A    between atoms: C_19  and  C_21 
REMARK    7  A    between atoms: C_21  and  C_22 
ROOT
HETATM    1  C   UNK N   1      28.741  41.572  55.625  0.00  0.00    -0.032 C 
HETATM    2  C   UNK N   1      27.689  42.342  54.696  0.00  0.00     0.007 C 
HETATM    3  C   UNK N   1      27.888  42.217  53.119  0.00  0.00     0.008 C 
HETATM    4  C   UNK N   1      28.528  42.094  57.109  0.00  0.00     0.025 C 
HETATM    5  C   UNK N   1      30.168  41.941  55.129  0.00  0.00     0.012 C 
HETATM    6  C   UNK N   1      29.389  42.539  52.803  0.00  0.00     0.128 C 
HETATM    7  C   UNK N   1      26.229  42.076  55.168  0.00  0.00     0.010 C 
HETATM    8  C   UNK N   1      30.367  41.683  53.626  0.00  0.00     0.033 C 
HETATM    9  C   UNK N   1      28.595  40.018  55.631  0.00  0.00     0.016 C 
HETATM   10  C   UNK N   1      26.032  42.522  56.617  0.00  0.00     0.034 C 
HETATM   11  C   UNK N   1      27.057  41.861  57.491  0.00  0.00    -0.084 C 
HETATM   12  C   UNK N   1      27.027  43.306  52.411  0.00  0.00     0.020 C 
HETATM   13  C   UNK N   1      26.647  41.094  58.525  0.00  0.00     0.015 C 
ENDROOT
BRANCH   4  14
HETATM   14  C   UNK N   1      29.529  41.540  58.166  0.00  0.00     0.037 C 
BRANCH  14  15
HETATM   15  C   UNK N   1      30.329  42.661  58.793  0.00  0.00    -0.010 C 
BRANCH  15  16
HETATM   16  C   UNK N   1      31.663  42.593  58.942  0.00  0.00     0.044 C 
HETATM   17  C   UNK N   1      32.412  41.897  60.028  0.00  0.00     0.181 C 
HETATM   18  C   UNK N   1      33.889  42.064  59.536  0.00  0.00     0.215 C 
HETATM   19  O   UNK N   1      33.871  43.007  58.521  0.00  0.00    -0.315 OA
HETATM   20  C   UNK N   1      32.626  43.281  58.128  0.00  0.00     0.291 C 
HETATM   21  O   UNK N   1      32.366  44.024  57.197  0.00  0.00    -0.260 OA
BRANCH  17  22
HETATM   22  O   UNK N   1      32.192  42.623  61.211  0.00  0.00    -0.389 OA
HETATM   23  H   UNK N   1      33.002  43.171  61.373  0.00  0.00     0.210 HD
ENDBRANCH  17  22
ENDBRANCH  15  16
ENDBRANCH  14  15
ENDBRANCH   4  14
BRANCH   3  24
HETATM   24  C   UNK N   1      27.443  40.839  52.528  0.00  0.00     0.176 C 
BRANCH  24  25
HETATM   25  O   UNK N   1      27.280  40.913  51.136  0.00  0.00    -0.400 OA
HETATM   26  H   UNK N   1      27.876  41.642  50.819  0.00  0.00     0.209 HD
ENDBRANCH  24  25
ENDBRANCH   3  24
BRANCH   6  27
HETATM   27  O   UNK N   1      29.656  42.386  51.431  0.00  0.00    -0.395 OA
HETATM   28  H   UNK N   1      30.303  41.639  51.340  0.00  0.00     0.210 HD
ENDBRANCH   6  27
TORSDOF 7
ENDMDL
MODEL 5
REMARK VINA RESULT:      -5.5      3.663      4.864
REMARK  7 active torsions:
REMARK  status: ('A' for Active; 'I' for Inactive)
REMARK    1  A    between atoms: O_1  and  C_11 
REMARK    2  A    between atoms: O_2  and  C_17 
REMARK    3  A    between atoms: O_4  and  C_23 
REMARK    4  A    between atoms: C_8  and  C_17 
REMARK    5  A    between atoms: C_9  and  C_19 
REMARK    6  A    between atoms: C_19  and  C_21 
REMARK    7  A    between atoms: C_21  and  C_22 
ROOT
HETATM    1  C   UNK N   1      40.985  44.556  49.611  0.00  0.00    -0.032 C 
HETATM    2  C   UNK N   1      41.311  45.335  50.971  0.00  0.00     0.007 C 
HETATM    3  C   UNK N   1      41.254  44.490  52.321  0.00  0.00     0.008 C 
HETATM    4  C   UNK N   1      40.799  45.649  48.475  0.00  0.00     0.025 C 
HETATM    5  C   UNK N   1      39.658  43.773  49.822  0.00  0.00     0.012 C 
HETATM    6  C   UNK N   1      39.899  43.704  52.334  0.00  0.00     0.128 C 
HETATM    7  C   UNK N   1      42.598  46.199  50.823  0.00  0.00     0.010 C 
HETATM    8  C   UNK N   1      39.686  42.866  51.063  0.00  0.00     0.033 C 
HETATM    9  C   UNK N   1      42.091  43.557  49.147  0.00  0.00     0.016 C 
HETATM   10  C   UNK N   1      42.448  47.216  49.691  0.00  0.00     0.034 C 
HETATM   11  C   UNK N   1      42.074  46.506  48.424  0.00  0.00    -0.084 C 
HETATM   12  C   UNK N   1      41.228  45.471  53.532  0.00  0.00     0.020 C 
HETATM   13  C   UNK N   1      42.869  46.630  47.338  0.00  0.00     0.015 C 
ENDROOT
BRANCH   4  14
HETATM   14  C   UNK N   1      40.373  45.103  47.080  0.00  0.00     0.037 C 
BRANCH  14  15
HETATM   15  C   UNK N   1      40.880  43.691  46.875  0.00  0.00    -0.010 C 
BRANCH  15  16
HETATM   16  C   UNK N   1      41.796  43.388  45.939  0.00  0.00     0.044 C 
HETATM   17  C   UNK N   1      42.053  44.116  44.663  0.00  0.00     0.181 C 
HETATM   18  C   UNK N   1      43.317  43.362  44.130  0.00  0.00     0.215 C 
HETATM   19  O   UNK N   1      43.447  42.208  44.887  0.00  0.00    -0.315 OA
HETATM   20  C   UNK N   1      42.638  42.224  45.948  0.00  0.00     0.291 C 
HETATM   21  O   UNK N   1      42.632  41.351  46.798  0.00  0.00    -0.260 OA
BRANCH  17  22
HETATM   22  O   UNK N   1      40.945  43.889  43.829  0.00  0.00    -0.389 OA
HETATM   23  H   UNK N   1      41.222  44.120  42.906  0.00  0.00     0.210 HD
ENDBRANCH  17  22
ENDBRANCH  15  16
ENDBRANCH  14  15
ENDBRANCH   4  14
BRANCH   3  24
HETATM   24  C   UNK N   1      42.484  43.548  52.534  0.00  0.00     0.176 C 
BRANCH  24  25
HETATM   25  O   UNK N   1      42.475  42.983  53.820  0.00  0.00    -0.400 OA
HETATM   26  H   UNK N   1      41.962  42.135  53.752  0.00  0.00     0.209 HD
ENDBRANCH  24  25
ENDBRANCH   3  24
BRANCH   6  27
HETATM   27  O   UNK N   1      39.807  42.883  53.471  0.00  0.00    -0.395 OA
HETATM   28  H   UNK N   1      40.514  43.176  54.102  0.00  0.00     0.210 HD
ENDBRANCH   6  27
TORSDOF 7
ENDMDL
MODEL 6
REMARK VINA RESULT:      -5.5      1.707      7.689
REMARK  7 active torsions:
REMARK  status: ('A' for Active; 'I' for Inactive)
REMARK    1  A    between atoms: O_1  and  C_11 
REMARK    2  A    between atoms: O_2  and  C_17 
REMARK    3  A    between atoms: O_4  and  C_23 
REMARK    4  A    between atoms: C_8  and  C_17 
REMARK    5  A    between atoms: C_9  and  C_19 
REMARK    6  A    between atoms: C_19  and  C_21 
REMARK    7  A    between atoms: C_21  and  C_22 
ROOT
HETATM    1  C   UNK N   1      41.007  46.572  47.242  0.00  0.00    -0.032 C 
HETATM    2  C   UNK N   1      39.814  47.568  46.859  0.00  0.00     0.007 C 
HETATM    3  C   UNK N   1      40.061  48.558  45.636  0.00  0.00     0.008 C 
HETATM    4  C   UNK N   1      40.652  45.930  48.649  0.00  0.00     0.025 C 
HETATM    5  C   UNK N   1      42.309  47.416  47.354  0.00  0.00     0.012 C 
HETATM    6  C   UNK N   1      41.442  49.262  45.864  0.00  0.00     0.128 C 
HETATM    7  C   UNK N   1      38.456  46.809  46.790  0.00  0.00     0.010 C 
HETATM    8  C   UNK N   1      42.586  48.262  46.099  0.00  0.00     0.033 C 
HETATM    9  C   UNK N   1      41.244  45.412  46.224  0.00  0.00     0.016 C 
HETATM   10  C   UNK N   1      38.135  46.137  48.126  0.00  0.00     0.034 C 
HETATM   11  C   UNK N   1      39.276  45.253  48.531  0.00  0.00    -0.084 C 
HETATM   12  C   UNK N   1      38.970  49.672  45.656  0.00  0.00     0.020 C 
HETATM   13  C   UNK N   1      39.051  43.937  48.741  0.00  0.00     0.015 C 
ENDROOT
BRANCH   4  14
HETATM   14  C   UNK N   1      41.742  44.997  49.256  0.00  0.00     0.037 C 
BRANCH  14  15
HETATM   15  C   UNK N   1      42.127  45.451  50.648  0.00  0.00    -0.010 C 
BRANCH  15  16
HETATM   16  C   UNK N   1      41.895  44.697  51.737  0.00  0.00     0.044 C 
HETATM   17  C   UNK N   1      41.284  43.337  51.776  0.00  0.00     0.181 C 
HETATM   18  C   UNK N   1      41.443  42.974  53.290  0.00  0.00     0.215 C 
HETATM   19  O   UNK N   1      41.782  44.143  53.952  0.00  0.00    -0.315 OA
HETATM   20  C   UNK N   1      42.097  45.117  53.096  0.00  0.00     0.291 C 
HETATM   21  O   UNK N   1      42.499  46.213  53.447  0.00  0.00    -0.260 OA
BRANCH  17  22
HETATM   22  O   UNK N   1      39.929  43.484  51.434  0.00  0.00    -0.389 OA
HETATM   23  H   UNK N   1      39.711  44.448  51.509  0.00  0.00     0.210 HD
ENDBRANCH  17  22
ENDBRANCH  15  16
ENDBRANCH  14  15
ENDBRANCH   4  14
BRANCH   3  24
HETATM   24  C   UNK N   1      39.973  47.871  44.233  0.00  0.00     0.176 C 
BRANCH  24  25
HETATM   25  O   UNK N   1      39.483  48.760  43.262  0.00  0.00    -0.400 OA
HETATM   26  H   UNK N   1      39.847  48.454  42.390  0.00  0.00     0.209 HD
ENDBRANCH  24  25
ENDBRANCH   3  24
BRANCH   6  27
HETATM   27  O   UNK N   1      41.758  50.107  44.787  0.00  0.00    -0.395 OA
HETATM   28  H   UNK N   1      41.684  51.040  45.115  0.00  0.00     0.210 HD
ENDBRANCH   6  27
TORSDOF 7
ENDMDL
MODEL 7
REMARK VINA RESULT:      -5.3     13.988     17.592
REMARK  7 active torsions:
REMARK  status: ('A' for Active; 'I' for Inactive)
REMARK    1  A    between atoms: O_1  and  C_11 
REMARK    2  A    between atoms: O_2  and  C_17 
REMARK    3  A    between atoms: O_4  and  C_23 
REMARK    4  A    between atoms: C_8  and  C_17 
REMARK    5  A    between atoms: C_9  and  C_19 
REMARK    6  A    between atoms: C_19  and  C_21 
REMARK    7  A    between atoms: C_21  and  C_22 
ROOT
HETATM    1  C   UNK N   1      27.246  40.179  53.903  0.00  0.00    -0.032 C 
HETATM    2  C   UNK N   1      28.194  41.334  53.330  0.00  0.00     0.007 C 
HETATM    3  C   UNK N   1      27.506  42.459  52.435  0.00  0.00     0.008 C 
HETATM    4  C   UNK N   1      28.188  39.038  54.478  0.00  0.00     0.025 C 
HETATM    5  C   UNK N   1      26.403  39.629  52.718  0.00  0.00     0.012 C 
HETATM    6  C   UNK N   1      26.635  41.738  51.350  0.00  0.00     0.128 C 
HETATM    7  C   UNK N   1      29.123  41.898  54.445  0.00  0.00     0.010 C 
HETATM    8  C   UNK N   1      25.645  40.730  51.957  0.00  0.00     0.033 C 
HETATM    9  C   UNK N   1      26.280  40.631  55.043  0.00  0.00     0.016 C 
HETATM   10  C   UNK N   1      29.992  40.792  55.045  0.00  0.00     0.034 C 
HETATM   11  C   UNK N   1      29.119  39.671  55.525  0.00  0.00    -0.084 C 
HETATM   12  C   UNK N   1      28.613  43.256  51.680  0.00  0.00     0.020 C 
HETATM   13  C   UNK N   1      29.175  39.299  56.823  0.00  0.00     0.015 C 
ENDROOT
BRANCH   4  14
HETATM   14  C   UNK N   1      27.459  37.764  54.998  0.00  0.00     0.037 C 
BRANCH  14  15
HETATM   15  C   UNK N   1      27.987  36.522  54.313  0.00  0.00    -0.010 C 
BRANCH  15  16
HETATM   16  C   UNK N   1      28.843  35.679  54.917  0.00  0.00     0.044 C 
HETATM   17  C   UNK N   1      28.500  34.442  55.677  0.00  0.00     0.181 C 
HETATM   18  C   UNK N   1      29.923  33.861  55.973  0.00  0.00     0.215 C 
HETATM   19  O   UNK N   1      30.836  34.863  55.683  0.00  0.00    -0.315 OA
HETATM   20  C   UNK N   1      30.260  35.877  55.035  0.00  0.00     0.291 C 
HETATM   21  O   UNK N   1      30.879  36.838  54.611  0.00  0.00    -0.260 OA
BRANCH  17  22
HETATM   22  O   UNK N   1      27.868  34.849  56.864  0.00  0.00    -0.389 OA
HETATM   23  H   UNK N   1      26.895  34.885  56.680  0.00  0.00     0.210 HD
ENDBRANCH  17  22
ENDBRANCH  15  16
ENDBRANCH  14  15
ENDBRANCH   4  14
BRANCH   3  24
HETATM   24  C   UNK N   1      26.681  43.506  53.254  0.00  0.00     0.176 C 
BRANCH  24  25
HETATM   25  O   UNK N   1      26.682  44.760  52.622  0.00  0.00    -0.400 OA
HETATM   26  H   UNK N   1      25.868  45.236  52.937  0.00  0.00     0.209 HD
ENDBRANCH  24  25
ENDBRANCH   3  24
BRANCH   6  27
HETATM   27  O   UNK N   1      25.943  42.673  50.561  0.00  0.00    -0.395 OA
HETATM   28  H   UNK N   1      25.008  42.700  50.891  0.00  0.00     0.210 HD
ENDBRANCH   6  27
TORSDOF 7
ENDMDL
MODEL 8
REMARK VINA RESULT:      -5.2     13.830     15.653
REMARK  7 active torsions:
REMARK  status: ('A' for Active; 'I' for Inactive)
REMARK    1  A    between atoms: O_1  and  C_11 
REMARK    2  A    between atoms: O_2  and  C_17 
REMARK    3  A    between atoms: O_4  and  C_23 
REMARK    4  A    between atoms: C_8  and  C_17 
REMARK    5  A    between atoms: C_9  and  C_19 
REMARK    6  A    between atoms: C_19  and  C_21 
REMARK    7  A    between atoms: C_21  and  C_22 
ROOT
HETATM    1  C   UNK N   1      30.243  42.395  57.691  0.00  0.00    -0.032 C 
HETATM    2  C   UNK N   1      30.848  41.342  58.732  0.00  0.00     0.007 C 
HETATM    3  C   UNK N   1      31.929  41.888  59.769  0.00  0.00     0.008 C 
HETATM    4  C   UNK N   1      29.451  41.568  56.591  0.00  0.00     0.025 C 
HETATM    5  C   UNK N   1      31.434  43.150  57.035  0.00  0.00     0.012 C 
HETATM    6  C   UNK N   1      33.005  42.687  58.958  0.00  0.00     0.128 C 
HETATM    7  C   UNK N   1      29.718  40.496  59.389  0.00  0.00     0.010 C 
HETATM    8  C   UNK N   1      32.388  43.778  58.066  0.00  0.00     0.033 C 
HETATM    9  C   UNK N   1      29.263  43.441  58.310  0.00  0.00     0.016 C 
HETATM   10  C   UNK N   1      28.913  39.741  58.331  0.00  0.00     0.034 C 
HETATM   11  C   UNK N   1      28.396  40.709  57.308  0.00  0.00    -0.084 C 
HETATM   12  C   UNK N   1      32.657  40.677  60.427  0.00  0.00     0.020 C 
HETATM   13  C   UNK N   1      27.065  40.794  57.092  0.00  0.00     0.015 C 
ENDROOT
BRANCH   4  14
HETATM   14  C   UNK N   1      28.863  42.404  55.416  0.00  0.00     0.037 C 
BRANCH  14  15
HETATM   15  C   UNK N   1      29.437  41.953  54.091  0.00  0.00    -0.010 C 
BRANCH  15  16
HETATM   16  C   UNK N   1      28.674  41.801  52.994  0.00  0.00     0.044 C 
HETATM   17  C   UNK N   1      28.443  42.803  51.914  0.00  0.00     0.181 C 
HETATM   18  C   UNK N   1      27.613  41.961  50.888  0.00  0.00     0.215 C 
HETATM   19  O   UNK N   1      27.214  40.807  51.543  0.00  0.00    -0.315 OA
HETATM   20  C   UNK N   1      27.843  40.664  52.711  0.00  0.00     0.291 C 
HETATM   21  O   UNK N   1      27.710  39.687  53.429  0.00  0.00    -0.260 OA
BRANCH  17  22
HETATM   22  O   UNK N   1      27.662  43.832  52.467  0.00  0.00    -0.389 OA
HETATM   23  H   UNK N   1      26.738  43.710  52.130  0.00  0.00     0.210 HD
ENDBRANCH  17  22
ENDBRANCH  15  16
ENDBRANCH  14  15
ENDBRANCH   4  14
BRANCH   3  24
HETATM   24  C   UNK N   1      31.321  42.733  60.936  0.00  0.00     0.176 C 
BRANCH  24  25
HETATM   25  O   UNK N   1      32.082  42.600  62.109  0.00  0.00    -0.400 OA
HETATM   26  H   UNK N   1      31.832  43.363  62.695  0.00  0.00     0.209 HD
ENDBRANCH  24  25
ENDBRANCH   3  24
BRANCH   6  27
HETATM   27  O   UNK N   1      33.961  43.255  59.817  0.00  0.00    -0.395 OA
HETATM   28  H   UNK N   1      33.956  42.722  60.654  0.00  0.00     0.210 HD
ENDBRANCH   6  27
TORSDOF 7
ENDMDL
MODEL 9
REMARK VINA RESULT:      -5.1      1.783      3.407
REMARK  7 active torsions:
REMARK  status: ('A' for Active; 'I' for Inactive)
REMARK    1  A    between atoms: O_1  and  C_11 
REMARK    2  A    between atoms: O_2  and  C_17 
REMARK    3  A    between atoms: O_4  and  C_23 
REMARK    4  A    between atoms: C_8  and  C_17 
REMARK    5  A    between atoms: C_9  and  C_19 
REMARK    6  A    between atoms: C_19  and  C_21 
REMARK    7  A    between atoms: C_21  and  C_22 
ROOT
HETATM    1  C   UNK N   1      41.565  45.171  49.608  0.00  0.00    -0.032 C 
HETATM    2  C   UNK N   1      41.712  43.712  50.250  0.00  0.00     0.007 C 
HETATM    3  C   UNK N   1      41.379  43.566  51.801  0.00  0.00     0.008 C 
HETATM    4  C   UNK N   1      42.238  45.123  48.172  0.00  0.00     0.025 C 
HETATM    5  C   UNK N   1      42.329  46.169  50.524  0.00  0.00     0.012 C 
HETATM    6  C   UNK N   1      42.161  44.690  52.564  0.00  0.00     0.128 C 
HETATM    7  C   UNK N   1      41.025  42.638  49.355  0.00  0.00     0.010 C 
HETATM    8  C   UNK N   1      41.888  46.093  51.995  0.00  0.00     0.033 C 
HETATM    9  C   UNK N   1      40.094  45.667  49.439  0.00  0.00     0.016 C 
HETATM   10  C   UNK N   1      41.630  42.627  47.951  0.00  0.00     0.034 C 
HETATM   11  C   UNK N   1      41.560  44.005  47.363  0.00  0.00    -0.084 C 
HETATM   12  C   UNK N   1      41.928  42.199  52.312  0.00  0.00     0.020 C 
HETATM   13  C   UNK N   1      40.903  44.195  46.198  0.00  0.00     0.015 C 
ENDROOT
BRANCH   4  14
HETATM   14  C   UNK N   1      42.293  46.481  47.410  0.00  0.00     0.037 C 
BRANCH  14  15
HETATM   15  C   UNK N   1      40.956  47.188  47.469  0.00  0.00    -0.010 C 
BRANCH  15  16
HETATM   16  C   UNK N   1      40.520  47.981  46.475  0.00  0.00     0.044 C 
HETATM   17  C   UNK N   1      39.110  48.164  46.024  0.00  0.00     0.181 C 
HETATM   18  C   UNK N   1      39.273  49.307  44.966  0.00  0.00     0.215 C 
HETATM   19  O   UNK N   1      40.629  49.422  44.704  0.00  0.00    -0.315 OA
HETATM   20  C   UNK N   1      41.358  48.727  45.579  0.00  0.00     0.291 C 
HETATM   21  O   UNK N   1      42.577  48.738  45.592  0.00  0.00    -0.260 OA
BRANCH  17  22
HETATM   22  O   UNK N   1      38.714  46.964  45.409  0.00  0.00    -0.389 OA
HETATM   23  H   UNK N   1      38.162  47.206  44.623  0.00  0.00     0.210 HD
ENDBRANCH  17  22
ENDBRANCH  15  16
ENDBRANCH  14  15
ENDBRANCH   4  14
BRANCH   3  24
HETATM   24  C   UNK N   1      39.850  43.585  52.129  0.00  0.00     0.176 C 
BRANCH  24  25
HETATM   25  O   UNK N   1      39.571  42.854  53.294  0.00  0.00    -0.400 OA
HETATM   26  H   UNK N   1      40.391  42.332  53.504  0.00  0.00     0.209 HD
ENDBRANCH  24  25
ENDBRANCH   3  24
BRANCH   6  27
HETATM   27  O   UNK N   1      41.864  44.664  53.937  0.00  0.00    -0.395 OA
HETATM   28  H   UNK N   1      41.986  43.729  54.245  0.00  0.00     0.210 HD
ENDBRANCH   6  27
TORSDOF 7
ENDMDL
