MODEL 1
REMARK VINA RESULT:      -6.8      0.000      0.000
REMARK  10 active torsions:
REMARK  status: ('A' for Active; 'I' for Inactive)
REMARK    1  A    between atoms: O_4  and  C_17 
REMARK    2  A    between atoms: O_6  and  C_24 
REMARK    3  A    between atoms: O_6  and  C_28 
REMARK    4  A    between atoms: O_7  and  C_38 
REMARK    5  A    between atoms: N_9  and  C_23 
REMARK    6  A    between atoms: C_14  and  C_20 
REMARK    7  A    between atoms: C_17  and  C_21 
REMARK    8  A    between atoms: C_22  and  C_24 
REMARK    9  A    between atoms: C_25  and  C_32 
REMARK   10  A    between atoms: C_33  and  C_38 
ROOT
HETATM    1 Cl   UNK N   1      32.258  52.759  43.387  0.00  0.00    -0.084 Cl
HETATM    2  C   UNK N   1      32.279  50.112  42.546  0.00  0.00     0.001 A 
HETATM    3  C   UNK N   1      31.667  51.386  42.454  0.00  0.00     0.046 A 
HETATM    4  C   UNK N   1      31.751  49.055  41.788  0.00  0.00     0.015 A 
HETATM    5  C   UNK N   1      30.051  50.518  40.846  0.00  0.00     0.070 A 
HETATM    6  C   UNK N   1      30.561  51.579  41.606  0.00  0.00     0.061 A 
HETATM    7  C   UNK N   1      30.661  49.253  40.951  0.00  0.00     0.037 A 
ENDROOT
BRANCH   5   8
HETATM    8  O   UNK N   1      28.984  50.730  40.021  0.00  0.00    -0.346 OA
BRANCH   8   9
HETATM    9  C   UNK N   1      27.970  51.621  40.326  0.00  0.00     0.219 C 
BRANCH   9  10
HETATM   10  C   UNK N   1      27.808  52.683  39.284  0.00  0.00     0.028 A 
HETATM   11  C   UNK N   1      27.070  52.604  38.117  0.00  0.00     0.091 A 
HETATM   12  O   UNK N   1      27.108  53.775  37.524  0.00  0.00    -0.241 OA
HETATM   13  N   UNK N   1      27.823  54.625  38.212  0.00  0.00    -0.260 N 
HETATM   14  C   UNK N   1      28.275  53.980  39.304  0.00  0.00     0.079 A 
ATOM     15  HN  UNK N   1      28.004  55.597  37.968  1.00  0.00     0.195 HD
BRANCH  11  16
HETATM   16  C   UNK N   1      26.303  51.418  37.599  0.00  0.00     0.046 A 
HETATM   17  C   UNK N   1      24.832  51.815  37.499  0.00  0.00     0.012 A 
HETATM   18  C   UNK N   1      25.268  50.754  38.491  0.00  0.00     0.012 A 
ENDBRANCH  11  16
BRANCH  14  19
HETATM   19  C   UNK N   1      29.033  54.639  40.382  0.00  0.00     0.037 A 
HETATM   20  C   UNK N   1      28.394  55.019  41.578  0.00  0.00     0.048 A 
HETATM   21 Cl   UNK N   1      26.670  54.746  41.814  0.00  0.00    -0.083 Cl
HETATM   22  C   UNK N   1      29.133  55.620  42.603  0.00  0.00     0.025 A 
HETATM   23  C   UNK N   1      30.503  55.846  42.446  0.00  0.00     0.003 A 
HETATM   24  C   UNK N   1      31.142  55.474  41.263  0.00  0.00     0.025 A 
HETATM   25  C   UNK N   1      30.416  54.870  40.229  0.00  0.00     0.048 A 
HETATM   26 Cl   UNK N   1      31.262  54.409  38.755  0.00  0.00    -0.083 Cl
ENDBRANCH  14  19
ENDBRANCH   9  10
ENDBRANCH   8   9
ENDBRANCH   5   8
BRANCH   2  27
HETATM   27  C   UNK N   1      33.458  49.866  43.480  0.00  0.00     0.118 A 
HETATM   28  C   UNK N   1      34.613  50.927  43.466  0.00  0.00     0.169 A 
HETATM   29  N   UNK N   1      35.486  49.838  43.229  0.00  0.00    -0.361 N 
HETATM   30  C   UNK N   1      34.544  48.793  43.091  0.00  0.00     0.169 A 
BRANCH  27  31
HETATM   31  O   UNK N   1      33.030  49.667  44.803  0.00  0.00    -0.382 OA
HETATM   32  H   UNK N   1      32.708  48.729  44.855  0.00  0.00     0.211 HD
ENDBRANCH  27  31
BRANCH  29  33
HETATM   33  C   UNK N   1      36.901  49.805  43.101  0.00  0.00     0.104 A 
HETATM   34  N   UNK N   1      37.487  50.172  41.929  0.00  0.00    -0.352 N 
HETATM   35  C   UNK N   1      38.838  50.171  41.775  0.00  0.00     0.090 A 
ATOM     36  HN  UNK N   1      36.897  50.455  41.147  1.00  0.00     0.166 HD
HETATM   37  C   UNK N   1      39.667  49.794  42.834  0.00  0.00     0.035 A 
HETATM   38  C   UNK N   1      39.099  49.411  44.058  0.00  0.00     0.042 A 
HETATM   39  C   UNK N   1      37.702  49.415  44.187  0.00  0.00     0.066 A 
BRANCH  38  40
HETATM   40  C   UNK N   1      39.961  49.018  45.201  0.00  0.00     0.176 C 
HETATM   41  O   UNK N   1      41.179  49.011  45.081  0.00  0.00    -0.646 OA
BRANCH  40  42
HETATM   42  O   UNK N   1      39.405  48.658  46.379  0.00  0.00    -0.773 OA
HETATM   43  H   UNK N   1      38.448  48.709  46.516  0.00  0.00     0.167 HD
ENDBRANCH  40  42
ENDBRANCH  38  40
ENDBRANCH  29  33
ENDBRANCH   2  27
TORSDOF 10
ENDMDL
MODEL 2
REMARK VINA RESULT:      -6.6      5.992     13.946
REMARK  10 active torsions:
REMARK  status: ('A' for Active; 'I' for Inactive)
REMARK    1  A    between atoms: O_4  and  C_17 
REMARK    2  A    between atoms: O_6  and  C_24 
REMARK    3  A    between atoms: O_6  and  C_28 
REMARK    4  A    between atoms: O_7  and  C_38 
REMARK    5  A    between atoms: N_9  and  C_23 
REMARK    6  A    between atoms: C_14  and  C_20 
REMARK    7  A    between atoms: C_17  and  C_21 
REMARK    8  A    between atoms: C_22  and  C_24 
REMARK    9  A    between atoms: C_25  and  C_32 
REMARK   10  A    between atoms: C_33  and  C_38 
ROOT
HETATM    1 Cl   UNK N   1      40.401  50.862  43.878  0.00  0.00    -0.084 Cl
HETATM    2  C   UNK N   1      38.640  48.763  44.335  0.00  0.00     0.001 A 
HETATM    3  C   UNK N   1      39.879  49.370  44.657  0.00  0.00     0.046 A 
HETATM    4  C   UNK N   1      38.289  47.566  44.980  0.00  0.00     0.015 A 
HETATM    5  C   UNK N   1      40.359  47.593  46.258  0.00  0.00     0.070 A 
HETATM    6  C   UNK N   1      40.726  48.783  45.614  0.00  0.00     0.061 A 
HETATM    7  C   UNK N   1      39.129  46.993  45.926  0.00  0.00     0.037 A 
ENDROOT
BRANCH   5   8
HETATM    8  O   UNK N   1      41.190  47.047  47.193  0.00  0.00    -0.346 OA
BRANCH   8   9
HETATM    9  C   UNK N   1      40.728  46.276  48.245  0.00  0.00     0.219 C 
BRANCH   9  10
HETATM   10  C   UNK N   1      41.320  44.902  48.253  0.00  0.00     0.028 A 
HETATM   11  C   UNK N   1      41.757  44.173  47.162  0.00  0.00     0.091 A 
HETATM   12  O   UNK N   1      42.294  43.057  47.599  0.00  0.00    -0.241 OA
HETATM   13  N   UNK N   1      42.239  42.991  48.903  0.00  0.00    -0.260 N 
HETATM   14  C   UNK N   1      41.638  44.113  49.339  0.00  0.00     0.079 A 
ATOM     15  HN  UNK N   1      42.588  42.229  49.483  1.00  0.00     0.195 HD
BRANCH  11  16
HETATM   16  C   UNK N   1      41.692  44.571  45.713  0.00  0.00     0.046 A 
HETATM   17  C   UNK N   1      40.730  43.619  45.005  0.00  0.00     0.012 A 
HETATM   18  C   UNK N   1      42.206  43.610  44.654  0.00  0.00     0.012 A 
ENDBRANCH  11  16
BRANCH  14  19
HETATM   19  C   UNK N   1      41.488  44.455  50.764  0.00  0.00     0.037 A 
HETATM   20  C   UNK N   1      40.573  43.757  51.576  0.00  0.00     0.048 A 
HETATM   21 Cl   UNK N   1      39.562  42.478  50.913  0.00  0.00    -0.083 Cl
HETATM   22  C   UNK N   1      40.463  44.076  52.935  0.00  0.00     0.025 A 
HETATM   23  C   UNK N   1      41.256  45.084  53.490  0.00  0.00     0.003 A 
HETATM   24  C   UNK N   1      42.162  45.780  52.690  0.00  0.00     0.025 A 
HETATM   25  C   UNK N   1      42.286  45.472  51.331  0.00  0.00     0.048 A 
HETATM   26 Cl   UNK N   1      43.448  46.369  50.358  0.00  0.00    -0.083 Cl
ENDBRANCH  14  19
ENDBRANCH   9  10
ENDBRANCH   8   9
ENDBRANCH   5   8
BRANCH   2  27
HETATM   27  C   UNK N   1      37.718  49.359  43.279  0.00  0.00     0.118 A 
HETATM   28  C   UNK N   1      37.088  50.762  43.591  0.00  0.00     0.169 A 
HETATM   29  N   UNK N   1      35.837  50.156  43.324  0.00  0.00    -0.361 N 
HETATM   30  C   UNK N   1      36.245  48.816  43.140  0.00  0.00     0.169 A 
BRANCH  27  31
HETATM   31  O   UNK N   1      38.340  49.402  42.020  0.00  0.00    -0.382 OA
HETATM   32  H   UNK N   1      38.766  48.514  41.888  0.00  0.00     0.211 HD
ENDBRANCH  27  31
BRANCH  29  33
HETATM   33  C   UNK N   1      34.531  50.716  43.307  0.00  0.00     0.104 A 
HETATM   34  N   UNK N   1      33.560  50.153  42.537  0.00  0.00    -0.352 N 
HETATM   35  C   UNK N   1      32.294  50.648  42.508  0.00  0.00     0.090 A 
ATOM     36  HN  UNK N   1      33.788  49.338  41.967  1.00  0.00     0.166 HD
HETATM   37  C   UNK N   1      31.955  51.759  43.285  0.00  0.00     0.035 A 
HETATM   38  C   UNK N   1      32.929  52.364  44.092  0.00  0.00     0.042 A 
HETATM   39  C   UNK N   1      34.228  51.836  44.098  0.00  0.00     0.066 A 
BRANCH  38  40
HETATM   40  C   UNK N   1      32.588  53.538  44.935  0.00  0.00     0.176 C 
HETATM   41  O   UNK N   1      33.436  54.384  45.185  0.00  0.00    -0.646 OA
BRANCH  40  42
HETATM   42  O   UNK N   1      31.342  53.675  45.438  0.00  0.00    -0.773 OA
HETATM   43  H   UNK N   1      30.940  52.976  45.976  0.00  0.00     0.167 HD
ENDBRANCH  40  42
ENDBRANCH  38  40
ENDBRANCH  29  33
ENDBRANCH   2  27
TORSDOF 10
ENDMDL
MODEL 3
REMARK VINA RESULT:      -6.4      1.611      3.958
REMARK  10 active torsions:
REMARK  status: ('A' for Active; 'I' for Inactive)
REMARK    1  A    between atoms: O_4  and  C_17 
REMARK    2  A    between atoms: O_6  and  C_24 
REMARK    3  A    between atoms: O_6  and  C_28 
REMARK    4  A    between atoms: O_7  and  C_38 
REMARK    5  A    between atoms: N_9  and  C_23 
REMARK    6  A    between atoms: C_14  and  C_20 
REMARK    7  A    between atoms: C_17  and  C_21 
REMARK    8  A    between atoms: C_22  and  C_24 
REMARK    9  A    between atoms: C_25  and  C_32 
REMARK   10  A    between atoms: C_33  and  C_38 
ROOT
HETATM    1 Cl   UNK N   1      32.478  52.815  43.292  0.00  0.00    -0.084 Cl
HETATM    2  C   UNK N   1      32.267  50.165  42.487  0.00  0.00     0.001 A 
HETATM    3  C   UNK N   1      31.773  51.488  42.373  0.00  0.00     0.046 A 
HETATM    4  C   UNK N   1      31.651  49.149  41.739  0.00  0.00     0.015 A 
HETATM    5  C   UNK N   1      30.096  50.746  40.764  0.00  0.00     0.070 A 
HETATM    6  C   UNK N   1      30.695  51.768  41.513  0.00  0.00     0.061 A 
HETATM    7  C   UNK N   1      30.589  49.432  40.890  0.00  0.00     0.037 A 
ENDROOT
BRANCH   5   8
HETATM    8  O   UNK N   1      29.059  51.041  39.927  0.00  0.00    -0.346 OA
BRANCH   8   9
HETATM    9  C   UNK N   1      28.844  52.313  39.424  0.00  0.00     0.219 C 
BRANCH   9  10
HETATM   10  C   UNK N   1      27.842  53.085  40.223  0.00  0.00     0.028 A 
HETATM   11  C   UNK N   1      28.081  54.186  41.025  0.00  0.00     0.091 A 
HETATM   12  O   UNK N   1      26.929  54.626  41.478  0.00  0.00    -0.241 OA
HETATM   13  N   UNK N   1      25.943  53.891  41.038  0.00  0.00    -0.260 N 
HETATM   14  C   UNK N   1      26.473  52.925  40.264  0.00  0.00     0.079 A 
ATOM     15  HN  UNK N   1      24.953  54.024  41.242  1.00  0.00     0.195 HD
BRANCH  11  16
HETATM   16  C   UNK N   1      29.408  54.831  41.319  0.00  0.00     0.046 A 
HETATM   17  C   UNK N   1      29.488  55.081  42.824  0.00  0.00     0.012 A 
HETATM   18  C   UNK N   1      29.441  56.251  41.859  0.00  0.00     0.012 A 
ENDBRANCH  11  16
BRANCH  14  19
HETATM   19  C   UNK N   1      25.664  51.960  39.498  0.00  0.00     0.037 A 
HETATM   20  C   UNK N   1      25.168  52.294  38.223  0.00  0.00     0.048 A 
HETATM   21 Cl   UNK N   1      25.472  53.876  37.515  0.00  0.00    -0.083 Cl
HETATM   22  C   UNK N   1      24.423  51.356  37.498  0.00  0.00     0.025 A 
HETATM   23  C   UNK N   1      24.169  50.091  38.033  0.00  0.00     0.003 A 
HETATM   24  C   UNK N   1      24.656  49.755  39.297  0.00  0.00     0.025 A 
HETATM   25  C   UNK N   1      25.403  50.681  40.033  0.00  0.00     0.048 A 
HETATM   26 Cl   UNK N   1      26.006  50.215  41.621  0.00  0.00    -0.083 Cl
ENDBRANCH  14  19
ENDBRANCH   9  10
ENDBRANCH   8   9
ENDBRANCH   5   8
BRANCH   2  27
HETATM   27  C   UNK N   1      33.412  49.828  43.434  0.00  0.00     0.118 A 
HETATM   28  C   UNK N   1      34.601  50.848  43.509  0.00  0.00     0.169 A 
HETATM   29  N   UNK N   1      35.444  49.745  43.231  0.00  0.00    -0.361 N 
HETATM   30  C   UNK N   1      34.473  48.742  43.011  0.00  0.00     0.169 A 
BRANCH  27  31
HETATM   31  O   UNK N   1      32.943  49.569  44.733  0.00  0.00    -0.382 OA
HETATM   32  H   UNK N   1      33.235  48.646  44.957  0.00  0.00     0.211 HD
ENDBRANCH  27  31
BRANCH  29  33
HETATM   33  C   UNK N   1      36.860  49.671  43.137  0.00  0.00     0.104 A 
HETATM   34  N   UNK N   1      37.502  50.255  42.089  0.00  0.00    -0.352 N 
HETATM   35  C   UNK N   1      38.857  50.221  41.973  0.00  0.00     0.090 A 
ATOM     36  HN  UNK N   1      36.954  50.729  41.371  1.00  0.00     0.166 HD
HETATM   37  C   UNK N   1      39.631  49.583  42.946  0.00  0.00     0.035 A 
HETATM   38  C   UNK N   1      39.003  48.973  44.042  0.00  0.00     0.042 A 
HETATM   39  C   UNK N   1      37.604  49.017  44.132  0.00  0.00     0.066 A 
BRANCH  38  40
HETATM   40  C   UNK N   1      39.806  48.300  45.094  0.00  0.00     0.176 C 
HETATM   41  O   UNK N   1      40.925  48.710  45.372  0.00  0.00    -0.646 OA
BRANCH  40  42
HETATM   42  O   UNK N   1      39.309  47.226  45.745  0.00  0.00    -0.773 OA
HETATM   43  H   UNK N   1      39.855  46.441  45.904  0.00  0.00     0.167 HD
ENDBRANCH  40  42
ENDBRANCH  38  40
ENDBRANCH  29  33
ENDBRANCH   2  27
TORSDOF 10
ENDMDL
MODEL 4
REMARK VINA RESULT:      -6.4     14.253     18.048
REMARK  10 active torsions:
REMARK  status: ('A' for Active; 'I' for Inactive)
REMARK    1  A    between atoms: O_4  and  C_17 
REMARK    2  A    between atoms: O_6  and  C_24 
REMARK    3  A    between atoms: O_6  and  C_28 
REMARK    4  A    between atoms: O_7  and  C_38 
REMARK    5  A    between atoms: N_9  and  C_23 
REMARK    6  A    between atoms: C_14  and  C_20 
REMARK    7  A    between atoms: C_17  and  C_21 
REMARK    8  A    between atoms: C_22  and  C_24 
REMARK    9  A    between atoms: C_25  and  C_32 
REMARK   10  A    between atoms: C_33  and  C_38 
ROOT
HETATM    1 Cl   UNK N   1      25.113  44.564  51.899  0.00  0.00    -0.084 Cl
HETATM    2  C   UNK N   1      26.191  42.160  51.022  0.00  0.00     0.001 A 
HETATM    3  C   UNK N   1      26.346  43.308  51.837  0.00  0.00     0.046 A 
HETATM    4  C   UNK N   1      27.218  41.202  51.006  0.00  0.00     0.015 A 
HETATM    5  C   UNK N   1      28.518  42.500  52.601  0.00  0.00     0.070 A 
HETATM    6  C   UNK N   1      27.504  43.469  52.619  0.00  0.00     0.061 A 
HETATM    7  C   UNK N   1      28.358  41.365  51.782  0.00  0.00     0.037 A 
ENDROOT
BRANCH   5   8
HETATM    8  O   UNK N   1      29.628  42.669  53.377  0.00  0.00    -0.346 OA
BRANCH   8   9
HETATM    9  C   UNK N   1      30.242  41.622  54.041  0.00  0.00     0.219 C 
BRANCH   9  10
HETATM   10  C   UNK N   1      29.692  41.415  55.418  0.00  0.00     0.028 A 
HETATM   11  C   UNK N   1      30.000  42.134  56.558  0.00  0.00     0.091 A 
HETATM   12  O   UNK N   1      29.238  41.702  57.537  0.00  0.00    -0.241 OA
HETATM   13  N   UNK N   1      28.451  40.743  57.128  0.00  0.00    -0.260 N 
HETATM   14  C   UNK N   1      28.710  40.536  55.824  0.00  0.00     0.079 A 
ATOM     15  HN  UNK N   1      27.766  40.243  57.693  1.00  0.00     0.195 HD
BRANCH  11  16
HETATM   16  C   UNK N   1      30.993  43.256  56.691  0.00  0.00     0.046 A 
HETATM   17  C   UNK N   1      31.964  42.896  57.813  0.00  0.00     0.012 A 
HETATM   18  C   UNK N   1      31.023  44.076  57.969  0.00  0.00     0.012 A 
ENDBRANCH  11  16
BRANCH  14  19
HETATM   19  C   UNK N   1      27.944  39.602  54.980  0.00  0.00     0.037 A 
HETATM   20  C   UNK N   1      26.644  39.927  54.549  0.00  0.00     0.048 A 
HETATM   21 Cl   UNK N   1      25.881  41.442  55.024  0.00  0.00    -0.083 Cl
HETATM   22  C   UNK N   1      25.940  39.040  53.726  0.00  0.00     0.025 A 
HETATM   23  C   UNK N   1      26.521  37.834  53.330  0.00  0.00     0.003 A 
HETATM   24  C   UNK N   1      27.808  37.504  53.755  0.00  0.00     0.025 A 
HETATM   25  C   UNK N   1      28.525  38.381  54.577  0.00  0.00     0.048 A 
HETATM   26 Cl   UNK N   1      30.151  37.931  55.085  0.00  0.00    -0.083 Cl
ENDBRANCH  14  19
ENDBRANCH   9  10
ENDBRANCH   8   9
ENDBRANCH   5   8
BRANCH   2  27
HETATM   27  C   UNK N   1      24.962  41.975  50.141  0.00  0.00     0.118 A 
HETATM   28  C   UNK N   1      24.914  40.691  49.241  0.00  0.00     0.169 A 
HETATM   29  N   UNK N   1      24.685  41.572  48.157  0.00  0.00    -0.361 N 
HETATM   30  C   UNK N   1      24.827  42.815  48.814  0.00  0.00     0.169 A 
BRANCH  27  31
HETATM   31  O   UNK N   1      23.777  42.059  50.891  0.00  0.00    -0.382 OA
HETATM   32  H   UNK N   1      23.029  41.981  50.242  0.00  0.00     0.211 HD
ENDBRANCH  27  31
BRANCH  29  33
HETATM   33  C   UNK N   1      24.444  41.296  46.784  0.00  0.00     0.104 A 
HETATM   34  N   UNK N   1      23.168  41.237  46.316  0.00  0.00    -0.352 N 
HETATM   35  C   UNK N   1      22.898  40.993  45.006  0.00  0.00     0.090 A 
ATOM     36  HN  UNK N   1      22.394  41.380  46.965  1.00  0.00     0.166 HD
HETATM   37  C   UNK N   1      23.941  40.801  44.096  0.00  0.00     0.035 A 
HETATM   38  C   UNK N   1      25.270  40.857  44.542  0.00  0.00     0.042 A 
HETATM   39  C   UNK N   1      25.519  41.103  45.900  0.00  0.00     0.066 A 
BRANCH  38  40
HETATM   40  C   UNK N   1      26.394  40.667  43.591  0.00  0.00     0.176 C 
HETATM   41  O   UNK N   1      26.425  39.686  42.861  0.00  0.00    -0.646 OA
BRANCH  40  42
HETATM   42  O   UNK N   1      27.394  41.573  43.532  0.00  0.00    -0.773 OA
HETATM   43  H   UNK N   1      28.189  41.407  43.005  0.00  0.00     0.167 HD
ENDBRANCH  40  42
ENDBRANCH  38  40
ENDBRANCH  29  33
ENDBRANCH   2  27
TORSDOF 10
ENDMDL
MODEL 5
REMARK VINA RESULT:      -6.2     15.916     18.275
REMARK  10 active torsions:
REMARK  status: ('A' for Active; 'I' for Inactive)
REMARK    1  A    between atoms: O_4  and  C_17 
REMARK    2  A    between atoms: O_6  and  C_24 
REMARK    3  A    between atoms: O_6  and  C_28 
REMARK    4  A    between atoms: O_7  and  C_38 
REMARK    5  A    between atoms: N_9  and  C_23 
REMARK    6  A    between atoms: C_14  and  C_20 
REMARK    7  A    between atoms: C_17  and  C_21 
REMARK    8  A    between atoms: C_22  and  C_24 
REMARK    9  A    between atoms: C_25  and  C_32 
REMARK   10  A    between atoms: C_33  and  C_38 
ROOT
HETATM    1 Cl   UNK N   1      28.358  43.867  60.720  0.00  0.00    -0.084 Cl
HETATM    2  C   UNK N   1      29.815  44.750  58.527  0.00  0.00     0.001 A 
HETATM    3  C   UNK N   1      29.109  45.096  59.706  0.00  0.00     0.046 A 
HETATM    4  C   UNK N   1      30.378  45.778  57.754  0.00  0.00     0.015 A 
HETATM    5  C   UNK N   1      29.569  47.459  59.315  0.00  0.00     0.070 A 
HETATM    6  C   UNK N   1      28.993  46.444  60.091  0.00  0.00     0.061 A 
HETATM    7  C   UNK N   1      30.262  47.107  58.140  0.00  0.00     0.037 A 
ENDROOT
BRANCH   5   8
HETATM    8  O   UNK N   1      29.455  48.760  59.713  0.00  0.00    -0.346 OA
BRANCH   8   9
HETATM    9  C   UNK N   1      29.885  49.820  58.935  0.00  0.00     0.219 C 
BRANCH   9  10
HETATM   10  C   UNK N   1      28.811  50.345  58.034  0.00  0.00     0.028 A 
HETATM   11  C   UNK N   1      28.846  50.434  56.654  0.00  0.00     0.091 A 
HETATM   12  O   UNK N   1      27.676  50.860  56.238  0.00  0.00    -0.241 OA
HETATM   13  N   UNK N   1      26.868  51.066  57.244  0.00  0.00    -0.260 N 
HETATM   14  C   UNK N   1      27.541  50.763  58.370  0.00  0.00     0.079 A 
ATOM     15  HN  UNK N   1      25.906  51.395  57.187  1.00  0.00     0.195 HD
BRANCH  11  16
HETATM   16  C   UNK N   1      29.988  50.072  55.744  0.00  0.00     0.046 A 
HETATM   17  C   UNK N   1      30.893  51.295  55.613  0.00  0.00     0.012 A 
HETATM   18  C   UNK N   1      30.128  50.780  54.408  0.00  0.00     0.012 A 
ENDBRANCH  11  16
BRANCH  14  19
HETATM   19  C   UNK N   1      26.927  50.766  59.710  0.00  0.00     0.037 A 
HETATM   20  C   UNK N   1      27.114  51.856  60.581  0.00  0.00     0.048 A 
HETATM   21 Cl   UNK N   1      28.104  53.235  60.112  0.00  0.00    -0.083 Cl
HETATM   22  C   UNK N   1      26.503  51.855  61.840  0.00  0.00     0.025 A 
HETATM   23  C   UNK N   1      25.708  50.778  62.238  0.00  0.00     0.003 A 
HETATM   24  C   UNK N   1      25.521  49.693  61.380  0.00  0.00     0.025 A 
HETATM   25  C   UNK N   1      26.124  49.680  60.118  0.00  0.00     0.048 A 
HETATM   26 Cl   UNK N   1      25.856  48.295  59.063  0.00  0.00    -0.083 Cl
ENDBRANCH  14  19
ENDBRANCH   9  10
ENDBRANCH   8   9
ENDBRANCH   5   8
BRANCH   2  27
HETATM   27  C   UNK N   1      29.930  43.301  58.069  0.00  0.00     0.118 A 
HETATM   28  C   UNK N   1      30.480  43.051  56.622  0.00  0.00     0.169 A 
HETATM   29  N   UNK N   1      29.309  42.284  56.409  0.00  0.00    -0.361 N 
HETATM   30  C   UNK N   1      28.632  42.524  57.627  0.00  0.00     0.169 A 
BRANCH  27  31
HETATM   31  O   UNK N   1      30.668  42.532  58.984  0.00  0.00    -0.382 OA
HETATM   32  H   UNK N   1      31.530  42.318  58.538  0.00  0.00     0.211 HD
ENDBRANCH  27  31
BRANCH  29  33
HETATM   33  C   UNK N   1      28.895  41.535  55.275  0.00  0.00     0.104 A 
HETATM   34  N   UNK N   1      28.459  40.255  55.428  0.00  0.00    -0.352 N 
HETATM   35  C   UNK N   1      28.037  39.512  54.369  0.00  0.00     0.090 A 
ATOM     36  HN  UNK N   1      28.448  39.842  56.360  1.00  0.00     0.166 HD
HETATM   37  C   UNK N   1      28.036  40.058  53.083  0.00  0.00     0.035 A 
HETATM   38  C   UNK N   1      28.476  41.375  52.888  0.00  0.00     0.042 A 
HETATM   39  C   UNK N   1      28.912  42.116  53.997  0.00  0.00     0.066 A 
BRANCH  38  40
HETATM   40  C   UNK N   1      28.472  41.980  51.531  0.00  0.00     0.176 C 
HETATM   41  O   UNK N   1      28.715  43.170  51.386  0.00  0.00    -0.646 OA
BRANCH  40  42
HETATM   42  O   UNK N   1      28.190  41.221  50.450  0.00  0.00    -0.773 OA
HETATM   43  H   UNK N   1      28.550  40.326  50.360  0.00  0.00     0.167 HD
ENDBRANCH  40  42
ENDBRANCH  38  40
ENDBRANCH  29  33
ENDBRANCH   2  27
TORSDOF 10
ENDMDL
MODEL 6
REMARK VINA RESULT:      -6.1     14.516     18.157
REMARK  10 active torsions:
REMARK  status: ('A' for Active; 'I' for Inactive)
REMARK    1  A    between atoms: O_4  and  C_17 
REMARK    2  A    between atoms: O_6  and  C_24 
REMARK    3  A    between atoms: O_6  and  C_28 
REMARK    4  A    between atoms: O_7  and  C_38 
REMARK    5  A    between atoms: N_9  and  C_23 
REMARK    6  A    between atoms: C_14  and  C_20 
REMARK    7  A    between atoms: C_17  and  C_21 
REMARK    8  A    between atoms: C_22  and  C_24 
REMARK    9  A    between atoms: C_25  and  C_32 
REMARK   10  A    between atoms: C_33  and  C_38 
ROOT
HETATM    1 Cl   UNK N   1      25.691  39.367  52.176  0.00  0.00    -0.084 Cl
HETATM    2  C   UNK N   1      26.469  41.883  51.294  0.00  0.00     0.001 A 
HETATM    3  C   UNK N   1      26.741  40.781  52.142  0.00  0.00     0.046 A 
HETATM    4  C   UNK N   1      27.337  42.987  51.326  0.00  0.00     0.015 A 
HETATM    5  C   UNK N   1      28.730  41.903  53.000  0.00  0.00     0.070 A 
HETATM    6  C   UNK N   1      27.866  40.799  52.986  0.00  0.00     0.061 A 
HETATM    7  C   UNK N   1      28.448  42.997  52.159  0.00  0.00     0.037 A 
ENDROOT
BRANCH   5   8
HETATM    8  O   UNK N   1      29.823  41.895  53.817  0.00  0.00    -0.346 OA
BRANCH   8   9
HETATM    9  C   UNK N   1      29.865  41.179  55.001  0.00  0.00     0.219 C 
BRANCH   9  10
HETATM   10  C   UNK N   1      29.403  41.985  56.175  0.00  0.00     0.028 A 
HETATM   11  C   UNK N   1      30.121  42.947  56.863  0.00  0.00     0.091 A 
HETATM   12  O   UNK N   1      29.331  43.484  57.765  0.00  0.00    -0.241 OA
HETATM   13  N   UNK N   1      28.143  42.943  57.727  0.00  0.00    -0.260 N 
HETATM   14  C   UNK N   1      28.155  42.008  56.759  0.00  0.00     0.079 A 
ATOM     15  HN  UNK N   1      27.351  43.185  58.322  1.00  0.00     0.195 HD
BRANCH  11  16
HETATM   16  C   UNK N   1      31.544  43.370  56.624  0.00  0.00     0.046 A 
HETATM   17  C   UNK N   1      32.318  43.180  57.928  0.00  0.00     0.012 A 
HETATM   18  C   UNK N   1      32.097  44.573  57.368  0.00  0.00     0.012 A 
ENDBRANCH  11  16
BRANCH  14  19
HETATM   19  C   UNK N   1      26.960  41.253  56.342  0.00  0.00     0.037 A 
HETATM   20  C   UNK N   1      26.797  39.906  56.717  0.00  0.00     0.048 A 
HETATM   21 Cl   UNK N   1      28.022  39.072  57.668  0.00  0.00    -0.083 Cl
HETATM   22  C   UNK N   1      25.644  39.211  56.334  0.00  0.00     0.025 A 
HETATM   23  C   UNK N   1      24.653  39.847  55.583  0.00  0.00     0.003 A 
HETATM   24  C   UNK N   1      24.809  41.182  55.207  0.00  0.00     0.025 A 
HETATM   25  C   UNK N   1      25.956  41.890  55.583  0.00  0.00     0.048 A 
HETATM   26 Cl   UNK N   1      26.111  43.576  55.094  0.00  0.00    -0.083 Cl
ENDBRANCH  14  19
ENDBRANCH   9  10
ENDBRANCH   8   9
ENDBRANCH   5   8
BRANCH   2  27
HETATM   27  C   UNK N   1      25.240  41.904  50.394  0.00  0.00     0.118 A 
HETATM   28  C   UNK N   1      25.004  40.652  49.478  0.00  0.00     0.169 A 
HETATM   29  N   UNK N   1      24.934  41.569  48.402  0.00  0.00    -0.361 N 
HETATM   30  C   UNK N   1      25.260  42.767  49.076  0.00  0.00     0.169 A 
BRANCH  27  31
HETATM   31  O   UNK N   1      24.072  42.166  51.129  0.00  0.00    -0.382 OA
HETATM   32  H   UNK N   1      23.310  41.934  50.535  0.00  0.00     0.211 HD
ENDBRANCH  27  31
BRANCH  29  33
HETATM   33  C   UNK N   1      24.673  41.348  47.022  0.00  0.00     0.104 A 
HETATM   34  N   UNK N   1      23.392  41.336  46.566  0.00  0.00    -0.352 N 
HETATM   35  C   UNK N   1      23.103  41.146  45.250  0.00  0.00     0.090 A 
ATOM     36  HN  UNK N   1      22.627  41.475  47.227  1.00  0.00     0.166 HD
HETATM   37  C   UNK N   1      24.133  40.962  44.323  0.00  0.00     0.035 A 
HETATM   38  C   UNK N   1      25.467  40.969  44.757  0.00  0.00     0.042 A 
HETATM   39  C   UNK N   1      25.734  41.161  46.121  0.00  0.00     0.066 A 
BRANCH  38  40
HETATM   40  C   UNK N   1      26.577  40.788  43.789  0.00  0.00     0.176 C 
HETATM   41  O   UNK N   1      26.594  39.815  43.046  0.00  0.00    -0.646 OA
BRANCH  40  42
HETATM   42  O   UNK N   1      27.580  41.690  43.728  0.00  0.00    -0.773 OA
HETATM   43  H   UNK N   1      28.214  41.783  44.454  0.00  0.00     0.167 HD
ENDBRANCH  40  42
ENDBRANCH  38  40
ENDBRANCH  29  33
ENDBRANCH   2  27
TORSDOF 10
ENDMDL
MODEL 7
REMARK VINA RESULT:      -6.1     16.622     19.693
REMARK  10 active torsions:
REMARK  status: ('A' for Active; 'I' for Inactive)
REMARK    1  A    between atoms: O_4  and  C_17 
REMARK    2  A    between atoms: O_6  and  C_24 
REMARK    3  A    between atoms: O_6  and  C_28 
REMARK    4  A    between atoms: O_7  and  C_38 
REMARK    5  A    between atoms: N_9  and  C_23 
REMARK    6  A    between atoms: C_14  and  C_20 
REMARK    7  A    between atoms: C_17  and  C_21 
REMARK    8  A    between atoms: C_22  and  C_24 
REMARK    9  A    between atoms: C_25  and  C_32 
REMARK   10  A    between atoms: C_33  and  C_38 
ROOT
HETATM    1 Cl   UNK N   1      32.268  43.192  57.457  0.00  0.00    -0.084 Cl
HETATM    2  C   UNK N   1      29.673  43.826  58.217  0.00  0.00     0.001 A 
HETATM    3  C   UNK N   1      30.543  42.876  57.628  0.00  0.00     0.046 A 
HETATM    4  C   UNK N   1      28.306  43.520  58.310  0.00  0.00     0.015 A 
HETATM    5  C   UNK N   1      28.673  41.351  57.272  0.00  0.00     0.070 A 
HETATM    6  C   UNK N   1      30.039  41.648  57.163  0.00  0.00     0.061 A 
HETATM    7  C   UNK N   1      27.814  42.305  57.851  0.00  0.00     0.037 A 
ENDROOT
BRANCH   5   8
HETATM    8  O   UNK N   1      28.206  40.149  56.825  0.00  0.00    -0.346 OA
BRANCH   8   9
HETATM    9  C   UNK N   1      28.999  39.250  56.133  0.00  0.00     0.219 C 
BRANCH   9  10
HETATM   10  C   UNK N   1      28.363  38.785  54.861  0.00  0.00     0.028 A 
HETATM   11  C   UNK N   1      27.944  39.568  53.800  0.00  0.00     0.091 A 
HETATM   12  O   UNK N   1      27.526  38.774  52.840  0.00  0.00    -0.241 OA
HETATM   13  N   UNK N   1      27.633  37.520  53.191  0.00  0.00    -0.260 N 
HETATM   14  C   UNK N   1      28.142  37.491  54.437  0.00  0.00     0.079 A 
ATOM     15  HN  UNK N   1      27.379  36.712  52.624  1.00  0.00     0.195 HD
BRANCH  11  16
HETATM   16  C   UNK N   1      27.984  41.068  53.701  0.00  0.00     0.046 A 
HETATM   17  C   UNK N   1      28.461  41.435  52.297  0.00  0.00     0.012 A 
HETATM   18  C   UNK N   1      29.319  41.765  53.504  0.00  0.00     0.012 A 
ENDBRANCH  11  16
BRANCH  14  19
HETATM   19  C   UNK N   1      28.509  36.248  55.137  0.00  0.00     0.037 A 
HETATM   20  C   UNK N   1      27.528  35.477  55.791  0.00  0.00     0.048 A 
HETATM   21 Cl   UNK N   1      25.842  35.985  55.817  0.00  0.00    -0.083 Cl
HETATM   22  C   UNK N   1      27.889  34.285  56.429  0.00  0.00     0.025 A 
HETATM   23  C   UNK N   1      29.218  33.855  56.420  0.00  0.00     0.003 A 
HETATM   24  C   UNK N   1      30.195  34.615  55.777  0.00  0.00     0.025 A 
HETATM   25  C   UNK N   1      29.850  35.809  55.133  0.00  0.00     0.048 A 
HETATM   26 Cl   UNK N   1      31.112  36.734  54.325  0.00  0.00    -0.083 Cl
ENDBRANCH  14  19
ENDBRANCH   9  10
ENDBRANCH   8   9
ENDBRANCH   5   8
BRANCH   2  27
HETATM   27  C   UNK N   1      30.187  45.177  58.700  0.00  0.00     0.118 A 
HETATM   28  C   UNK N   1      29.144  46.344  58.799  0.00  0.00     0.169 A 
HETATM   29  N   UNK N   1      30.039  47.088  57.992  0.00  0.00    -0.361 N 
HETATM   30  C   UNK N   1      31.003  46.094  57.712  0.00  0.00     0.169 A 
BRANCH  27  31
HETATM   31  O   UNK N   1      30.865  45.058  59.925  0.00  0.00    -0.382 OA
HETATM   32  H   UNK N   1      31.774  45.431  59.779  0.00  0.00     0.211 HD
ENDBRANCH  27  31
BRANCH  29  33
HETATM   33  C   UNK N   1      29.965  48.432  57.537  0.00  0.00     0.104 A 
HETATM   34  N   UNK N   1      30.525  48.778  56.346  0.00  0.00    -0.352 N 
HETATM   35  C   UNK N   1      30.459  50.050  55.869  0.00  0.00     0.090 A 
ATOM     36  HN  UNK N   1      31.007  48.066  55.798  1.00  0.00     0.166 HD
HETATM   37  C   UNK N   1      29.799  51.043  56.598  0.00  0.00     0.035 A 
HETATM   38  C   UNK N   1      29.208  50.722  57.829  0.00  0.00     0.042 A 
HETATM   39  C   UNK N   1      29.297  49.404  58.300  0.00  0.00     0.066 A 
BRANCH  38  40
HETATM   40  C   UNK N   1      28.491  51.757  58.615  0.00  0.00     0.176 C 
HETATM   41  O   UNK N   1      27.301  51.625  58.869  0.00  0.00    -0.646 OA
BRANCH  40  42
HETATM   42  O   UNK N   1      29.146  52.857  59.047  0.00  0.00    -0.773 OA
HETATM   43  H   UNK N   1      29.424  53.549  58.429  0.00  0.00     0.167 HD
ENDBRANCH  40  42
ENDBRANCH  38  40
ENDBRANCH  29  33
ENDBRANCH   2  27
TORSDOF 10
ENDMDL
MODEL 8
REMARK VINA RESULT:      -6.0     15.647     19.579
REMARK  10 active torsions:
REMARK  status: ('A' for Active; 'I' for Inactive)
REMARK    1  A    between atoms: O_4  and  C_17 
REMARK    2  A    between atoms: O_6  and  C_24 
REMARK    3  A    between atoms: O_6  and  C_28 
REMARK    4  A    between atoms: O_7  and  C_38 
REMARK    5  A    between atoms: N_9  and  C_23 
REMARK    6  A    between atoms: C_14  and  C_20 
REMARK    7  A    between atoms: C_17  and  C_21 
REMARK    8  A    between atoms: C_22  and  C_24 
REMARK    9  A    between atoms: C_25  and  C_32 
REMARK   10  A    between atoms: C_33  and  C_38 
ROOT
HETATM    1 Cl   UNK N   1      30.664  49.887  56.018  0.00  0.00    -0.084 Cl
HETATM    2  C   UNK N   1      28.864  49.012  57.945  0.00  0.00     0.001 A 
HETATM    3  C   UNK N   1      30.030  48.733  57.190  0.00  0.00     0.046 A 
HETATM    4  C   UNK N   1      28.402  48.045  58.852  0.00  0.00     0.015 A 
HETATM    5  C   UNK N   1      30.243  46.561  58.280  0.00  0.00     0.070 A 
HETATM    6  C   UNK N   1      30.710  47.514  57.364  0.00  0.00     0.061 A 
HETATM    7  C   UNK N   1      29.079  46.844  59.020  0.00  0.00     0.037 A 
ENDROOT
BRANCH   5   8
HETATM    8  O   UNK N   1      30.925  45.390  58.441  0.00  0.00    -0.346 OA
BRANCH   8   9
HETATM    9  C   UNK N   1      31.084  44.471  57.418  0.00  0.00     0.219 C 
BRANCH   9  10
HETATM   10  C   UNK N   1      30.861  43.062  57.872  0.00  0.00     0.028 A 
HETATM   11  C   UNK N   1      31.503  42.405  58.906  0.00  0.00     0.091 A 
HETATM   12  O   UNK N   1      30.958  41.218  59.043  0.00  0.00    -0.241 OA
HETATM   13  N   UNK N   1      30.003  41.039  58.169  0.00  0.00    -0.260 N 
HETATM   14  C   UNK N   1      29.921  42.158  57.426  0.00  0.00     0.079 A 
ATOM     15  HN  UNK N   1      29.426  40.205  58.070  1.00  0.00     0.195 HD
BRANCH  11  16
HETATM   16  C   UNK N   1      32.607  42.935  59.779  0.00  0.00     0.046 A 
HETATM   17  C   UNK N   1      33.931  42.720  59.049  0.00  0.00     0.012 A 
HETATM   18  C   UNK N   1      33.642  41.973  60.337  0.00  0.00     0.012 A 
ENDBRANCH  11  16
BRANCH  14  19
HETATM   19  C   UNK N   1      28.885  42.380  56.401  0.00  0.00     0.037 A 
HETATM   20  C   UNK N   1      27.613  42.866  56.761  0.00  0.00     0.048 A 
HETATM   21 Cl   UNK N   1      27.210  43.197  58.443  0.00  0.00    -0.083 Cl
HETATM   22  C   UNK N   1      26.650  43.096  55.773  0.00  0.00     0.025 A 
HETATM   23  C   UNK N   1      26.943  42.846  54.430  0.00  0.00     0.003 A 
HETATM   24  C   UNK N   1      28.200  42.363  54.067  0.00  0.00     0.025 A 
HETATM   25  C   UNK N   1      29.175  42.129  55.043  0.00  0.00     0.048 A 
HETATM   26 Cl   UNK N   1      30.752  41.526  54.542  0.00  0.00    -0.083 Cl
ENDBRANCH  14  19
ENDBRANCH   9  10
ENDBRANCH   8   9
ENDBRANCH   5   8
BRANCH   2  27
HETATM   27  C   UNK N   1      28.090  50.311  57.755  0.00  0.00     0.118 A 
HETATM   28  C   UNK N   1      26.695  50.421  58.463  0.00  0.00     0.169 A 
HETATM   29  N   UNK N   1      26.178  50.753  57.188  0.00  0.00    -0.361 N 
HETATM   30  C   UNK N   1      27.334  50.570  56.397  0.00  0.00     0.169 A 
BRANCH  27  31
HETATM   31  O   UNK N   1      28.872  51.427  58.096  0.00  0.00    -0.382 OA
HETATM   32  H   UNK N   1      29.121  51.313  59.051  0.00  0.00     0.211 HD
ENDBRANCH  27  31
BRANCH  29  33
HETATM   33  C   UNK N   1      24.859  51.109  56.796  0.00  0.00     0.104 A 
HETATM   34  N   UNK N   1      23.829  50.974  57.675  0.00  0.00    -0.352 N 
HETATM   35  C   UNK N   1      22.556  51.321  57.343  0.00  0.00     0.090 A 
ATOM     36  HN  UNK N   1      24.016  50.604  58.607  1.00  0.00     0.166 HD
HETATM   37  C   UNK N   1      22.275  51.837  56.075  0.00  0.00     0.035 A 
HETATM   38  C   UNK N   1      23.313  51.992  55.143  0.00  0.00     0.042 A 
HETATM   39  C   UNK N   1      24.614  51.620  55.511  0.00  0.00     0.066 A 
BRANCH  38  40
HETATM   40  C   UNK N   1      23.040  52.549  53.795  0.00  0.00     0.176 C 
HETATM   41  O   UNK N   1      22.892  53.755  53.644  0.00  0.00    -0.646 OA
BRANCH  40  42
HETATM   42  O   UNK N   1      22.944  51.728  52.727  0.00  0.00    -0.773 OA
HETATM   43  H   UNK N   1      22.089  51.366  52.449  0.00  0.00     0.167 HD
ENDBRANCH  40  42
ENDBRANCH  38  40
ENDBRANCH  29  33
ENDBRANCH   2  27
TORSDOF 10
ENDMDL
MODEL 9
REMARK VINA RESULT:      -6.0     15.631     18.366
REMARK  10 active torsions:
REMARK  status: ('A' for Active; 'I' for Inactive)
REMARK    1  A    between atoms: O_4  and  C_17 
REMARK    2  A    between atoms: O_6  and  C_24 
REMARK    3  A    between atoms: O_6  and  C_28 
REMARK    4  A    between atoms: O_7  and  C_38 
REMARK    5  A    between atoms: N_9  and  C_23 
REMARK    6  A    between atoms: C_14  and  C_20 
REMARK    7  A    between atoms: C_17  and  C_21 
REMARK    8  A    between atoms: C_22  and  C_24 
REMARK    9  A    between atoms: C_25  and  C_32 
REMARK   10  A    between atoms: C_33  and  C_38 
ROOT
HETATM    1 Cl   UNK N   1      32.375  43.104  57.995  0.00  0.00    -0.084 Cl
HETATM    2  C   UNK N   1      29.701  43.819  57.758  0.00  0.00     0.001 A 
HETATM    3  C   UNK N   1      30.698  42.840  57.523  0.00  0.00     0.046 A 
HETATM    4  C   UNK N   1      28.386  43.554  57.344  0.00  0.00     0.015 A 
HETATM    5  C   UNK N   1      29.043  41.369  56.500  0.00  0.00     0.070 A 
HETATM    6  C   UNK N   1      30.362  41.625  56.898  0.00  0.00     0.061 A 
HETATM    7  C   UNK N   1      28.060  42.352  56.731  0.00  0.00     0.037 A 
ENDROOT
BRANCH   5   8
HETATM    8  O   UNK N   1      28.736  40.179  55.906  0.00  0.00    -0.346 OA
BRANCH   8   9
HETATM    9  C   UNK N   1      29.172  39.844  54.636  0.00  0.00     0.219 C 
BRANCH   9  10
HETATM   10  C   UNK N   1      28.098  39.207  53.810  0.00  0.00     0.028 A 
HETATM   11  C   UNK N   1      27.935  37.859  53.547  0.00  0.00     0.091 A 
HETATM   12  O   UNK N   1      26.823  37.703  52.864  0.00  0.00    -0.241 OA
HETATM   13  N   UNK N   1      26.241  38.853  52.651  0.00  0.00    -0.260 N 
HETATM   14  C   UNK N   1      27.006  39.804  53.217  0.00  0.00     0.079 A 
ATOM     15  HN  UNK N   1      25.367  39.002  52.148  1.00  0.00     0.195 HD
BRANCH  11  16
HETATM   16  C   UNK N   1      28.824  36.727  53.986  0.00  0.00     0.046 A 
HETATM   17  C   UNK N   1      27.947  35.673  54.659  0.00  0.00     0.012 A 
HETATM   18  C   UNK N   1      28.979  36.436  55.468  0.00  0.00     0.012 A 
ENDBRANCH  11  16
BRANCH  14  19
HETATM   19  C   UNK N   1      26.622  41.226  53.281  0.00  0.00     0.037 A 
HETATM   20  C   UNK N   1      27.171  42.157  52.378  0.00  0.00     0.048 A 
HETATM   21 Cl   UNK N   1      28.349  41.662  51.167  0.00  0.00    -0.083 Cl
HETATM   22  C   UNK N   1      26.776  43.499  52.435  0.00  0.00     0.025 A 
HETATM   23  C   UNK N   1      25.840  43.919  53.383  0.00  0.00     0.003 A 
HETATM   24  C   UNK N   1      25.295  43.002  54.282  0.00  0.00     0.025 A 
HETATM   25  C   UNK N   1      25.678  41.657  54.237  0.00  0.00     0.048 A 
HETATM   26 Cl   UNK N   1      24.959  40.530  55.384  0.00  0.00    -0.083 Cl
ENDBRANCH  14  19
ENDBRANCH   9  10
ENDBRANCH   8   9
ENDBRANCH   5   8
BRANCH   2  27
HETATM   27  C   UNK N   1      30.043  45.156  58.404  0.00  0.00     0.118 A 
HETATM   28  C   UNK N   1      28.958  46.286  58.325  0.00  0.00     0.169 A 
HETATM   29  N   UNK N   1      29.976  47.097  57.769  0.00  0.00    -0.361 N 
HETATM   30  C   UNK N   1      31.018  46.148  57.662  0.00  0.00     0.169 A 
BRANCH  27  31
HETATM   31  O   UNK N   1      30.442  44.992  59.741  0.00  0.00    -0.382 OA
HETATM   32  H   UNK N   1      30.016  45.729  60.253  0.00  0.00     0.211 HD
ENDBRANCH  27  31
BRANCH  29  33
HETATM   33  C   UNK N   1      29.949  48.461  57.371  0.00  0.00     0.104 A 
HETATM   34  N   UNK N   1      30.561  48.845  56.217  0.00  0.00    -0.352 N 
HETATM   35  C   UNK N   1      30.541  50.137  55.794  0.00  0.00     0.090 A 
ATOM     36  HN  UNK N   1      31.046  48.145  55.656  1.00  0.00     0.166 HD
HETATM   37  C   UNK N   1      29.877  51.113  56.541  0.00  0.00     0.035 A 
HETATM   38  C   UNK N   1      29.233  50.754  57.734  0.00  0.00     0.042 A 
HETATM   39  C   UNK N   1      29.275  49.415  58.151  0.00  0.00     0.066 A 
BRANCH  38  40
HETATM   40  C   UNK N   1      28.510  51.772  58.539  0.00  0.00     0.176 C 
HETATM   41  O   UNK N   1      27.322  51.627  58.792  0.00  0.00    -0.646 OA
BRANCH  40  42
HETATM   42  O   UNK N   1      29.159  52.868  58.988  0.00  0.00    -0.773 OA
HETATM   43  H   UNK N   1      28.671  53.638  59.316  0.00  0.00     0.167 HD
ENDBRANCH  40  42
ENDBRANCH  38  40
ENDBRANCH  29  33
ENDBRANCH   2  27
TORSDOF 10
ENDMDL
