MODEL 1
REMARK VINA RESULT:      -6.7      0.000      0.000
REMARK  9 active torsions:
REMARK  status: ('A' for Active; 'I' for Inactive)
REMARK    1  A    between atoms: O_5  and  C_14 
REMARK    2  A    between atoms: O_5  and  C_20 
REMARK    3  A    between atoms: O_6  and  C_37 
REMARK    4  A    between atoms: C_10  and  C_11 
REMARK    5  A    between atoms: C_12  and  C_14 
REMARK    6  A    between atoms: C_13  and  C_17 
REMARK    7  A    between atoms: C_26  and  C_29 
REMARK    8  A    between atoms: C_30  and  C_31 
REMARK    9  A    between atoms: C_34  and  C_37 
ROOT
HETATM    1 Cl   UNK N   1      31.257  51.787  40.559  0.00  0.00    -0.083 Cl
HETATM    2  C   UNK N   1      30.155  54.720  43.113  0.00  0.00     0.070 A 
HETATM    3  C   UNK N   1      30.304  53.911  41.979  0.00  0.00     0.061 A 
HETATM    4  C   UNK N   1      30.841  54.373  44.296  0.00  0.00     0.037 A 
HETATM    5  C   UNK N   1      31.799  52.424  43.198  0.00  0.00    -0.014 A 
HETATM    6  C   UNK N   1      31.102  52.760  42.019  0.00  0.00     0.047 A 
HETATM    7  C   UNK N   1      31.663  53.247  44.331  0.00  0.00     0.016 A 
ENDROOT
BRANCH   2   8
HETATM    8  O   UNK N   1      29.346  55.812  43.038  0.00  0.00    -0.346 OA
BRANCH   8   9
HETATM    9  C   UNK N   1      29.225  56.625  41.927  0.00  0.00     0.219 C 
BRANCH   9  10
HETATM   10  C   UNK N   1      27.802  56.641  41.452  0.00  0.00     0.028 A 
HETATM   11  C   UNK N   1      26.728  57.346  41.964  0.00  0.00     0.090 A 
HETATM   12  O   UNK N   1      25.663  57.051  41.250  0.00  0.00    -0.241 OA
HETATM   13  N   UNK N   1      25.958  56.209  40.296  0.00  0.00    -0.260 N 
HETATM   14  C   UNK N   1      27.269  55.934  40.395  0.00  0.00     0.079 A 
ATOM     15  HN  UNK N   1      25.311  55.831  39.605  1.00  0.00     0.195 HD
BRANCH  11  16
HETATM   16  C   UNK N   1      26.720  58.312  43.121  0.00  0.00     0.038 C 
HETATM   17  C   UNK N   1      27.488  59.581  42.739  0.00  0.00     0.016 C 
HETATM   18  C   UNK N   1      25.280  58.645  43.514  0.00  0.00     0.016 C 
ENDBRANCH  11  16
BRANCH  14  19
HETATM   19  C   UNK N   1      27.981  55.003  39.503  0.00  0.00     0.037 A 
HETATM   20  C   UNK N   1      28.863  55.494  38.518  0.00  0.00     0.048 A 
HETATM   21 Cl   UNK N   1      29.146  57.221  38.326  0.00  0.00    -0.083 Cl
HETATM   22  C   UNK N   1      29.542  54.600  37.683  0.00  0.00     0.025 A 
HETATM   23  C   UNK N   1      29.343  53.224  37.816  0.00  0.00     0.003 A 
HETATM   24  C   UNK N   1      28.468  52.733  38.787  0.00  0.00     0.025 A 
HETATM   25  C   UNK N   1      27.788  53.614  39.634  0.00  0.00     0.048 A 
HETATM   26 Cl   UNK N   1      26.687  52.959  40.842  0.00  0.00    -0.083 Cl
ENDBRANCH  14  19
ENDBRANCH   9  10
ENDBRANCH   8   9
ENDBRANCH   2   8
BRANCH   5  27
HETATM   27  C   UNK N   1      32.650  51.206  43.255  0.00  0.00     0.014 C 
HETATM   28  C   UNK N   1      33.971  51.257  42.996  0.00  0.00     0.012 C 
BRANCH  28  29
HETATM   29  C   UNK N   1      34.875  50.077  43.056  0.00  0.00    -0.035 A 
HETATM   30  C   UNK N   1      36.279  50.201  43.007  0.00  0.00     0.029 A 
HETATM   31  C   UNK N   1      37.098  49.055  43.003  0.00  0.00     0.038 A 
HETATM   32  C   UNK N   1      36.503  47.785  43.081  0.00  0.00     0.018 A 
HETATM   33  C   UNK N   1      35.115  47.660  43.148  0.00  0.00     0.002 A 
HETATM   34  C   UNK N   1      34.305  48.796  43.123  0.00  0.00     0.011 A 
BRANCH  31  35
HETATM   35  C   UNK N   1      38.573  49.183  42.889  0.00  0.00     0.176 C 
HETATM   36  O   UNK N   1      39.289  48.950  43.853  0.00  0.00    -0.646 OA
BRANCH  35  37
HETATM   37  O   UNK N   1      39.132  49.586  41.726  0.00  0.00    -0.773 OA
HETATM   38  H   UNK N   1      39.440  50.495  41.607  0.00  0.00     0.167 HD
ENDBRANCH  35  37
ENDBRANCH  31  35
ENDBRANCH  28  29
ENDBRANCH   5  27
TORSDOF 9
ENDMDL
MODEL 2
REMARK VINA RESULT:      -6.2     16.868     20.421
REMARK  9 active torsions:
REMARK  status: ('A' for Active; 'I' for Inactive)
REMARK    1  A    between atoms: O_5  and  C_14 
REMARK    2  A    between atoms: O_5  and  C_20 
REMARK    3  A    between atoms: O_6  and  C_37 
REMARK    4  A    between atoms: C_10  and  C_11 
REMARK    5  A    between atoms: C_12  and  C_14 
REMARK    6  A    between atoms: C_13  and  C_17 
REMARK    7  A    between atoms: C_26  and  C_29 
REMARK    8  A    between atoms: C_30  and  C_31 
REMARK    9  A    between atoms: C_34  and  C_37 
ROOT
HETATM    1 Cl   UNK N   1      26.113  43.525  58.305  0.00  0.00    -0.083 Cl
HETATM    2  C   UNK N   1      29.072  40.785  58.034  0.00  0.00     0.070 A 
HETATM    3  C   UNK N   1      27.821  41.406  58.138  0.00  0.00     0.061 A 
HETATM    4  C   UNK N   1      30.231  41.586  57.982  0.00  0.00     0.037 A 
HETATM    5  C   UNK N   1      28.875  43.602  58.130  0.00  0.00    -0.014 A 
HETATM    6  C   UNK N   1      27.713  42.803  58.166  0.00  0.00     0.047 A 
HETATM    7  C   UNK N   1      30.132  42.977  58.044  0.00  0.00     0.016 A 
ENDROOT
BRANCH   2   8
HETATM    8  O   UNK N   1      29.128  39.426  57.979  0.00  0.00    -0.346 OA
BRANCH   8   9
HETATM    9  C   UNK N   1      28.095  38.614  57.547  0.00  0.00     0.219 C 
BRANCH   9  10
HETATM   10  C   UNK N   1      28.379  38.111  56.164  0.00  0.00     0.028 A 
HETATM   11  C   UNK N   1      28.878  36.880  55.777  0.00  0.00     0.090 A 
HETATM   12  O   UNK N   1      28.984  36.870  54.466  0.00  0.00    -0.241 OA
HETATM   13  N   UNK N   1      28.583  38.004  53.956  0.00  0.00    -0.260 N 
HETATM   14  C   UNK N   1      28.206  38.792  54.977  0.00  0.00     0.079 A 
ATOM     15  HN  UNK N   1      28.561  38.245  52.966  1.00  0.00     0.195 HD
BRANCH  11  16
HETATM   16  C   UNK N   1      29.236  35.709  56.656  0.00  0.00     0.038 C 
HETATM   17  C   UNK N   1      27.958  35.024  57.149  0.00  0.00     0.016 C 
HETATM   18  C   UNK N   1      30.116  34.725  55.882  0.00  0.00     0.016 C 
ENDBRANCH  11  16
BRANCH  14  19
HETATM   19  C   UNK N   1      27.707  40.167  54.810  0.00  0.00     0.037 A 
HETATM   20  C   UNK N   1      28.608  41.230  54.592  0.00  0.00     0.048 A 
HETATM   21 Cl   UNK N   1      30.344  40.952  54.505  0.00  0.00    -0.083 Cl
HETATM   22  C   UNK N   1      28.122  42.533  54.425  0.00  0.00     0.025 A 
HETATM   23  C   UNK N   1      26.750  42.783  54.482  0.00  0.00     0.003 A 
HETATM   24  C   UNK N   1      25.854  41.735  54.701  0.00  0.00     0.025 A 
HETATM   25  C   UNK N   1      26.324  40.428  54.863  0.00  0.00     0.048 A 
HETATM   26 Cl   UNK N   1      25.165  39.132  55.145  0.00  0.00    -0.083 Cl
ENDBRANCH  14  19
ENDBRANCH   9  10
ENDBRANCH   8   9
ENDBRANCH   2   8
BRANCH   5  27
HETATM   27  C   UNK N   1      28.777  45.085  58.159  0.00  0.00     0.014 C 
HETATM   28  C   UNK N   1      29.876  45.864  58.135  0.00  0.00     0.012 C 
BRANCH  28  29
HETATM   29  C   UNK N   1      29.840  47.351  58.143  0.00  0.00    -0.035 A 
HETATM   30  C   UNK N   1      30.322  48.122  57.065  0.00  0.00     0.029 A 
HETATM   31  C   UNK N   1      30.329  49.528  57.138  0.00  0.00     0.038 A 
HETATM   32  C   UNK N   1      29.819  50.159  58.286  0.00  0.00     0.018 A 
HETATM   33  C   UNK N   1      29.325  49.399  59.346  0.00  0.00     0.002 A 
HETATM   34  C   UNK N   1      29.346  48.006  59.283  0.00  0.00     0.011 A 
BRANCH  31  35
HETATM   35  C   UNK N   1      30.892  50.339  56.030  0.00  0.00     0.176 C 
HETATM   36  O   UNK N   1      30.227  50.563  55.028  0.00  0.00    -0.646 OA
BRANCH  35  37
HETATM   37  O   UNK N   1      32.156  50.810  56.108  0.00  0.00    -0.773 OA
HETATM   38  H   UNK N   1      32.909  50.276  55.819  0.00  0.00     0.167 HD
ENDBRANCH  35  37
ENDBRANCH  31  35
ENDBRANCH  28  29
ENDBRANCH   5  27
TORSDOF 9
ENDMDL
MODEL 3
REMARK VINA RESULT:      -6.2     15.269     18.669
REMARK  9 active torsions:
REMARK  status: ('A' for Active; 'I' for Inactive)
REMARK    1  A    between atoms: O_5  and  C_14 
REMARK    2  A    between atoms: O_5  and  C_20 
REMARK    3  A    between atoms: O_6  and  C_37 
REMARK    4  A    between atoms: C_10  and  C_11 
REMARK    5  A    between atoms: C_12  and  C_14 
REMARK    6  A    between atoms: C_13  and  C_17 
REMARK    7  A    between atoms: C_26  and  C_29 
REMARK    8  A    between atoms: C_30  and  C_31 
REMARK    9  A    between atoms: C_34  and  C_37 
ROOT
HETATM    1 Cl   UNK N   1      24.649  44.607  51.327  0.00  0.00    -0.083 Cl
HETATM    2  C   UNK N   1      27.639  42.565  53.123  0.00  0.00     0.070 A 
HETATM    3  C   UNK N   1      26.607  43.471  52.847  0.00  0.00     0.061 A 
HETATM    4  C   UNK N   1      28.012  41.630  52.136  0.00  0.00     0.037 A 
HETATM    5  C   UNK N   1      26.318  42.513  50.627  0.00  0.00    -0.014 A 
HETATM    6  C   UNK N   1      25.934  43.438  51.619  0.00  0.00     0.047 A 
HETATM    7  C   UNK N   1      27.368  41.616  50.898  0.00  0.00     0.016 A 
ENDROOT
BRANCH   2   8
HETATM    8  O   UNK N   1      28.246  42.613  54.342  0.00  0.00    -0.346 OA
BRANCH   8   9
HETATM    9  C   UNK N   1      29.505  42.112  54.613  0.00  0.00     0.219 C 
BRANCH   9  10
HETATM   10  C   UNK N   1      29.502  41.396  55.930  0.00  0.00     0.028 A 
HETATM   11  C   UNK N   1      29.393  40.039  56.175  0.00  0.00     0.090 A 
HETATM   12  O   UNK N   1      29.421  39.851  57.477  0.00  0.00    -0.241 OA
HETATM   13  N   UNK N   1      29.549  40.986  58.111  0.00  0.00    -0.260 N 
HETATM   14  C   UNK N   1      29.600  41.959  57.185  0.00  0.00     0.079 A 
ATOM     15  HN  UNK N   1      29.602  41.109  59.122  1.00  0.00     0.195 HD
BRANCH  11  16
HETATM   16  C   UNK N   1      29.281  38.922  55.169  0.00  0.00     0.038 C 
HETATM   17  C   UNK N   1      29.730  37.604  55.809  0.00  0.00     0.016 C 
HETATM   18  C   UNK N   1      27.841  38.818  54.663  0.00  0.00     0.016 C 
ENDBRANCH  11  16
BRANCH  14  19
HETATM   19  C   UNK N   1      29.723  43.390  57.507  0.00  0.00     0.037 A 
HETATM   20  C   UNK N   1      30.989  44.013  57.513  0.00  0.00     0.048 A 
HETATM   21 Cl   UNK N   1      32.452  43.109  57.135  0.00  0.00    -0.083 Cl
HETATM   22  C   UNK N   1      31.093  45.376  57.810  0.00  0.00     0.025 A 
HETATM   23  C   UNK N   1      29.950  46.120  58.108  0.00  0.00     0.003 A 
HETATM   24  C   UNK N   1      28.695  45.509  58.106  0.00  0.00     0.025 A 
HETATM   25  C   UNK N   1      28.574  44.148  57.804  0.00  0.00     0.048 A 
HETATM   26 Cl   UNK N   1      26.976  43.409  57.819  0.00  0.00    -0.083 Cl
ENDBRANCH  14  19
ENDBRANCH   9  10
ENDBRANCH   8   9
ENDBRANCH   2   8
BRANCH   5  27
HETATM   27  C   UNK N   1      25.613  42.466  49.318  0.00  0.00     0.014 C 
HETATM   28  C   UNK N   1      25.573  41.340  48.581  0.00  0.00     0.012 C 
BRANCH  28  29
HETATM   29  C   UNK N   1      24.868  41.227  47.275  0.00  0.00    -0.035 A 
HETATM   30  C   UNK N   1      25.524  40.808  46.099  0.00  0.00     0.029 A 
HETATM   31  C   UNK N   1      24.837  40.775  44.871  0.00  0.00     0.038 A 
HETATM   32  C   UNK N   1      23.479  41.134  44.833  0.00  0.00     0.018 A 
HETATM   33  C   UNK N   1      22.823  41.532  45.998  0.00  0.00     0.002 A 
HETATM   34  C   UNK N   1      23.514  41.592  47.208  0.00  0.00     0.011 A 
BRANCH  31  35
HETATM   35  C   UNK N   1      25.542  40.392  43.622  0.00  0.00     0.176 C 
HETATM   36  O   UNK N   1      25.268  39.344  43.053  0.00  0.00    -0.646 OA
BRANCH  35  37
HETATM   37  O   UNK N   1      26.514  41.186  43.120  0.00  0.00    -0.773 OA
HETATM   38  H   UNK N   1      26.469  42.149  43.207  0.00  0.00     0.167 HD
ENDBRANCH  35  37
ENDBRANCH  31  35
ENDBRANCH  28  29
ENDBRANCH   5  27
TORSDOF 9
ENDMDL
MODEL 4
REMARK VINA RESULT:      -6.1     15.336     18.678
REMARK  9 active torsions:
REMARK  status: ('A' for Active; 'I' for Inactive)
REMARK    1  A    between atoms: O_5  and  C_14 
REMARK    2  A    between atoms: O_5  and  C_20 
REMARK    3  A    between atoms: O_6  and  C_37 
REMARK    4  A    between atoms: C_10  and  C_11 
REMARK    5  A    between atoms: C_12  and  C_14 
REMARK    6  A    between atoms: C_13  and  C_17 
REMARK    7  A    between atoms: C_26  and  C_29 
REMARK    8  A    between atoms: C_30  and  C_31 
REMARK    9  A    between atoms: C_34  and  C_37 
ROOT
HETATM    1 Cl   UNK N   1      24.750  44.559  51.424  0.00  0.00    -0.083 Cl
HETATM    2  C   UNK N   1      27.852  42.564  53.077  0.00  0.00     0.070 A 
HETATM    3  C   UNK N   1      26.799  43.458  52.847  0.00  0.00     0.061 A 
HETATM    4  C   UNK N   1      28.176  41.618  52.083  0.00  0.00     0.037 A 
HETATM    5  C   UNK N   1      26.393  42.466  50.660  0.00  0.00    -0.014 A 
HETATM    6  C   UNK N   1      26.058  43.403  51.659  0.00  0.00     0.047 A 
HETATM    7  C   UNK N   1      27.463  41.581  50.884  0.00  0.00     0.016 A 
ENDROOT
BRANCH   2   8
HETATM    8  O   UNK N   1      28.526  42.633  54.258  0.00  0.00    -0.346 OA
BRANCH   8   9
HETATM    9  C   UNK N   1      29.690  41.943  54.541  0.00  0.00     0.219 C 
BRANCH   9  10
HETATM   10  C   UNK N   1      29.559  41.226  55.851  0.00  0.00     0.028 A 
HETATM   11  C   UNK N   1      30.078  41.577  57.084  0.00  0.00     0.090 A 
HETATM   12  O   UNK N   1      29.732  40.655  57.956  0.00  0.00    -0.241 OA
HETATM   13  N   UNK N   1      29.013  39.723  57.390  0.00  0.00    -0.260 N 
HETATM   14  C   UNK N   1      28.890  40.044  56.091  0.00  0.00     0.079 A 
ATOM     15  HN  UNK N   1      28.617  38.904  57.851  1.00  0.00     0.195 HD
BRANCH  11  16
HETATM   16  C   UNK N   1      30.888  42.799  57.434  0.00  0.00     0.038 C 
HETATM   17  C   UNK N   1      29.968  44.020  57.527  0.00  0.00     0.016 C 
HETATM   18  C   UNK N   1      31.629  42.575  58.754  0.00  0.00     0.016 C 
ENDBRANCH  11  16
BRANCH  14  19
HETATM   19  C   UNK N   1      28.160  39.225  55.110  0.00  0.00     0.037 A 
HETATM   20  C   UNK N   1      28.811  38.168  54.440  0.00  0.00     0.048 A 
HETATM   21 Cl   UNK N   1      30.502  37.791  54.755  0.00  0.00    -0.083 Cl
HETATM   22  C   UNK N   1      28.105  37.389  53.516  0.00  0.00     0.025 A 
HETATM   23  C   UNK N   1      26.761  37.660  53.249  0.00  0.00     0.003 A 
HETATM   24  C   UNK N   1      26.113  38.706  53.907  0.00  0.00     0.025 A 
HETATM   25  C   UNK N   1      26.803  39.489  54.839  0.00  0.00     0.048 A 
HETATM   26 Cl   UNK N   1      25.955  40.806  55.643  0.00  0.00    -0.083 Cl
ENDBRANCH  14  19
ENDBRANCH   9  10
ENDBRANCH   8   9
ENDBRANCH   2   8
BRANCH   5  27
HETATM   27  C   UNK N   1      25.616  42.396  49.394  0.00  0.00     0.014 C 
HETATM   28  C   UNK N   1      25.725  41.345  48.559  0.00  0.00     0.012 C 
BRANCH  28  29
HETATM   29  C   UNK N   1      24.961  41.210  47.290  0.00  0.00    -0.035 A 
HETATM   30  C   UNK N   1      25.575  40.837  46.077  0.00  0.00     0.029 A 
HETATM   31  C   UNK N   1      24.827  40.781  44.884  0.00  0.00     0.038 A 
HETATM   32  C   UNK N   1      23.453  41.071  44.921  0.00  0.00     0.018 A 
HETATM   33  C   UNK N   1      22.839  41.423  46.123  0.00  0.00     0.002 A 
HETATM   34  C   UNK N   1      23.588  41.505  47.297  0.00  0.00     0.011 A 
BRANCH  31  35
HETATM   35  C   UNK N   1      25.486  40.448  43.596  0.00  0.00     0.176 C 
HETATM   36  O   UNK N   1      25.116  39.480  42.946  0.00  0.00    -0.646 OA
BRANCH  35  37
HETATM   37  O   UNK N   1      26.518  41.196  43.148  0.00  0.00    -0.773 OA
HETATM   38  H   UNK N   1      27.363  40.791  42.909  0.00  0.00     0.167 HD
ENDBRANCH  35  37
ENDBRANCH  31  35
ENDBRANCH  28  29
ENDBRANCH   5  27
TORSDOF 9
ENDMDL
MODEL 5
REMARK VINA RESULT:      -6.0     16.734     20.343
REMARK  9 active torsions:
REMARK  status: ('A' for Active; 'I' for Inactive)
REMARK    1  A    between atoms: O_5  and  C_14 
REMARK    2  A    between atoms: O_5  and  C_20 
REMARK    3  A    between atoms: O_6  and  C_37 
REMARK    4  A    between atoms: C_10  and  C_11 
REMARK    5  A    between atoms: C_12  and  C_14 
REMARK    6  A    between atoms: C_13  and  C_17 
REMARK    7  A    between atoms: C_26  and  C_29 
REMARK    8  A    between atoms: C_30  and  C_31 
REMARK    9  A    between atoms: C_34  and  C_37 
ROOT
HETATM    1 Cl   UNK N   1      27.828  38.684  53.415  0.00  0.00    -0.083 Cl
HETATM    2  C   UNK N   1      29.133  41.108  56.374  0.00  0.00     0.070 A 
HETATM    3  C   UNK N   1      28.863  39.992  55.572  0.00  0.00     0.061 A 
HETATM    4  C   UNK N   1      28.650  42.371  55.976  0.00  0.00     0.037 A 
HETATM    5  C   UNK N   1      27.647  41.386  53.988  0.00  0.00    -0.014 A 
HETATM    6  C   UNK N   1      28.143  40.125  54.377  0.00  0.00     0.047 A 
HETATM    7  C   UNK N   1      27.904  42.503  54.804  0.00  0.00     0.016 A 
ENDROOT
BRANCH   2   8
HETATM    8  O   UNK N   1      29.862  40.937  57.512  0.00  0.00    -0.346 OA
BRANCH   8   9
HETATM    9  C   UNK N   1      29.569  41.523  58.729  0.00  0.00     0.219 C 
BRANCH   9  10
HETATM   10  C   UNK N   1      30.824  41.707  59.529  0.00  0.00     0.028 A 
HETATM   11  C   UNK N   1      31.570  40.753  60.197  0.00  0.00     0.090 A 
HETATM   12  O   UNK N   1      32.583  41.355  60.780  0.00  0.00    -0.241 OA
HETATM   13  N   UNK N   1      32.567  42.639  60.538  0.00  0.00    -0.260 N 
HETATM   14  C   UNK N   1      31.492  42.888  59.771  0.00  0.00     0.079 A 
ATOM     15  HN  UNK N   1      33.245  43.324  60.870  1.00  0.00     0.195 HD
BRANCH  11  16
HETATM   16  C   UNK N   1      31.326  39.267  60.265  0.00  0.00     0.038 C 
HETATM   17  C   UNK N   1      32.661  38.531  60.412  0.00  0.00     0.016 C 
HETATM   18  C   UNK N   1      30.396  38.943  61.436  0.00  0.00     0.016 C 
ENDBRANCH  11  16
BRANCH  14  19
HETATM   19  C   UNK N   1      31.116  44.231  59.299  0.00  0.00     0.037 A 
HETATM   20  C   UNK N   1      30.520  45.156  60.182  0.00  0.00     0.048 A 
HETATM   21 Cl   UNK N   1      30.214  44.742  61.866  0.00  0.00    -0.083 Cl
HETATM   22  C   UNK N   1      30.175  46.433  59.726  0.00  0.00     0.025 A 
HETATM   23  C   UNK N   1      30.411  46.792  58.397  0.00  0.00     0.003 A 
HETATM   24  C   UNK N   1      30.998  45.880  57.518  0.00  0.00     0.025 A 
HETATM   25  C   UNK N   1      31.355  44.602  57.961  0.00  0.00     0.048 A 
HETATM   26 Cl   UNK N   1      32.085  43.476  56.822  0.00  0.00    -0.083 Cl
ENDBRANCH  14  19
ENDBRANCH   9  10
ENDBRANCH   8   9
ENDBRANCH   2   8
BRANCH   5  27
HETATM   27  C   UNK N   1      26.882  41.543  52.723  0.00  0.00     0.014 C 
HETATM   28  C   UNK N   1      26.388  42.738  52.343  0.00  0.00     0.012 C 
BRANCH  28  29
HETATM   29  C   UNK N   1      25.632  42.960  51.081  0.00  0.00    -0.035 A 
HETATM   30  C   UNK N   1      25.701  42.065  49.994  0.00  0.00     0.029 A 
HETATM   31  C   UNK N   1      25.020  42.344  48.793  0.00  0.00     0.038 A 
HETATM   32  C   UNK N   1      24.242  43.510  48.700  0.00  0.00     0.018 A 
HETATM   33  C   UNK N   1      24.157  44.389  49.780  0.00  0.00     0.002 A 
HETATM   34  C   UNK N   1      24.857  44.124  50.958  0.00  0.00     0.011 A 
BRANCH  31  35
HETATM   35  C   UNK N   1      25.141  41.434  47.627  0.00  0.00     0.176 C 
HETATM   36  O   UNK N   1      24.165  41.183  46.935  0.00  0.00    -0.646 OA
BRANCH  35  37
HETATM   37  O   UNK N   1      26.327  40.852  47.341  0.00  0.00    -0.773 OA
HETATM   38  H   UNK N   1      27.161  41.243  47.637  0.00  0.00     0.167 HD
ENDBRANCH  35  37
ENDBRANCH  31  35
ENDBRANCH  28  29
ENDBRANCH   5  27
TORSDOF 9
ENDMDL
MODEL 6
REMARK VINA RESULT:      -6.0     17.695     21.192
REMARK  9 active torsions:
REMARK  status: ('A' for Active; 'I' for Inactive)
REMARK    1  A    between atoms: O_5  and  C_14 
REMARK    2  A    between atoms: O_5  and  C_20 
REMARK    3  A    between atoms: O_6  and  C_37 
REMARK    4  A    between atoms: C_10  and  C_11 
REMARK    5  A    between atoms: C_12  and  C_14 
REMARK    6  A    between atoms: C_13  and  C_17 
REMARK    7  A    between atoms: C_26  and  C_29 
REMARK    8  A    between atoms: C_30  and  C_31 
REMARK    9  A    between atoms: C_34  and  C_37 
ROOT
HETATM    1 Cl   UNK N   1      31.975  43.962  57.052  0.00  0.00    -0.083 Cl
HETATM    2  C   UNK N   1      30.486  41.553  59.936  0.00  0.00     0.070 A 
HETATM    3  C   UNK N   1      31.135  42.040  58.794  0.00  0.00     0.061 A 
HETATM    4  C   UNK N   1      29.825  42.462  60.787  0.00  0.00     0.037 A 
HETATM    5  C   UNK N   1      30.474  44.317  59.351  0.00  0.00    -0.014 A 
HETATM    6  C   UNK N   1      31.150  43.412  58.507  0.00  0.00     0.047 A 
HETATM    7  C   UNK N   1      29.808  43.825  60.488  0.00  0.00     0.016 A 
ENDROOT
BRANCH   2   8
HETATM    8  O   UNK N   1      30.523  40.216  60.191  0.00  0.00    -0.346 OA
BRANCH   8   9
HETATM    9  C   UNK N   1      30.448  39.229  59.226  0.00  0.00     0.219 C 
BRANCH   9  10
HETATM   10  C   UNK N   1      29.014  38.894  58.942  0.00  0.00     0.028 A 
HETATM   11  C   UNK N   1      28.163  38.068  59.653  0.00  0.00     0.090 A 
HETATM   12  O   UNK N   1      26.999  38.048  59.040  0.00  0.00    -0.241 OA
HETATM   13  N   UNK N   1      27.017  38.808  57.978  0.00  0.00    -0.260 N 
HETATM   14  C   UNK N   1      28.246  39.343  57.888  0.00  0.00     0.079 A 
ATOM     15  HN  UNK N   1      26.240  38.967  57.337  1.00  0.00     0.195 HD
BRANCH  11  16
HETATM   16  C   UNK N   1      28.453  37.313  60.926  0.00  0.00     0.038 C 
HETATM   17  C   UNK N   1      27.141  37.005  61.653  0.00  0.00     0.016 C 
HETATM   18  C   UNK N   1      29.214  36.025  60.607  0.00  0.00     0.016 C 
ENDBRANCH  11  16
BRANCH  14  19
HETATM   19  C   UNK N   1      28.669  40.248  56.807  0.00  0.00     0.037 A 
HETATM   20  C   UNK N   1      28.316  41.613  56.841  0.00  0.00     0.048 A 
HETATM   21 Cl   UNK N   1      27.369  42.278  58.168  0.00  0.00    -0.083 Cl
HETATM   22  C   UNK N   1      28.732  42.467  55.812  0.00  0.00     0.025 A 
HETATM   23  C   UNK N   1      29.489  41.969  54.749  0.00  0.00     0.003 A 
HETATM   24  C   UNK N   1      29.839  40.619  54.709  0.00  0.00     0.025 A 
HETATM   25  C   UNK N   1      29.437  39.755  55.733  0.00  0.00     0.048 A 
HETATM   26 Cl   UNK N   1      29.890  38.056  55.646  0.00  0.00    -0.083 Cl
ENDBRANCH  14  19
ENDBRANCH   9  10
ENDBRANCH   8   9
ENDBRANCH   2   8
BRANCH   5  27
HETATM   27  C   UNK N   1      30.482  45.775  59.060  0.00  0.00     0.014 C 
HETATM   28  C   UNK N   1      29.428  46.382  58.481  0.00  0.00     0.012 C 
BRANCH  28  29
HETATM   29  C   UNK N   1      29.369  47.839  58.183  0.00  0.00    -0.035 A 
HETATM   30  C   UNK N   1      30.110  48.424  57.136  0.00  0.00     0.029 A 
HETATM   31  C   UNK N   1      30.076  49.816  56.926  0.00  0.00     0.038 A 
HETATM   32  C   UNK N   1      29.269  50.615  57.752  0.00  0.00     0.018 A 
HETATM   33  C   UNK N   1      28.521  50.037  58.778  0.00  0.00     0.002 A 
HETATM   34  C   UNK N   1      28.579  48.662  59.002  0.00  0.00     0.011 A 
BRANCH  31  35
HETATM   35  C   UNK N   1      30.903  50.439  55.863  0.00  0.00     0.176 C 
HETATM   36  O   UNK N   1      30.422  50.671  54.762  0.00  0.00    -0.646 OA
BRANCH  35  37
HETATM   37  O   UNK N   1      32.203  50.728  56.095  0.00  0.00    -0.773 OA
HETATM   38  H   UNK N   1      32.903  50.377  55.528  0.00  0.00     0.167 HD
ENDBRANCH  35  37
ENDBRANCH  31  35
ENDBRANCH  28  29
ENDBRANCH   5  27
TORSDOF 9
ENDMDL
MODEL 7
REMARK VINA RESULT:      -5.9     17.984     21.447
REMARK  9 active torsions:
REMARK  status: ('A' for Active; 'I' for Inactive)
REMARK    1  A    between atoms: O_5  and  C_14 
REMARK    2  A    between atoms: O_5  and  C_20 
REMARK    3  A    between atoms: O_6  and  C_37 
REMARK    4  A    between atoms: C_10  and  C_11 
REMARK    5  A    between atoms: C_12  and  C_14 
REMARK    6  A    between atoms: C_13  and  C_17 
REMARK    7  A    between atoms: C_26  and  C_29 
REMARK    8  A    between atoms: C_30  and  C_31 
REMARK    9  A    between atoms: C_34  and  C_37 
ROOT
HETATM    1 Cl   UNK N   1      28.610  44.168  61.823  0.00  0.00    -0.083 Cl
HETATM    2  C   UNK N   1      30.361  41.008  60.010  0.00  0.00     0.070 A 
HETATM    3  C   UNK N   1      29.586  41.813  60.854  0.00  0.00     0.061 A 
HETATM    4  C   UNK N   1      31.179  41.622  59.040  0.00  0.00     0.037 A 
HETATM    5  C   UNK N   1      30.432  43.822  59.767  0.00  0.00    -0.014 A 
HETATM    6  C   UNK N   1      29.600  43.208  60.727  0.00  0.00     0.047 A 
HETATM    7  C   UNK N   1      31.224  43.012  58.932  0.00  0.00     0.016 A 
ENDROOT
BRANCH   2   8
HETATM    8  O   UNK N   1      30.292  39.655  60.149  0.00  0.00    -0.346 OA
BRANCH   8   9
HETATM    9  C   UNK N   1      30.255  38.758  59.098  0.00  0.00     0.219 C 
BRANCH   9  10
HETATM   10  C   UNK N   1      28.837  38.521  58.673  0.00  0.00     0.028 A 
HETATM   11  C   UNK N   1      27.903  37.660  59.220  0.00  0.00     0.090 A 
HETATM   12  O   UNK N   1      26.790  37.761  58.525  0.00  0.00    -0.241 OA
HETATM   13  N   UNK N   1      26.919  38.633  57.561  0.00  0.00    -0.260 N 
HETATM   14  C   UNK N   1      28.170  39.119  57.623  0.00  0.00     0.079 A 
ATOM     15  HN  UNK N   1      26.200  38.897  56.887  1.00  0.00     0.195 HD
BRANCH  11  16
HETATM   16  C   UNK N   1      28.065  36.756  60.415  0.00  0.00     0.038 C 
HETATM   17  C   UNK N   1      27.786  37.543  61.699  0.00  0.00     0.016 C 
HETATM   18  C   UNK N   1      27.121  35.558  60.295  0.00  0.00     0.016 C 
ENDBRANCH  11  16
BRANCH  14  19
HETATM   19  C   UNK N   1      28.709  40.119  56.687  0.00  0.00     0.037 A 
HETATM   20  C   UNK N   1      29.549  39.722  55.626  0.00  0.00     0.048 A 
HETATM   21 Cl   UNK N   1      29.975  38.031  55.383  0.00  0.00    -0.083 Cl
HETATM   22  C   UNK N   1      30.048  40.680  54.736  0.00  0.00     0.025 A 
HETATM   23  C   UNK N   1      29.723  42.028  54.900  0.00  0.00     0.003 A 
HETATM   24  C   UNK N   1      28.894  42.427  55.950  0.00  0.00     0.025 A 
HETATM   25  C   UNK N   1      28.382  41.480  56.843  0.00  0.00     0.048 A 
HETATM   26 Cl   UNK N   1      27.346  42.021  58.160  0.00  0.00    -0.083 Cl
ENDBRANCH  14  19
ENDBRANCH   9  10
ENDBRANCH   8   9
ENDBRANCH   2   8
BRANCH   5  27
HETATM   27  C   UNK N   1      30.458  45.301  59.620  0.00  0.00     0.014 C 
HETATM   28  C   UNK N   1      29.818  45.919  58.609  0.00  0.00     0.012 C 
BRANCH  28  29
HETATM   29  C   UNK N   1      29.793  47.394  58.421  0.00  0.00    -0.035 A 
HETATM   30  C   UNK N   1      30.198  48.008  57.218  0.00  0.00     0.029 A 
HETATM   31  C   UNK N   1      30.219  49.411  57.102  0.00  0.00     0.038 A 
HETATM   32  C   UNK N   1      29.800  50.196  58.188  0.00  0.00     0.018 A 
HETATM   33  C   UNK N   1      29.381  49.592  59.374  0.00  0.00     0.002 A 
HETATM   34  C   UNK N   1      29.389  48.203  59.496  0.00  0.00     0.011 A 
BRANCH  31  35
HETATM   35  C   UNK N   1      30.704  50.058  55.857  0.00  0.00     0.176 C 
HETATM   36  O   UNK N   1      31.852  50.473  55.783  0.00  0.00    -0.646 OA
BRANCH  35  37
HETATM   37  O   UNK N   1      29.870  50.219  54.806  0.00  0.00    -0.773 OA
HETATM   38  H   UNK N   1      29.681  51.098  54.447  0.00  0.00     0.167 HD
ENDBRANCH  35  37
ENDBRANCH  31  35
ENDBRANCH  28  29
ENDBRANCH   5  27
TORSDOF 9
ENDMDL
MODEL 8
REMARK VINA RESULT:      -5.8     16.585     20.176
REMARK  9 active torsions:
REMARK  status: ('A' for Active; 'I' for Inactive)
REMARK    1  A    between atoms: O_5  and  C_14 
REMARK    2  A    between atoms: O_5  and  C_20 
REMARK    3  A    between atoms: O_6  and  C_37 
REMARK    4  A    between atoms: C_10  and  C_11 
REMARK    5  A    between atoms: C_12  and  C_14 
REMARK    6  A    between atoms: C_13  and  C_17 
REMARK    7  A    between atoms: C_26  and  C_29 
REMARK    8  A    between atoms: C_30  and  C_31 
REMARK    9  A    between atoms: C_34  and  C_37 
ROOT
HETATM    1 Cl   UNK N   1      29.460  42.297  52.163  0.00  0.00    -0.083 Cl
HETATM    2  C   UNK N   1      28.817  41.884  56.132  0.00  0.00     0.070 A 
HETATM    3  C   UNK N   1      29.387  41.856  54.853  0.00  0.00     0.061 A 
HETATM    4  C   UNK N   1      27.521  42.416  56.292  0.00  0.00     0.037 A 
HETATM    5  C   UNK N   1      27.392  42.885  53.907  0.00  0.00    -0.014 A 
HETATM    6  C   UNK N   1      28.694  42.368  53.747  0.00  0.00     0.047 A 
HETATM    7  C   UNK N   1      26.814  42.896  55.189  0.00  0.00     0.016 A 
ENDROOT
BRANCH   2   8
HETATM    8  O   UNK N   1      29.538  41.403  57.182  0.00  0.00    -0.346 OA
BRANCH   8   9
HETATM    9  C   UNK N   1      29.248  41.647  58.511  0.00  0.00     0.219 C 
BRANCH   9  10
HETATM   10  C   UNK N   1      30.514  41.721  59.311  0.00  0.00     0.028 A 
HETATM   11  C   UNK N   1      31.183  40.702  59.966  0.00  0.00     0.090 A 
HETATM   12  O   UNK N   1      32.242  41.215  60.554  0.00  0.00    -0.241 OA
HETATM   13  N   UNK N   1      32.327  42.499  60.327  0.00  0.00    -0.260 N 
HETATM   14  C   UNK N   1      31.275  42.843  59.565  0.00  0.00     0.079 A 
ATOM     15  HN  UNK N   1      33.059  43.124  60.666  1.00  0.00     0.195 HD
BRANCH  11  16
HETATM   16  C   UNK N   1      30.822  39.240  60.017  0.00  0.00     0.038 C 
HETATM   17  C   UNK N   1      32.078  38.407  60.284  0.00  0.00     0.016 C 
HETATM   18  C   UNK N   1      29.769  38.999  61.100  0.00  0.00     0.016 C 
ENDBRANCH  11  16
BRANCH  14  19
HETATM   19  C   UNK N   1      31.006  44.217  59.111  0.00  0.00     0.037 A 
HETATM   20  C   UNK N   1      31.374  44.623  57.811  0.00  0.00     0.048 A 
HETATM   21 Cl   UNK N   1      32.156  43.508  56.694  0.00  0.00    -0.083 Cl
HETATM   22  C   UNK N   1      31.105  45.929  57.386  0.00  0.00     0.025 A 
HETATM   23  C   UNK N   1      30.480  46.833  58.247  0.00  0.00     0.003 A 
HETATM   24  C   UNK N   1      30.117  46.438  59.536  0.00  0.00     0.025 A 
HETATM   25  C   UNK N   1      30.373  45.134  59.973  0.00  0.00     0.048 A 
HETATM   26 Cl   UNK N   1      29.908  44.673  61.607  0.00  0.00    -0.083 Cl
ENDBRANCH  14  19
ENDBRANCH   9  10
ENDBRANCH   8   9
ENDBRANCH   2   8
BRANCH   5  27
HETATM   27  C   UNK N   1      26.645  43.432  52.744  0.00  0.00     0.014 C 
HETATM   28  C   UNK N   1      25.548  42.817  52.260  0.00  0.00     0.012 C 
BRANCH  28  29
HETATM   29  C   UNK N   1      24.750  43.326  51.112  0.00  0.00    -0.035 A 
HETATM   30  C   UNK N   1      24.215  42.469  50.128  0.00  0.00     0.029 A 
HETATM   31  C   UNK N   1      23.518  42.996  49.024  0.00  0.00     0.038 A 
HETATM   32  C   UNK N   1      23.332  44.385  48.927  0.00  0.00     0.018 A 
HETATM   33  C   UNK N   1      23.845  45.234  49.909  0.00  0.00     0.002 A 
HETATM   34  C   UNK N   1      24.560  44.712  50.987  0.00  0.00     0.011 A 
BRANCH  31  35
HETATM   35  C   UNK N   1      23.008  42.100  47.956  0.00  0.00     0.176 C 
HETATM   36  O   UNK N   1      23.068  40.885  48.088  0.00  0.00    -0.646 OA
BRANCH  35  37
HETATM   37  O   UNK N   1      22.499  42.621  46.817  0.00  0.00    -0.773 OA
HETATM   38  H   UNK N   1      21.737  43.216  46.836  0.00  0.00     0.167 HD
ENDBRANCH  35  37
ENDBRANCH  31  35
ENDBRANCH  28  29
ENDBRANCH   5  27
TORSDOF 9
ENDMDL
MODEL 9
REMARK VINA RESULT:      -5.7     16.501     19.873
REMARK  9 active torsions:
REMARK  status: ('A' for Active; 'I' for Inactive)
REMARK    1  A    between atoms: O_5  and  C_14 
REMARK    2  A    between atoms: O_5  and  C_20 
REMARK    3  A    between atoms: O_6  and  C_37 
REMARK    4  A    between atoms: C_10  and  C_11 
REMARK    5  A    between atoms: C_12  and  C_14 
REMARK    6  A    between atoms: C_13  and  C_17 
REMARK    7  A    between atoms: C_26  and  C_29 
REMARK    8  A    between atoms: C_30  and  C_31 
REMARK    9  A    between atoms: C_34  and  C_37 
ROOT
HETATM    1 Cl   UNK N   1      29.419  42.110  52.394  0.00  0.00    -0.083 Cl
HETATM    2  C   UNK N   1      29.011  42.615  56.383  0.00  0.00     0.070 A 
HETATM    3  C   UNK N   1      29.538  42.418  55.100  0.00  0.00     0.061 A 
HETATM    4  C   UNK N   1      27.616  42.741  56.538  0.00  0.00     0.037 A 
HETATM    5  C   UNK N   1      27.301  42.479  54.138  0.00  0.00    -0.014 A 
HETATM    6  C   UNK N   1      28.698  42.368  53.980  0.00  0.00     0.047 A 
HETATM    7  C   UNK N   1      26.772  42.659  55.429  0.00  0.00     0.016 A 
ENDROOT
BRANCH   2   8
HETATM    8  O   UNK N   1      29.867  42.687  57.440  0.00  0.00    -0.346 OA
BRANCH   8   9
HETATM    9  C   UNK N   1      30.870  43.629  57.577  0.00  0.00     0.219 C 
BRANCH   9  10
HETATM   10  C   UNK N   1      30.917  44.130  58.989  0.00  0.00     0.028 A 
HETATM   11  C   UNK N   1      30.530  45.363  59.482  0.00  0.00     0.090 A 
HETATM   12  O   UNK N   1      30.759  45.381  60.777  0.00  0.00    -0.241 OA
HETATM   13  N   UNK N   1      31.263  44.244  61.178  0.00  0.00    -0.260 N 
HETATM   14  C   UNK N   1      31.375  43.452  60.099  0.00  0.00     0.079 A 
ATOM     15  HN  UNK N   1      31.522  44.004  62.135  1.00  0.00     0.195 HD
BRANCH  11  16
HETATM   16  C   UNK N   1      29.925  46.516  58.722  0.00  0.00     0.038 C 
HETATM   17  C   UNK N   1      30.816  46.872  57.528  0.00  0.00     0.016 C 
HETATM   18  C   UNK N   1      28.514  46.153  58.258  0.00  0.00     0.016 C 
ENDBRANCH  11  16
BRANCH  14  19
HETATM   19  C   UNK N   1      31.923  42.086  60.139  0.00  0.00     0.037 A 
HETATM   20  C   UNK N   1      31.080  40.987  60.405  0.00  0.00     0.048 A 
HETATM   21 Cl   UNK N   1      29.356  41.208  60.692  0.00  0.00    -0.083 Cl
HETATM   22  C   UNK N   1      31.610  39.692  60.430  0.00  0.00     0.025 A 
HETATM   23  C   UNK N   1      32.971  39.485  60.200  0.00  0.00     0.003 A 
HETATM   24  C   UNK N   1      33.811  40.569  59.939  0.00  0.00     0.025 A 
HETATM   25  C   UNK N   1      33.295  41.869  59.904  0.00  0.00     0.048 A 
HETATM   26 Cl   UNK N   1      34.385  43.213  59.579  0.00  0.00    -0.083 Cl
ENDBRANCH  14  19
ENDBRANCH   9  10
ENDBRANCH   8   9
ENDBRANCH   2   8
BRANCH   5  27
HETATM   27  C   UNK N   1      26.397  42.429  52.959  0.00  0.00     0.014 C 
HETATM   28  C   UNK N   1      26.281  43.474  52.117  0.00  0.00     0.012 C 
BRANCH  28  29
HETATM   29  C   UNK N   1      25.409  43.475  50.912  0.00  0.00    -0.035 A 
HETATM   30  C   UNK N   1      25.530  42.509  49.892  0.00  0.00     0.029 A 
HETATM   31  C   UNK N   1      24.728  42.582  48.738  0.00  0.00     0.038 A 
HETATM   32  C   UNK N   1      23.779  43.613  48.625  0.00  0.00     0.018 A 
HETATM   33  C   UNK N   1      23.644  44.560  49.639  0.00  0.00     0.002 A 
HETATM   34  C   UNK N   1      24.461  44.501  50.769  0.00  0.00     0.011 A 
BRANCH  31  35
HETATM   35  C   UNK N   1      24.898  41.601  47.637  0.00  0.00     0.176 C 
HETATM   36  O   UNK N   1      23.987  41.396  46.846  0.00  0.00    -0.646 OA
BRANCH  35  37
HETATM   37  O   UNK N   1      26.050  40.905  47.519  0.00  0.00    -0.773 OA
HETATM   38  H   UNK N   1      26.054  39.938  47.529  0.00  0.00     0.167 HD
ENDBRANCH  35  37
ENDBRANCH  31  35
ENDBRANCH  28  29
ENDBRANCH   5  27
TORSDOF 9
ENDMDL
