REMARK  3 active torsions:
REMARK  status: ('A' for Active; 'I' for Inactive)
REMARK    1  A    between atoms: C_7  and  O_8 
REMARK    2  A    between atoms: C_18  and  O_19 
REMARK    3  A    between atoms: O_19  and  C_20 
ROOT
HETATM    1  O   UNK N   1      -1.251   2.546   1.393  0.00  0.00    -0.259 OA
HETATM    2  C   UNK N   1      -0.782   1.698   0.653  0.00  0.00     0.292 A 
HETATM    3  O   UNK N   1      -0.118   0.628   1.094  0.00  0.00    -0.307 OA
HETATM    4  C   UNK N   1       0.229  -0.223   0.057  0.00  0.00     0.171 A 
HETATM    5  C   UNK N   1       1.701  -0.414  -0.045  0.00  0.00    -0.037 C 
HETATM    6  C   UNK N   1       2.202   0.155  -1.140  0.00  0.00    -0.045 C 
HETATM    7  C   UNK N   1       3.682   0.153  -1.483  0.00  0.00     0.147 C 
HETATM    8  C   UNK N   1       4.571  -0.318  -0.311  0.00  0.00     0.037 C 
HETATM    9  C   UNK N   1       3.941  -1.524   0.379  0.00  0.00     0.016 C 
HETATM   10  C   UNK N   1       2.546  -1.174   0.984  0.00  0.00    -0.021 C 
HETATM   11  C   UNK N   1       1.864  -2.506   1.365  0.00  0.00     0.019 C 
HETATM   12  C   UNK N   1       2.688  -0.316   2.260  0.00  0.00     0.019 C 
HETATM   13  C   UNK N   1       1.164   0.807  -2.001  0.00  0.00     0.049 C 
HETATM   14  C   UNK N   1      -0.168   0.482  -1.284  0.00  0.00     0.065 A 
HETATM   15  C   UNK N   1      -0.909   1.679  -0.778  0.00  0.00     0.046 A 
HETATM   16  C   UNK N   1      -1.626   2.557  -1.493  0.00  0.00     0.152 C 
ENDROOT
BRANCH  16  17
HETATM   17  O   UNK N   1      -1.770   2.419  -2.832  0.00  0.00    -0.328 OA
BRANCH  17  18
HETATM   18  C   UNK N   1      -2.856   2.982  -3.472  0.00  0.00     0.300 A 
HETATM   19  O   UNK N   1      -4.021   2.334  -3.066  0.00  0.00    -0.282 OA
HETATM   20  C   UNK N   1      -4.610   1.733  -4.110  0.00  0.00     0.291 A 
HETATM   21  O   UNK N   1      -5.633   1.074  -4.025  0.00  0.00    -0.260 OA
HETATM   22  C   UNK N   1      -3.865   1.976  -5.309  0.00  0.00     0.014 A 
HETATM   23  C   UNK N   1      -2.818   2.709  -4.964  0.00  0.00     0.046 A 
HETATM   24  C   UNK N   1      -4.207   1.496  -6.686  0.00  0.00     0.054 C 
ENDBRANCH  17  18
ENDBRANCH  16  17
BRANCH   7  25
HETATM   25  O   UNK N   1       4.108   1.420  -1.915  0.00  0.00    -0.391 OA
HETATM   26  H   UNK N   1       3.934   2.061  -1.175  0.00  0.00     0.210 HD
ENDBRANCH   7  25
TORSDOF 3
