REMARK  11 active torsions:
REMARK  status: ('A' for Active; 'I' for Inactive)
REMARK    1  A    between atoms: C_2  and  O_3 
REMARK    2  A    between atoms: C_2  and  C_28 
REMARK    3  A    between atoms: O_3  and  C_4 
REMARK    4  A    between atoms: C_8  and  C_13 
REMARK    5  A    between atoms: C_9  and  O_10 
REMARK    6  A    between atoms: C_15  and  O_16 
REMARK    7  A    between atoms: C_18  and  O_19 
REMARK    8  A    between atoms: C_24  and  O_26 
REMARK    9  A    between atoms: C_30  and  O_31 
REMARK   10  A    between atoms: C_33  and  O_34 
REMARK   11  A    between atoms: C_36  and  O_38 
ROOT
HETATM    1  C   UNK N   1      -2.450  -3.977  -0.234  0.00  0.00     0.091 A 
HETATM    2  C   UNK N   1      -1.345  -3.122  -0.115  0.00  0.00     0.012 A 
HETATM    3  C   UNK N   1      -0.191  -3.570   0.551  0.00  0.00     0.081 A 
HETATM    4  O   UNK N   1       0.894  -2.765   0.650  0.00  0.00    -0.338 OA
HETATM    5  C   UNK N   1       1.054  -1.622  -0.122  0.00  0.00     0.191 C 
HETATM    6  C   UNK N   1      -0.263  -0.831  -0.145  0.00  0.00     0.156 C 
HETATM    7  C   UNK N   1      -1.384  -1.727  -0.705  0.00  0.00     0.079 C 
HETATM    8  C   UNK N   1      -0.160  -4.851   1.113  0.00  0.00     0.074 A 
HETATM    9  C   UNK N   1      -1.267  -5.700   0.995  0.00  0.00     0.071 A 
HETATM   10  C   UNK N   1      -2.412  -5.262   0.315  0.00  0.00     0.074 A 
ENDROOT
BRANCH   1  11
HETATM   11  O   UNK N   1      -3.563  -3.527  -0.841  0.00  0.00    -0.274 OA
BRANCH  11  12
HETATM   12  C   UNK N   1      -4.554  -2.940  -0.123  0.00  0.00     0.298 C 
HETATM   13  O   UNK N   1      -4.679  -3.183   1.070  0.00  0.00    -0.259 OA
BRANCH  12  14
HETATM   14  C   UNK N   1      -5.400  -1.917  -0.766  0.00  0.00     0.045 A 
HETATM   15  C   UNK N   1      -6.365  -1.225  -0.020  0.00  0.00     0.057 A 
HETATM   16  C   UNK N   1      -7.138  -0.223  -0.618  0.00  0.00     0.102 A 
HETATM   17  C   UNK N   1      -6.947   0.093  -1.977  0.00  0.00     0.132 A 
HETATM   18  C   UNK N   1      -5.977  -0.601  -2.726  0.00  0.00     0.102 A 
HETATM   19  C   UNK N   1      -5.211  -1.598  -2.118  0.00  0.00     0.057 A 
BRANCH  16  20
HETATM   20  O   UNK N   1      -8.058   0.444   0.110  0.00  0.00    -0.358 OA
HETATM   21  H   UNK N   1      -8.200   0.252   1.049  0.00  0.00     0.218 HD
ENDBRANCH  16  20
BRANCH  17  22
HETATM   22  O   UNK N   1      -7.682   1.059  -2.569  0.00  0.00    -0.356 OA
HETATM   23  H   UNK N   1      -8.356   1.561  -2.091  0.00  0.00     0.218 HD
ENDBRANCH  17  22
BRANCH  18  24
HETATM   24  O   UNK N   1      -5.765  -0.317  -4.028  0.00  0.00    -0.358 OA
HETATM   25  H   UNK N   1      -6.262   0.366  -4.498  0.00  0.00     0.218 HD
ENDBRANCH  18  24
ENDBRANCH  12  14
ENDBRANCH  11  12
ENDBRANCH   1  11
BRANCH   9  26
HETATM   26  O   UNK N   1      -1.224  -6.932   1.541  0.00  0.00    -0.361 OA
HETATM   27  H   UNK N   1      -1.977  -7.539   1.482  0.00  0.00     0.217 HD
ENDBRANCH   9  26
BRANCH   6  28
HETATM   28  O   UNK N   1      -0.136   0.331  -0.925  0.00  0.00    -0.392 OA
HETATM   29  H   UNK N   1      -0.987   0.836  -0.835  0.00  0.00     0.210 HD
ENDBRANCH   6  28
BRANCH   5  30
HETATM   30  C   UNK N   1       2.192  -0.793   0.426  0.00  0.00    -0.024 A 
HETATM   31  C   UNK N   1       2.921   0.047  -0.429  0.00  0.00     0.049 A 
HETATM   32  C   UNK N   1       3.992   0.807   0.054  0.00  0.00     0.099 A 
HETATM   33  C   UNK N   1       4.345   0.724   1.427  0.00  0.00     0.098 A 
HETATM   34  C   UNK N   1       3.602  -0.101   2.278  0.00  0.00     0.040 A 
HETATM   35  C   UNK N   1       2.536  -0.853   1.787  0.00  0.00     0.013 A 
BRANCH  32  36
HETATM   36  O   UNK N   1       4.655   1.601  -0.816  0.00  0.00    -0.358 OA
HETATM   37  H   UNK N   1       5.380   2.186  -0.571  0.00  0.00     0.218 HD
ENDBRANCH  32  36
BRANCH  33  38
HETATM   38  O   UNK N   1       5.384   1.410   1.951  0.00  0.00    -0.358 OA
HETATM   39  H   UNK N   1       5.984   1.960   1.435  0.00  0.00     0.218 HD
ENDBRANCH  33  38
ENDBRANCH   5  30
TORSDOF 11
