REMARK  9 active torsions:
REMARK  status: ('A' for Active; 'I' for Inactive)
REMARK    1  A    between atoms: C_2  and  O_3 
REMARK    2  A    between atoms: C_2  and  C_5 
REMARK    3  A    between atoms: C_8  and  C_9 
REMARK    4  A    between atoms: C_9  and  O_10 
REMARK    5  A    between atoms: C_9  and  C_12 
REMARK    6  A    between atoms: C_12  and  C_13 
REMARK    7  A    between atoms: C_13  and  C_14 
REMARK    8  A    between atoms: C_14  and  C_15 
REMARK    9  A    between atoms: C_15  and  O_16 
ROOT
HETATM    1  C   UNK N   1       0.655  -1.167   0.471  0.00  0.00     0.081 C 
HETATM    2  C   UNK N   1       1.245  -0.321   1.625  0.00  0.00     0.051 C 
ENDROOT
BRANCH   1   3
HETATM    3  C   UNK N   1      -0.548  -0.485  -0.223  0.00  0.00    -0.024 A 
HETATM    4  C   UNK N   1      -1.002   0.803   0.145  0.00  0.00     0.011 A 
HETATM    5  C   UNK N   1      -2.093   1.389  -0.500  0.00  0.00     0.019 A 
HETATM    6  C   UNK N   1      -2.765   0.713  -1.527  0.00  0.00     0.037 A 
HETATM    7  C   UNK N   1      -2.321  -0.565  -1.906  0.00  0.00     0.019 A 
HETATM    8  C   UNK N   1      -1.227  -1.155  -1.264  0.00  0.00     0.011 A 
BRANCH   6   9
HETATM    9  C   UNK N   1      -3.930   1.343  -2.199  0.00  0.00     0.176 C 
HETATM   10  O   UNK N   1      -4.519   0.757  -3.093  0.00  0.00    -0.646 OA
BRANCH   9  11
HETATM   11  O   UNK N   1      -4.348   2.571  -1.816  0.00  0.00    -0.773 OA
HETATM   12  H   UNK N   1      -5.109   2.996  -2.236  0.00  0.00     0.167 HD
ENDBRANCH   9  11
ENDBRANCH   6   9
ENDBRANCH   1   3
BRANCH   1  13
HETATM   13  O   UNK N   1       0.220  -2.367   1.070  0.00  0.00    -0.385 OA
HETATM   14  H   UNK N   1      -0.069  -2.999   0.362  0.00  0.00     0.211 HD
ENDBRANCH   1  13
BRANCH   1  15
HETATM   15  C   UNK N   1       1.793  -1.484  -0.555  0.00  0.00     0.042 C 
BRANCH  15  16
HETATM   16  C   UNK N   1       2.315  -0.241  -1.301  0.00  0.00     0.006 C 
BRANCH  16  17
HETATM   17  C   UNK N   1       3.445  -0.583  -2.289  0.00  0.00     0.037 C 
BRANCH  17  18
HETATM   18  C   UNK N   1       4.000   0.653  -3.057  0.00  0.00     0.051 C 
HETATM   19  C   UNK N   1       5.149   0.197  -3.969  0.00  0.00     0.045 C 
HETATM   20  C   UNK N   1       2.920   1.315  -3.947  0.00  0.00     0.045 C 
BRANCH  18  21
HETATM   21  O   UNK N   1       4.535   1.591  -2.149  0.00  0.00    -0.391 OA
HETATM   22  H   UNK N   1       3.790   2.102  -1.741  0.00  0.00     0.210 HD
ENDBRANCH  18  21
ENDBRANCH  17  18
ENDBRANCH  16  17
ENDBRANCH  15  16
ENDBRANCH   1  15
TORSDOF 9
