REMARK  13 active torsions:
REMARK  status: ('A' for Active; 'I' for Inactive)
REMARK    1  A    between atoms: C_2  and  O_3 
REMARK    2  A    between atoms: O_3  and  C_4 
REMARK    3  A    between atoms: C_5  and  O_6 
REMARK    4  A    between atoms: C_9  and  C_10 
REMARK    5  A    between atoms: C_14  and  O_15 
REMARK    6  A    between atoms: C_19  and  C_20 
REMARK    7  A    between atoms: C_22  and  O_23 
REMARK    8  A    between atoms: C_25  and  O_26 
REMARK    9  A    between atoms: C_32  and  O_33 
REMARK   10  A    between atoms: C_35  and  O_36 
REMARK   11  A    between atoms: C_38  and  O_39 
REMARK   12  A    between atoms: C_41  and  C_42 
REMARK   13  A    between atoms: C_42  and  O_43 
ROOT
HETATM    1  C   UNK N   1      -5.433   0.589  -0.592  0.00  0.00     0.105 A 
HETATM    2  C   UNK N   1      -5.300   1.021   0.733  0.00  0.00     0.102 A 
HETATM    3  C   UNK N   1      -4.498   0.308   1.631  0.00  0.00     0.049 A 
HETATM    4  C   UNK N   1      -3.786  -0.829   1.211  0.00  0.00    -0.024 A 
HETATM    5  C   UNK N   1      -3.884  -1.232  -0.135  0.00  0.00     0.013 A 
HETATM    6  C   UNK N   1      -4.705  -0.536  -1.026  0.00  0.00     0.040 A 
ENDROOT
BRANCH   4   7
HETATM    7  C   UNK N   1      -2.984  -1.634   2.228  0.00  0.00     0.191 C 
HETATM    8  O   UNK N   1      -2.341  -2.758   1.605  0.00  0.00    -0.377 OA
HETATM    9  C   UNK N   1      -0.931  -2.500   1.603  0.00  0.00     0.179 C 
HETATM   10  C   UNK N   1      -0.803  -1.032   1.933  0.00  0.00     0.082 C 
HETATM   11  C   UNK N   1      -1.843  -0.893   2.945  0.00  0.00     0.117 C 
HETATM   12  C   UNK N   1       0.339  -0.308   2.630  0.00  0.00     0.163 C 
HETATM   13  C   UNK N   1      -1.698   0.600   3.184  0.00  0.00     0.210 C 
HETATM   14  O   UNK N   1      -0.288   0.817   3.261  0.00  0.00    -0.378 OA
BRANCH  11  15
HETATM   15  O   UNK N   1      -1.500  -1.550   4.163  0.00  0.00    -0.384 OA
HETATM   16  H   UNK N   1      -1.770  -2.505   4.149  0.00  0.00     0.210 HD
ENDBRANCH  11  15
BRANCH  12  17
HETATM   17  C   UNK N   1       1.452   0.089   1.687  0.00  0.00    -0.026 A 
HETATM   18  C   UNK N   1       1.765   1.442   1.477  0.00  0.00     0.049 A 
HETATM   19  C   UNK N   1       2.814   1.812   0.613  0.00  0.00     0.101 A 
HETATM   20  C   UNK N   1       3.553   0.808  -0.043  0.00  0.00     0.099 A 
HETATM   21  C   UNK N   1       3.239  -0.540   0.169  0.00  0.00     0.040 A 
HETATM   22  C   UNK N   1       2.197  -0.899   1.027  0.00  0.00     0.012 A 
BRANCH  19  23
HETATM   23  O   UNK N   1       3.133   3.119   0.397  0.00  0.00    -0.353 OA
HETATM   24  C   UNK N   1       2.492   4.197   0.976  0.00  0.00     0.210 C 
ENDBRANCH  19  23
BRANCH  20  25
HETATM   25  O   UNK N   1       4.568   1.120  -0.875  0.00  0.00    -0.358 OA
HETATM   26  H   UNK N   1       4.828   2.035  -1.054  0.00  0.00     0.218 HD
ENDBRANCH  20  25
ENDBRANCH  12  17
ENDBRANCH   4   7
BRANCH   2  27
HETATM   27  O   UNK N   1      -5.982   2.109   1.153  0.00  0.00    -0.353 OA
HETATM   28  C   UNK N   1      -5.373   3.342   1.236  0.00  0.00     0.210 C 
ENDBRANCH   2  27
BRANCH   1  29
HETATM   29  O   UNK N   1      -6.295   1.254  -1.405  0.00  0.00    -0.315 OA
BRANCH  29  30
HETATM   30  C   UNK N   1      -6.854   0.742  -2.561  0.00  0.00     0.298 C 
HETATM   31  O   UNK N   1      -5.938   0.849  -3.639  0.00  0.00    -0.348 OA
HETATM   32  C   UNK N   1      -6.469   0.209  -4.793  0.00  0.00     0.179 C 
HETATM   33  C   UNK N   1      -7.743   0.946  -5.284  0.00  0.00     0.180 C 
HETATM   34  C   UNK N   1      -8.784   0.977  -4.149  0.00  0.00     0.183 C 
HETATM   35  C   UNK N   1      -8.133   1.539  -2.876  0.00  0.00     0.205 C 
BRANCH  32  36
HETATM   36  C   UNK N   1      -5.395   0.200  -5.888  0.00  0.00     0.198 C 
BRANCH  36  37
HETATM   37  O   UNK N   1      -4.258  -0.472  -5.423  0.00  0.00    -0.398 OA
HETATM   38  H   UNK N   1      -3.601  -0.446  -6.166  0.00  0.00     0.209 HD
ENDBRANCH  36  37
ENDBRANCH  32  36
BRANCH  33  39
HETATM   39  O   UNK N   1      -8.273   0.278  -6.402  0.00  0.00    -0.390 OA
HETATM   40  H   UNK N   1      -8.883   0.911  -6.860  0.00  0.00     0.210 HD
ENDBRANCH  33  39
BRANCH  34  41
HETATM   41  O   UNK N   1      -9.882   1.780  -4.498  0.00  0.00    -0.390 OA
HETATM   42  H   UNK N   1     -10.453   1.246  -5.108  0.00  0.00     0.210 HD
ENDBRANCH  34  41
BRANCH  35  43
HETATM   43  O   UNK N   1      -9.035   1.498  -1.796  0.00  0.00    -0.388 OA
HETATM   44  H   UNK N   1      -9.228   0.543  -1.599  0.00  0.00     0.210 HD
ENDBRANCH  35  43
ENDBRANCH  29  30
ENDBRANCH   1  29
TORSDOF 13
