REMARK  10 active torsions:
REMARK  status: ('A' for Active; 'I' for Inactive)
REMARK    1  A    between atoms: O_1  and  C_2 
REMARK    2  A    between atoms: C_3  and  O_4 
REMARK    3  A    between atoms: C_8  and  C_10 
REMARK    4  A    between atoms: C_10  and  O_11 
REMARK    5  A    between atoms: C_10  and  C_13 
REMARK    6  A    between atoms: C_13  and  C_14 
REMARK    7  A    between atoms: C_13  and  C_17 
REMARK    8  A    between atoms: C_14  and  O_15 
REMARK    9  A    between atoms: C_19  and  O_20 
REMARK   10  A    between atoms: C_22  and  O_23 
ROOT
HETATM    1  C   UNK N   1      -0.784   0.450   0.009  0.00  0.00     0.075 C 
ENDROOT
BRANCH   1   2
HETATM    2  C   UNK N   1      -1.283  -0.872  -0.633  0.00  0.00     0.161 C 
BRANCH   2   3
HETATM    3  C   UNK N   1      -2.718  -0.756  -1.113  0.00  0.00    -0.026 A 
HETATM    4  C   UNK N   1      -3.706  -1.599  -0.588  0.00  0.00     0.012 A 
HETATM    5  C   UNK N   1      -5.024  -1.500  -1.029  0.00  0.00     0.040 A 
HETATM    6  C   UNK N   1      -5.383  -0.556  -2.000  0.00  0.00     0.099 A 
HETATM    7  C   UNK N   1      -4.403   0.302  -2.540  0.00  0.00     0.101 A 
HETATM    8  C   UNK N   1      -3.071   0.193  -2.095  0.00  0.00     0.049 A 
BRANCH   6   9
HETATM    9  O   UNK N   1      -6.668  -0.489  -2.401  0.00  0.00    -0.358 OA
HETATM   10  H   UNK N   1      -6.971   0.142  -3.070  0.00  0.00     0.218 HD
ENDBRANCH   6   9
BRANCH   7  11
HETATM   11  O   UNK N   1      -4.777   1.216  -3.482  0.00  0.00    -0.353 OA
HETATM   12  C   UNK N   1      -3.941   2.130  -4.092  0.00  0.00     0.210 C 
ENDBRANCH   7  11
ENDBRANCH   2   3
BRANCH   2  13
HETATM   13  O   UNK N   1      -0.467  -1.197  -1.731  0.00  0.00    -0.390 OA
HETATM   14  H   UNK N   1      -0.690  -2.130  -1.991  0.00  0.00     0.210 HD
ENDBRANCH   2  13
ENDBRANCH   1   2
BRANCH   1  15
HETATM   15  C   UNK N   1      -1.652   0.877   1.216  0.00  0.00     0.176 C 
BRANCH  15  16
HETATM   16  O   UNK N   1      -1.187   2.086   1.749  0.00  0.00    -0.400 OA
HETATM   17  H   UNK N   1      -1.703   2.234   2.585  0.00  0.00     0.209 HD
ENDBRANCH  15  16
ENDBRANCH   1  15
BRANCH   1  18
HETATM   18  C   UNK N   1       0.703   0.352   0.342  0.00  0.00    -0.046 A 
HETATM   19  C   UNK N   1       1.642   0.853  -0.581  0.00  0.00     0.047 A 
HETATM   20  C   UNK N   1       3.025   0.755  -0.333  0.00  0.00     0.101 A 
HETATM   21  C   UNK N   1       3.469   0.172   0.870  0.00  0.00     0.099 A 
HETATM   22  C   UNK N   1       2.537  -0.325   1.789  0.00  0.00     0.040 A 
HETATM   23  C   UNK N   1       1.167  -0.252   1.525  0.00  0.00     0.011 A 
BRANCH  20  24
HETATM   24  O   UNK N   1       3.950   1.193  -1.234  0.00  0.00    -0.353 OA
HETATM   25  C   UNK N   1       3.672   1.683  -2.495  0.00  0.00     0.210 C 
ENDBRANCH  20  24
BRANCH  21  26
HETATM   26  O   UNK N   1       4.784   0.073   1.153  0.00  0.00    -0.358 OA
HETATM   27  H   UNK N   1       5.470   0.404   0.555  0.00  0.00     0.218 HD
ENDBRANCH  21  26
ENDBRANCH   1  18
TORSDOF 10
