REMARK  6 active torsions:
REMARK  status: ('A' for Active; 'I' for Inactive)
REMARK    1  A    between atoms: C_4  and  O_5 
REMARK    2  A    between atoms: C_8  and  O_10 
REMARK    3  A    between atoms: C_13  and  O_14 
REMARK    4  A    between atoms: C_16  and  C_17 
REMARK    5  A    between atoms: C_19  and  O_20 
REMARK    6  A    between atoms: C_22  and  O_23 
ROOT
HETATM    1  O   UNK N   1      -1.422   0.874   0.136  0.00  0.00    -0.338 OA
HETATM    2  C   UNK N   1      -2.697   1.145  -0.246  0.00  0.00     0.081 A 
HETATM    3  C   UNK N   1      -3.138   0.839  -1.553  0.00  0.00     0.011 A 
HETATM    4  C   UNK N   1      -4.469   1.094  -1.920  0.00  0.00     0.077 A 
HETATM    5  C   UNK N   1      -5.349   1.668  -0.991  0.00  0.00     0.073 A 
HETATM    6  C   UNK N   1      -4.910   1.982   0.299  0.00  0.00     0.071 A 
HETATM    7  C   UNK N   1      -3.582   1.722   0.669  0.00  0.00     0.074 A 
HETATM    8  C   UNK N   1      -2.187   0.216  -2.542  0.00  0.00     0.079 C 
HETATM    9  C   UNK N   1      -0.730   0.352  -2.090  0.00  0.00     0.156 C 
HETATM   10  C   UNK N   1      -0.583   0.034  -0.583  0.00  0.00     0.191 C 
ENDROOT
BRANCH  10  11
HETATM   11  C   UNK N   1       0.832   0.172  -0.038  0.00  0.00    -0.024 A 
HETATM   12  C   UNK N   1       1.903   0.638  -0.831  0.00  0.00     0.049 A 
HETATM   13  C   UNK N   1       3.192   0.739  -0.309  0.00  0.00     0.099 A 
HETATM   14  C   UNK N   1       3.433   0.382   1.027  0.00  0.00     0.098 A 
HETATM   15  C   UNK N   1       2.375  -0.072   1.828  0.00  0.00     0.040 A 
HETATM   16  C   UNK N   1       1.084  -0.176   1.300  0.00  0.00     0.013 A 
BRANCH  13  17
HETATM   17  O   UNK N   1       4.183   1.181  -1.109  0.00  0.00    -0.358 OA
HETATM   18  H   UNK N   1       5.098   1.263  -0.807  0.00  0.00     0.218 HD
ENDBRANCH  13  17
BRANCH  14  19
HETATM   19  O   UNK N   1       4.681   0.477   1.532  0.00  0.00    -0.358 OA
HETATM   20  H   UNK N   1       4.880   0.237   2.447  0.00  0.00     0.218 HD
ENDBRANCH  14  19
ENDBRANCH  10  11
BRANCH   9  21
HETATM   21  O   UNK N   1       0.091  -0.457  -2.896  0.00  0.00    -0.392 OA
HETATM   22  H   UNK N   1      -0.097  -1.403  -2.660  0.00  0.00     0.210 HD
ENDBRANCH   9  21
BRANCH   4  23
HETATM   23  O   UNK N   1      -4.893   0.796  -3.167  0.00  0.00    -0.360 OA
HETATM   24  H   UNK N   1      -5.799   0.974  -3.455  0.00  0.00     0.217 HD
ENDBRANCH   4  23
BRANCH   6  25
HETATM   25  O   UNK N   1      -5.773   2.527   1.180  0.00  0.00    -0.361 OA
HETATM   26  H   UNK N   1      -5.505   2.747   2.083  0.00  0.00     0.217 HD
ENDBRANCH   6  25
TORSDOF 6
