REMARK  15 active torsions:
REMARK  status: ('A' for Active; 'I' for Inactive)
REMARK    1  A    between atoms: C_2  and  O_3 
REMARK    2  A    between atoms: O_3  and  C_4 
REMARK    3  A    between atoms: C_4  and  C_5 
REMARK    4  A    between atoms: C_6  and  C_21 
REMARK    5  A    between atoms: C_9  and  C_10 
REMARK    6  A    between atoms: C_10  and  C_11 
REMARK    7  A    between atoms: C_13  and  O_14 
REMARK    8  A    between atoms: C_16  and  O_17 
REMARK    9  A    between atoms: C_23  and  O_24 
REMARK   10  A    between atoms: C_26  and  O_27 
REMARK   11  A    between atoms: C_31  and  O_32 
REMARK   12  A    between atoms: C_34  and  O_35 
REMARK   13  A    between atoms: C_37  and  O_38 
REMARK   14  A    between atoms: C_40  and  C_41 
REMARK   15  A    between atoms: C_41  and  O_42 
ROOT
HETATM    1  C   UNK N   1       1.444   0.512  -2.418  0.00  0.00     0.049 C 
HETATM    2  C   UNK N   1       0.582  -0.580  -3.082  0.00  0.00     0.161 C 
HETATM    3  O   UNK N   1       0.708  -1.769  -2.313  0.00  0.00    -0.380 OA
HETATM    4  C   UNK N   1       1.431  -1.448  -1.142  0.00  0.00     0.174 C 
HETATM    5  C   UNK N   1       1.368   0.060  -0.966  0.00  0.00     0.022 C 
ENDROOT
BRANCH   1   6
HETATM    6  C   UNK N   1       2.866   0.535  -3.025  0.00  0.00     0.179 C 
BRANCH   6   7
HETATM    7  O   UNK N   1       3.577   1.589  -2.416  0.00  0.00    -0.358 OA
BRANCH   7   8
HETATM    8  C   UNK N   1       4.894   1.705  -2.905  0.00  0.00     0.291 C 
HETATM    9  O   UNK N   1       5.597   0.489  -2.694  0.00  0.00    -0.348 OA
HETATM   10  C   UNK N   1       6.907   0.565  -3.232  0.00  0.00     0.179 C 
HETATM   11  C   UNK N   1       7.733   1.591  -2.420  0.00  0.00     0.180 C 
HETATM   12  C   UNK N   1       7.039   2.964  -2.499  0.00  0.00     0.183 C 
HETATM   13  C   UNK N   1       5.563   2.838  -2.093  0.00  0.00     0.204 C 
BRANCH  10  14
HETATM   14  C   UNK N   1       7.540  -0.831  -3.174  0.00  0.00     0.198 C 
BRANCH  14  15
HETATM   15  O   UNK N   1       6.810  -1.734  -3.962  0.00  0.00    -0.398 OA
HETATM   16  H   UNK N   1       5.981  -1.951  -3.461  0.00  0.00     0.209 HD
ENDBRANCH  14  15
ENDBRANCH  10  14
BRANCH  11  17
HETATM   17  O   UNK N   1       9.058   1.678  -2.884  0.00  0.00    -0.390 OA
HETATM   18  H   UNK N   1       9.025   1.949  -3.839  0.00  0.00     0.210 HD
ENDBRANCH  11  17
BRANCH  12  19
HETATM   19  O   UNK N   1       7.703   3.916  -1.704  0.00  0.00    -0.390 OA
HETATM   20  H   UNK N   1       7.665   3.599  -0.762  0.00  0.00     0.210 HD
ENDBRANCH  12  19
BRANCH  13  21
HETATM   21  O   UNK N   1       4.919   4.066  -2.322  0.00  0.00    -0.388 OA
HETATM   22  H   UNK N   1       4.011   4.003  -1.925  0.00  0.00     0.210 HD
ENDBRANCH  13  21
ENDBRANCH   7   8
ENDBRANCH   6   7
ENDBRANCH   1   6
BRANCH   2  23
HETATM   23  C   UNK N   1      -0.872  -0.160  -3.229  0.00  0.00    -0.026 A 
HETATM   24  C   UNK N   1      -1.921  -0.880  -2.628  0.00  0.00     0.049 A 
HETATM   25  C   UNK N   1      -3.264  -0.490  -2.823  0.00  0.00     0.101 A 
HETATM   26  C   UNK N   1      -3.548   0.634  -3.626  0.00  0.00     0.099 A 
HETATM   27  C   UNK N   1      -2.503   1.348  -4.219  0.00  0.00     0.040 A 
HETATM   28  C   UNK N   1      -1.180   0.955  -4.026  0.00  0.00     0.012 A 
BRANCH  25  29
HETATM   29  O   UNK N   1      -4.299  -1.176  -2.264  0.00  0.00    -0.353 OA
HETATM   30  C   UNK N   1      -4.172  -2.302  -1.477  0.00  0.00     0.210 C 
ENDBRANCH  25  29
BRANCH  26  31
HETATM   31  O   UNK N   1      -4.817   1.036  -3.842  0.00  0.00    -0.358 OA
HETATM   32  H   UNK N   1      -5.580   0.575  -3.465  0.00  0.00     0.218 HD
ENDBRANCH  26  31
ENDBRANCH   2  23
BRANCH   5  33
HETATM   33  C   UNK N   1       2.434   0.632  -0.002  0.00  0.00     0.045 C 
BRANCH  33  34
HETATM   34  C   UNK N   1       2.309   0.114   1.406  0.00  0.00    -0.055 A 
HETATM   35  C   UNK N   1       1.543   0.815   2.346  0.00  0.00     0.046 A 
HETATM   36  C   UNK N   1       1.447   0.355   3.677  0.00  0.00     0.101 A 
HETATM   37  C   UNK N   1       2.132  -0.819   4.052  0.00  0.00     0.099 A 
HETATM   38  C   UNK N   1       2.898  -1.513   3.108  0.00  0.00     0.040 A 
HETATM   39  C   UNK N   1       2.989  -1.050   1.795  0.00  0.00     0.010 A 
BRANCH  36  40
HETATM   40  O   UNK N   1       0.715   1.020   4.612  0.00  0.00    -0.353 OA
HETATM   41  C   UNK N   1       0.011   2.185   4.385  0.00  0.00     0.210 C 
ENDBRANCH  36  40
BRANCH  37  42
HETATM   42  O   UNK N   1       2.069  -1.291   5.315  0.00  0.00    -0.358 OA
HETATM   43  H   UNK N   1       1.557  -0.851   6.008  0.00  0.00     0.218 HD
ENDBRANCH  37  42
ENDBRANCH  33  34
ENDBRANCH   5  33
TORSDOF 15
