REMARK  10 active torsions:
REMARK  status: ('A' for Active; 'I' for Inactive)
REMARK    1  A    between atoms: C_2  and  C_3 
REMARK    2  A    between atoms: C_5  and  O_6 
REMARK    3  A    between atoms: C_8  and  O_9 
REMARK    4  A    between atoms: C_13  and  C_14 
REMARK    5  A    between atoms: C_14  and  O_15 
REMARK    6  A    between atoms: C_17  and  C_29 
REMARK    7  A    between atoms: C_18  and  C_19 
REMARK    8  A    between atoms: C_21  and  O_22 
REMARK    9  A    between atoms: C_24  and  O_25 
REMARK   10  A    between atoms: C_29  and  O_30 
ROOT
HETATM    1  O   UNK N   1      -0.438   0.450  -0.611  0.00  0.00    -0.370 OA
HETATM    2  C   UNK N   1      -0.759   0.220  -1.972  0.00  0.00     0.162 C 
HETATM    3  C   UNK N   1       0.224   1.048  -2.809  0.00  0.00     0.052 C 
HETATM    4  C   UNK N   1       1.470   0.815  -1.993  0.00  0.00     0.052 C 
HETATM    5  C   UNK N   1       0.873   0.992  -0.590  0.00  0.00     0.162 C 
ENDROOT
BRANCH   2   6
HETATM    6  C   UNK N   1      -2.206   0.574  -2.232  0.00  0.00    -0.026 A 
HETATM    7  C   UNK N   1      -3.098  -0.391  -2.735  0.00  0.00     0.049 A 
HETATM    8  C   UNK N   1      -4.454  -0.063  -2.959  0.00  0.00     0.101 A 
HETATM    9  C   UNK N   1      -4.902   1.244  -2.674  0.00  0.00     0.099 A 
HETATM   10  C   UNK N   1      -4.009   2.196  -2.175  0.00  0.00     0.040 A 
HETATM   11  C   UNK N   1      -2.674   1.866  -1.954  0.00  0.00     0.012 A 
BRANCH   8  12
HETATM   12  O   UNK N   1      -5.348  -0.973  -3.437  0.00  0.00    -0.353 OA
HETATM   13  C   UNK N   1      -5.069  -2.288  -3.750  0.00  0.00     0.210 C 
ENDBRANCH   8  12
BRANCH   9  14
HETATM   14  O   UNK N   1      -6.190   1.598  -2.871  0.00  0.00    -0.358 OA
HETATM   15  H   UNK N   1      -6.852   0.981  -3.213  0.00  0.00     0.218 HD
ENDBRANCH   9  14
ENDBRANCH   2   6
BRANCH   3  16
HETATM   16  C   UNK N   1       0.339   0.627  -4.285  0.00  0.00     0.172 C 
BRANCH  16  17
HETATM   17  O   UNK N   1      -0.889   0.766  -4.946  0.00  0.00    -0.400 OA
HETATM   18  H   UNK N   1      -1.040   1.740  -5.063  0.00  0.00     0.209 HD
ENDBRANCH  16  17
ENDBRANCH   3  16
BRANCH   5  19
HETATM   19  C   UNK N   1       1.710   0.327   0.480  0.00  0.00    -0.026 A 
HETATM   20  C   UNK N   1       2.628   1.080   1.229  0.00  0.00     0.049 A 
HETATM   21  C   UNK N   1       3.432   0.462   2.211  0.00  0.00     0.101 A 
HETATM   22  C   UNK N   1       3.279  -0.918   2.456  0.00  0.00     0.099 A 
HETATM   23  C   UNK N   1       2.353  -1.661   1.717  0.00  0.00     0.040 A 
HETATM   24  C   UNK N   1       1.583  -1.049   0.728  0.00  0.00     0.012 A 
BRANCH  21  25
HETATM   25  O   UNK N   1       4.362   1.159   2.921  0.00  0.00    -0.353 OA
HETATM   26  C   UNK N   1       4.693   2.484   2.717  0.00  0.00     0.210 C 
ENDBRANCH  21  25
BRANCH  22  27
HETATM   27  O   UNK N   1       4.021  -1.547   3.393  0.00  0.00    -0.358 OA
HETATM   28  H   UNK N   1       4.683  -1.085   3.927  0.00  0.00     0.218 HD
ENDBRANCH  22  27
ENDBRANCH   5  19
BRANCH   4  29
HETATM   29  C   UNK N   1       2.625   1.781  -2.331  0.00  0.00     0.172 C 
BRANCH  29  30
HETATM   30  O   UNK N   1       3.724   1.576  -1.489  0.00  0.00    -0.400 OA
HETATM   31  H   UNK N   1       4.153   0.731  -1.783  0.00  0.00     0.209 HD
ENDBRANCH  29  30
ENDBRANCH   4  29
TORSDOF 10
