REMARK  10 active torsions:
REMARK  status: ('A' for Active; 'I' for Inactive)
REMARK    1  A    between atoms: O_1  and  C_2 
REMARK    2  A    between atoms: C_3  and  O_4 
REMARK    3  A    between atoms: C_8  and  C_10 
REMARK    4  A    between atoms: C_10  and  O_11 
REMARK    5  A    between atoms: C_10  and  C_13 
REMARK    6  A    between atoms: C_13  and  C_14 
REMARK    7  A    between atoms: C_13  and  C_17 
REMARK    8  A    between atoms: C_14  and  O_15 
REMARK    9  A    between atoms: C_19  and  O_20 
REMARK   10  A    between atoms: C_22  and  O_23 
ROOT
HETATM    1  C   UNK N   1      -0.682   0.525  -0.153  0.00  0.00     0.075 C 
ENDROOT
BRANCH   1   2
HETATM    2  C   UNK N   1      -1.030  -0.337  -1.407  0.00  0.00     0.161 C 
BRANCH   2   3
HETATM    3  C   UNK N   1      -2.523  -0.400  -1.671  0.00  0.00    -0.026 A 
HETATM    4  C   UNK N   1      -3.299  -1.405  -1.078  0.00  0.00     0.012 A 
HETATM    5  C   UNK N   1      -4.670  -1.474  -1.326  0.00  0.00     0.040 A 
HETATM    6  C   UNK N   1      -5.288  -0.542  -2.169  0.00  0.00     0.099 A 
HETATM    7  C   UNK N   1      -4.522   0.474  -2.776  0.00  0.00     0.101 A 
HETATM    8  C   UNK N   1      -3.138   0.534  -2.522  0.00  0.00     0.049 A 
BRANCH   6   9
HETATM    9  O   UNK N   1      -6.616  -0.637  -2.387  0.00  0.00    -0.358 OA
HETATM   10  H   UNK N   1      -7.092  -0.020  -2.962  0.00  0.00     0.218 HD
ENDBRANCH   6   9
BRANCH   7  11
HETATM   11  O   UNK N   1      -5.138   1.373  -3.593  0.00  0.00    -0.353 OA
HETATM   12  C   UNK N   1      -4.507   2.414  -4.245  0.00  0.00     0.210 C 
ENDBRANCH   7  11
ENDBRANCH   2   3
BRANCH   2  13
HETATM   13  O   UNK N   1      -0.356   0.133  -2.549  0.00  0.00    -0.390 OA
HETATM   14  H   UNK N   1      -0.524  -0.517  -3.281  0.00  0.00     0.210 HD
ENDBRANCH   2  13
ENDBRANCH   1   2
BRANCH   1  15
HETATM   15  C   UNK N   1      -1.077   2.012  -0.279  0.00  0.00     0.176 C 
BRANCH  15  16
HETATM   16  O   UNK N   1      -2.472   2.152  -0.265  0.00  0.00    -0.400 OA
HETATM   17  H   UNK N   1      -2.662   3.095  -0.021  0.00  0.00     0.209 HD
ENDBRANCH  15  16
ENDBRANCH   1  15
BRANCH   1  18
HETATM   18  C   UNK N   1       0.797   0.418   0.207  0.00  0.00    -0.046 A 
HETATM   19  C   UNK N   1       1.806   0.845  -0.677  0.00  0.00     0.047 A 
HETATM   20  C   UNK N   1       3.168   0.736  -0.323  0.00  0.00     0.101 A 
HETATM   21  C   UNK N   1       3.513   0.215   0.939  0.00  0.00     0.099 A 
HETATM   22  C   UNK N   1       2.509  -0.197   1.820  0.00  0.00     0.040 A 
HETATM   23  C   UNK N   1       1.166  -0.103   1.459  0.00  0.00     0.011 A 
BRANCH  20  24
HETATM   24  O   UNK N   1       4.162   1.119  -1.172  0.00  0.00    -0.353 OA
HETATM   25  C   UNK N   1       3.974   1.586  -2.458  0.00  0.00     0.210 C 
ENDBRANCH  20  24
BRANCH  21  26
HETATM   26  O   UNK N   1       4.803   0.104   1.320  0.00  0.00    -0.358 OA
HETATM   27  H   UNK N   1       5.537   0.376   0.751  0.00  0.00     0.218 HD
ENDBRANCH  21  26
ENDBRANCH   1  18
TORSDOF 10
