REMARK  4 active torsions:
REMARK  status: ('A' for Active; 'I' for Inactive)
REMARK    1  A    between atoms: C_8  and  O_10 
REMARK    2  A    between atoms: O_10  and  C_11 
REMARK    3  A    between atoms: C_11  and  C_12 
REMARK    4  A    between atoms: C_13  and  O_14 
ROOT
HETATM    1  C   UNK N   1      -2.847   1.245   0.442  0.00  0.00     0.052 C 
HETATM    2  C   UNK N   1      -3.225   1.823   1.869  0.00  0.00     0.060 C 
HETATM    3  C   UNK N   1      -4.765   1.831   2.035  0.00  0.00     0.038 C 
HETATM    4  C   UNK N   1      -5.517   2.490   0.870  0.00  0.00     0.009 C 
HETATM    5  C   UNK N   1      -5.185   1.764  -0.465  0.00  0.00     0.009 C 
HETATM    6  C   UNK N   1      -6.185   2.076  -1.653  0.00  0.00     0.017 C 
HETATM    7  C   UNK N   1      -5.691   1.288  -2.866  0.00  0.00     0.135 C 
HETATM    8  O   UNK N   1      -6.425   0.506  -3.456  0.00  0.00    -0.297 OA
HETATM    9  C   UNK N   1      -4.255   1.393  -3.280  0.00  0.00     0.080 C 
HETATM   10  C   UNK N   1      -3.367   1.013  -2.081  0.00  0.00     0.017 C 
HETATM   11  C   UNK N   1      -3.636   1.880  -0.797  0.00  0.00    -0.030 C 
HETATM   12  C   UNK N   1      -3.152   3.335  -1.099  0.00  0.00     0.016 C 
HETATM   13  C   UNK N   1      -7.614   1.584  -1.283  0.00  0.00     0.023 C 
HETATM   14  C   UNK N   1      -6.319   3.576  -2.004  0.00  0.00     0.023 C 
HETATM   15  C   UNK N   1      -2.656   3.227   2.178  0.00  0.00     0.046 C 
ENDROOT
BRANCH   1  16
HETATM   16  C   UNK N   1      -1.312   1.194   0.225  0.00  0.00     0.184 C 
BRANCH  16  17
HETATM   17  O   UNK N   1      -0.681   0.439   1.192  0.00  0.00    -0.351 OA
BRANCH  17  18
HETATM   18  C   UNK N   1       0.661   0.220   1.217  0.00  0.00     0.071 A 
HETATM   19  C   UNK N   1       1.191  -0.606   2.217  0.00  0.00     0.038 A 
HETATM   20  C   UNK N   1       2.566  -0.855   2.277  0.00  0.00     0.017 A 
HETATM   21  C   UNK N   1       3.425  -0.275   1.333  0.00  0.00    -0.002 A 
HETATM   22  C   UNK N   1       2.901   0.556   0.322  0.00  0.00     0.092 A 
HETATM   23  C   UNK N   1       4.804  -0.498   1.364  0.00  0.00     0.020 A 
HETATM   24  O   UNK N   1       3.707   1.112  -0.578  0.00  0.00    -0.275 OA
HETATM   25  C   UNK N   1       1.530   0.799   0.266  0.00  0.00     0.075 A 
HETATM   26  C   UNK N   1       5.024   0.919  -0.573  0.00  0.00     0.288 A 
HETATM   27  O   UNK N   1       5.716   1.453  -1.418  0.00  0.00    -0.260 OA
HETATM   28  C   UNK N   1       5.613   0.105   0.402  0.00  0.00     0.083 A 
ENDBRANCH  17  18
ENDBRANCH  16  17
ENDBRANCH   1  16
BRANCH   2  29
HETATM   29  O   UNK N   1      -2.684   0.990   2.872  0.00  0.00    -0.390 OA
HETATM   30  H   UNK N   1      -3.039   0.070   2.751  0.00  0.00     0.210 HD
ENDBRANCH   2  29
TORSDOF 4
