REMARK  9 active torsions:
REMARK  status: ('A' for Active; 'I' for Inactive)
REMARK    1  A    between atoms: O_1  and  C_2 
REMARK    2  A    between atoms: C_3  and  O_4 
REMARK    3  A    between atoms: C_8  and  C_10 
REMARK    4  A    between atoms: C_14  and  O_15 
REMARK    5  A    between atoms: C_17  and  O_19 
REMARK    6  A    between atoms: C_22  and  C_23 
REMARK    7  A    between atoms: C_23  and  O_24 
REMARK    8  A    between atoms: C_26  and  C_27 
REMARK    9  A    between atoms: C_27  and  O_28 
ROOT
HETATM    1  C   UNK N   1       0.802   1.709  -0.951  0.00  0.00     0.059 C 
HETATM    2  C   UNK N   1      -0.577   1.452  -1.546  0.00  0.00    -0.040 A 
HETATM    3  C   UNK N   1      -0.749   1.212  -2.925  0.00  0.00    -0.048 A 
HETATM    4  C   UNK N   1      -2.028   0.955  -3.435  0.00  0.00     0.047 A 
HETATM    5  C   UNK N   1      -3.156   0.961  -2.594  0.00  0.00     0.101 A 
HETATM    6  C   UNK N   1      -2.988   1.225  -1.223  0.00  0.00     0.099 A 
HETATM    7  C   UNK N   1      -1.709   1.471  -0.710  0.00  0.00     0.047 A 
HETATM    8  C   UNK N   1       0.409   1.259  -3.882  0.00  0.00     0.046 C 
HETATM    9  C   UNK N   1       1.609   2.064  -3.339  0.00  0.00     0.020 C 
HETATM   10  C   UNK N   1       1.989   1.492  -1.949  0.00  0.00     0.028 C 
ENDROOT
BRANCH   1  11
HETATM   11  C   UNK N   1       1.023   0.831   0.276  0.00  0.00    -0.046 A 
HETATM   12  C   UNK N   1       0.996  -0.571   0.174  0.00  0.00     0.011 A 
HETATM   13  C   UNK N   1       1.215  -1.364   1.301  0.00  0.00     0.040 A 
HETATM   14  C   UNK N   1       1.468  -0.777   2.545  0.00  0.00     0.099 A 
HETATM   15  C   UNK N   1       1.496   0.627   2.666  0.00  0.00     0.101 A 
HETATM   16  C   UNK N   1       1.267   1.423   1.524  0.00  0.00     0.047 A 
BRANCH  14  17
HETATM   17  O   UNK N   1       1.684  -1.574   3.613  0.00  0.00    -0.358 OA
HETATM   18  H   UNK N   1       1.868  -1.221   4.495  0.00  0.00     0.218 HD
ENDBRANCH  14  17
BRANCH  15  19
HETATM   19  O   UNK N   1       1.750   1.181   3.884  0.00  0.00    -0.353 OA
HETATM   20  C   UNK N   1       1.828   2.536   4.136  0.00  0.00     0.210 C 
ENDBRANCH  15  19
ENDBRANCH   1  11
BRANCH  10  21
HETATM   21  C   UNK N   1       3.280   2.114  -1.352  0.00  0.00     0.170 C 
BRANCH  21  22
HETATM   22  O   UNK N   1       4.413   1.659  -2.038  0.00  0.00    -0.400 OA
HETATM   23  H   UNK N   1       5.199   1.985  -1.527  0.00  0.00     0.209 HD
ENDBRANCH  21  22
ENDBRANCH  10  21
BRANCH   9  24
HETATM   24  C   UNK N   1       2.751   2.030  -4.378  0.00  0.00     0.169 C 
BRANCH  24  25
HETATM   25  O   UNK N   1       2.308   2.556  -5.599  0.00  0.00    -0.400 OA
HETATM   26  H   UNK N   1       3.087   2.526  -6.213  0.00  0.00     0.209 HD
ENDBRANCH  24  25
ENDBRANCH   9  24
BRANCH   6  27
HETATM   27  O   UNK N   1      -4.045   1.246  -0.383  0.00  0.00    -0.358 OA
HETATM   28  H   UNK N   1      -4.950   1.081  -0.683  0.00  0.00     0.218 HD
ENDBRANCH   6  27
BRANCH   5  29
HETATM   29  O   UNK N   1      -4.409   0.733  -3.078  0.00  0.00    -0.353 OA
HETATM   30  C   UNK N   1      -4.715   0.499  -4.404  0.00  0.00     0.210 C 
ENDBRANCH   5  29
TORSDOF 9
