REMARK  3 active torsions:
REMARK  status: ('A' for Active; 'I' for Inactive)
REMARK    1  A    between atoms: C_6  and  C_8 
REMARK    2  A    between atoms: C_20  and  O_21 
REMARK    3  A    between atoms: O_21  and  C_22 
ROOT
HETATM    1  O   UNK N   1      -4.720   0.752  -3.595  0.00  0.00    -0.287 OA
HETATM    2  C   UNK N   1      -3.610   1.170  -3.316  0.00  0.00     0.187 A 
HETATM    3  C   UNK N   1      -3.217   1.343  -1.981  0.00  0.00     0.049 A 
HETATM    4  C   UNK N   1      -1.911   1.828  -1.724  0.00  0.00     0.100 A 
HETATM    5  O   UNK N   1      -1.103   2.161  -2.726  0.00  0.00    -0.308 OA
HETATM    6  C   UNK N   1      -1.445   1.999  -4.004  0.00  0.00     0.090 A 
HETATM    7  C   UNK N   1      -2.706   1.477  -4.335  0.00  0.00     0.094 A 
HETATM    8  C   UNK N   1      -1.484   1.938  -0.397  0.00  0.00     0.022 A 
HETATM    9  C   UNK N   1      -2.320   1.647   0.631  0.00  0.00     0.082 A 
HETATM   10  O   UNK N   1      -1.730   1.813   1.814  0.00  0.00    -0.319 OA
HETATM   11  C   UNK N   1      -0.387   2.132   1.664  0.00  0.00     0.278 C 
HETATM   12  O   UNK N   1       0.387   1.003   2.057  0.00  0.00    -0.347 OA
HETATM   13  C   UNK N   1       1.010   0.464   0.903  0.00  0.00     0.084 C 
HETATM   14  C   UNK N   1       1.090   1.612  -0.114  0.00  0.00     0.179 C 
HETATM   15  C   UNK N   1      -0.173   2.400   0.144  0.00  0.00     0.112 C 
HETATM   16  C   UNK N   1       0.209  -0.760   0.396  0.00  0.00     0.048 C 
HETATM   17  C   UNK N   1       2.424  -0.015   1.278  0.00  0.00     0.048 C 
HETATM   18  C   UNK N   1      -3.625   1.206   0.424  0.00  0.00     0.038 A 
HETATM   19  C   UNK N   1      -4.078   1.042  -0.895  0.00  0.00     0.021 A 
ENDROOT
BRANCH   6  20
HETATM   20  C   UNK N   1      -0.479   2.377  -5.054  0.00  0.00    -0.002 A 
HETATM   21  C   UNK N   1       0.315   3.525  -4.891  0.00  0.00     0.014 A 
HETATM   22  C   UNK N   1       1.231   3.894  -5.880  0.00  0.00     0.001 A 
HETATM   23  C   UNK N   1       1.387   3.102  -7.020  0.00  0.00     0.000 A 
HETATM   24  C   UNK N   1       0.615   1.949  -7.182  0.00  0.00     0.001 A 
HETATM   25  C   UNK N   1      -0.327   1.594  -6.212  0.00  0.00     0.014 A 
ENDBRANCH   6  20
BRANCH  14  26
HETATM   26  O   UNK N   1       1.239   1.198  -1.429  0.00  0.00    -0.312 OA
BRANCH  26  27
HETATM   27  C   UNK N   1       2.433   1.084  -2.068  0.00  0.00     0.255 C 
HETATM   28  O   UNK N   1       3.479   1.379  -1.506  0.00  0.00    -0.266 OA
HETATM   29  C   UNK N   1       2.468   0.568  -3.471  0.00  0.00     0.126 C 
ENDBRANCH  26  27
ENDBRANCH  14  26
TORSDOF 3
