REMARK  8 active torsions:
REMARK  status: ('A' for Active; 'I' for Inactive)
REMARK    1  A    between atoms: C_3  and  C_17 
REMARK    2  A    between atoms: C_4  and  C_6 
REMARK    3  A    between atoms: C_6  and  C_7 
REMARK    4  A    between atoms: C_9  and  O_10 
REMARK    5  A    between atoms: C_12  and  O_13 
REMARK    6  A    between atoms: C_17  and  C_18 
REMARK    7  A    between atoms: C_20  and  O_21 
REMARK    8  A    between atoms: C_23  and  O_24 
ROOT
HETATM    1  O   UNK N   1      -1.362  -3.314   1.471  0.00  0.00    -0.390 OA
HETATM    2  C   UNK N   1      -1.981  -3.095   0.216  0.00  0.00     0.172 C 
HETATM    3  C   UNK N   1      -1.746  -1.639  -0.169  0.00  0.00     0.020 C 
HETATM    4  C   UNK N   1      -0.368  -1.445   0.395  0.00  0.00     0.020 C 
HETATM    5  C   UNK N   1      -0.518  -2.202   1.709  0.00  0.00     0.172 C 
ENDROOT
BRANCH   3   6
HETATM    6  C   UNK N   1      -1.817  -1.391  -1.692  0.00  0.00     0.045 C 
BRANCH   6   7
HETATM    7  C   UNK N   1      -3.226  -1.250  -2.187  0.00  0.00    -0.055 A 
HETATM    8  C   UNK N   1      -3.804   0.025  -2.214  0.00  0.00     0.046 A 
HETATM    9  C   UNK N   1      -5.113   0.213  -2.691  0.00  0.00     0.101 A 
HETATM   10  C   UNK N   1      -5.842  -0.903  -3.148  0.00  0.00     0.099 A 
HETATM   11  C   UNK N   1      -5.260  -2.179  -3.118  0.00  0.00     0.040 A 
HETATM   12  C   UNK N   1      -3.958  -2.354  -2.640  0.00  0.00     0.010 A 
BRANCH   9  13
HETATM   13  O   UNK N   1      -5.688   1.447  -2.725  0.00  0.00    -0.353 OA
HETATM   14  C   UNK N   1      -5.076   2.614  -2.307  0.00  0.00     0.210 C 
ENDBRANCH   9  13
BRANCH  10  15
HETATM   15  O   UNK N   1      -7.099  -0.766  -3.619  0.00  0.00    -0.358 OA
HETATM   16  H   UNK N   1      -7.542   0.094  -3.667  0.00  0.00     0.218 HD
ENDBRANCH  10  15
ENDBRANCH   6   7
ENDBRANCH   3   6
BRANCH   4  17
HETATM   17  C   UNK N   1       0.003   0.042   0.586  0.00  0.00     0.045 C 
BRANCH  17  18
HETATM   18  C   UNK N   1       1.471   0.245   0.820  0.00  0.00    -0.055 A 
HETATM   19  C   UNK N   1       2.306   0.447  -0.287  0.00  0.00     0.046 A 
HETATM   20  C   UNK N   1       3.684   0.666  -0.119  0.00  0.00     0.101 A 
HETATM   21  C   UNK N   1       4.222   0.683   1.184  0.00  0.00     0.099 A 
HETATM   22  C   UNK N   1       3.383   0.480   2.289  0.00  0.00     0.040 A 
HETATM   23  C   UNK N   1       2.013   0.262   2.110  0.00  0.00     0.010 A 
BRANCH  20  24
HETATM   24  O   UNK N   1       4.508   0.865  -1.185  0.00  0.00    -0.353 OA
HETATM   25  C   UNK N   1       4.101   0.872  -2.506  0.00  0.00     0.210 C 
ENDBRANCH  20  24
BRANCH  21  26
HETATM   26  O   UNK N   1       5.538   0.896   1.389  0.00  0.00    -0.358 OA
HETATM   27  H   UNK N   1       6.157   1.049   0.660  0.00  0.00     0.218 HD
ENDBRANCH  21  26
ENDBRANCH  17  18
ENDBRANCH   4  17
TORSDOF 8
