REMARK  9 active torsions:
REMARK  status: ('A' for Active; 'I' for Inactive)
REMARK    1  A    between atoms: C_2  and  C_3 
REMARK    2  A    between atoms: C_2  and  C_13 
REMARK    3  A    between atoms: C_5  and  O_6 
REMARK    4  A    between atoms: C_8  and  O_9 
REMARK    5  A    between atoms: C_13  and  C_14 
REMARK    6  A    between atoms: C_13  and  C_17 
REMARK    7  A    between atoms: C_14  and  O_15 
REMARK    8  A    between atoms: C_19  and  O_20 
REMARK    9  A    between atoms: C_22  and  O_23 
ROOT
HETATM    1  C   UNK N   1       1.866   0.342  -1.533  0.00  0.00     0.117 C 
ENDROOT
BRANCH   1   2
HETATM    2  C   UNK N   1       0.910  -0.698  -2.091  0.00  0.00     0.170 C 
HETATM    3  O   UNK N   1       1.181  -1.885  -1.964  0.00  0.00    -0.291 OA
BRANCH   2   4
HETATM    4  C   UNK N   1      -0.482  -0.310  -2.433  0.00  0.00     0.013 A 
HETATM    5  C   UNK N   1      -1.533  -1.153  -2.038  0.00  0.00     0.054 A 
HETATM    6  C   UNK N   1      -2.873  -0.783  -2.252  0.00  0.00     0.102 A 
HETATM    7  C   UNK N   1      -3.156   0.427  -2.917  0.00  0.00     0.099 A 
HETATM    8  C   UNK N   1      -2.106   1.254  -3.333  0.00  0.00     0.040 A 
HETATM    9  C   UNK N   1      -0.780   0.901  -3.080  0.00  0.00     0.018 A 
BRANCH   6  10
HETATM   10  O   UNK N   1      -3.907  -1.551  -1.806  0.00  0.00    -0.353 OA
HETATM   11  C   UNK N   1      -3.773  -2.668  -1.004  0.00  0.00     0.210 C 
ENDBRANCH   6  10
BRANCH   7  12
HETATM   12  O   UNK N   1      -4.427   0.815  -3.147  0.00  0.00    -0.358 OA
HETATM   13  H   UNK N   1      -5.188   0.288  -2.866  0.00  0.00     0.218 HD
ENDBRANCH   7  12
ENDBRANCH   2   4
ENDBRANCH   1   2
BRANCH   1  14
HETATM   14  C   UNK N   1       3.311   0.156  -2.028  0.00  0.00     0.181 C 
BRANCH  14  15
HETATM   15  O   UNK N   1       4.121   1.228  -1.621  0.00  0.00    -0.400 OA
HETATM   16  H   UNK N   1       4.174   1.203  -0.631  0.00  0.00     0.209 HD
ENDBRANCH  14  15
ENDBRANCH   1  14
BRANCH   1  17
HETATM   17  C   UNK N   1       1.744   0.273  -0.015  0.00  0.00    -0.042 A 
HETATM   18  C   UNK N   1       1.262   1.381   0.703  0.00  0.00     0.047 A 
HETATM   19  C   UNK N   1       1.079   1.308   2.101  0.00  0.00     0.101 A 
HETATM   20  C   UNK N   1       1.378   0.107   2.775  0.00  0.00     0.099 A 
HETATM   21  C   UNK N   1       1.870  -0.989   2.061  0.00  0.00     0.040 A 
HETATM   22  C   UNK N   1       2.058  -0.910   0.684  0.00  0.00     0.011 A 
BRANCH  19  23
HETATM   23  O   UNK N   1       0.613   2.365   2.821  0.00  0.00    -0.353 OA
HETATM   24  C   UNK N   1       0.310   3.609   2.307  0.00  0.00     0.210 C 
ENDBRANCH  19  23
BRANCH  20  25
HETATM   25  O   UNK N   1       1.196  -0.011   4.107  0.00  0.00    -0.358 OA
HETATM   26  H   UNK N   1       0.844   0.709   4.648  0.00  0.00     0.218 HD
ENDBRANCH  20  25
ENDBRANCH   1  17
TORSDOF 9
