REMARK  10 active torsions:
REMARK  status: ('A' for Active; 'I' for Inactive)
REMARK    1  A    between atoms: C_6  and  C_10 
REMARK    2  A    between atoms: C_7  and  O_8 
REMARK    3  A    between atoms: C_12  and  O_13 
REMARK    4  A    between atoms: C_17  and  C_18 
REMARK    5  A    between atoms: C_20  and  O_21 
REMARK    6  A    between atoms: C_23  and  O_24 
REMARK    7  A    between atoms: C_28  and  C_29 
REMARK    8  A    between atoms: C_29  and  O_30 
REMARK    9  A    between atoms: C_35  and  O_36 
REMARK   10  A    between atoms: C_39  and  O_40 
ROOT
HETATM    1  C   UNK N   1      -3.520   2.166  -1.839  0.00  0.00    -0.023 A 
HETATM    2  C   UNK N   1      -3.221   3.325  -1.076  0.00  0.00     0.049 A 
HETATM    3  C   UNK N   1      -2.123   3.340  -0.194  0.00  0.00     0.100 A 
HETATM    4  C   UNK N   1      -1.343   2.189  -0.091  0.00  0.00     0.109 A 
HETATM    5  O   UNK N   1      -0.295   2.010   0.715  0.00  0.00    -0.337 OA
HETATM    6  C   UNK N   1       0.061   0.668   0.732  0.00  0.00     0.172 C 
HETATM    7  C   UNK N   1      -0.573   0.056  -0.565  0.00  0.00     0.079 C 
HETATM    8  C   UNK N   1      -1.610   1.083  -0.831  0.00  0.00    -0.012 A 
HETATM    9  C   UNK N   1      -2.676   1.034  -1.719  0.00  0.00     0.020 A 
ENDROOT
BRANCH   1  10
HETATM   10  C   UNK N   1      -4.749   2.190  -2.741  0.00  0.00     0.198 C 
HETATM   11  O   UNK N   1      -4.552   3.139  -3.729  0.00  0.00    -0.337 OA
HETATM   12  C   UNK N   1      -3.730   2.909  -4.784  0.00  0.00     0.089 A 
HETATM   13  C   UNK N   1      -3.449   1.582  -5.211  0.00  0.00     0.079 A 
HETATM   14  C   UNK N   1      -3.167   3.997  -5.452  0.00  0.00     0.074 A 
HETATM   15  C   UNK N   1      -4.163   0.480  -4.487  0.00  0.00     0.196 C 
HETATM   16  C   UNK N   1      -2.566   1.386  -6.313  0.00  0.00     0.085 A 
HETATM   17  O   UNK N   1      -4.092  -0.683  -4.849  0.00  0.00    -0.289 OA
HETATM   18  C   UNK N   1      -5.130   0.838  -3.388  0.00  0.00     0.227 C 
HETATM   19  C   UNK N   1      -2.010   2.500  -6.956  0.00  0.00     0.074 A 
HETATM   20  C   UNK N   1      -2.310   3.797  -6.534  0.00  0.00     0.071 A 
BRANCH  18  21
HETATM   21  O   UNK N   1      -6.434   0.874  -3.911  0.00  0.00    -0.385 OA
HETATM   22  H   UNK N   1      -6.486   1.633  -4.549  0.00  0.00     0.210 HD
ENDBRANCH  18  21
BRANCH  16  23
HETATM   23  O   UNK N   1      -2.225   0.166  -6.791  0.00  0.00    -0.360 OA
HETATM   24  H   UNK N   1      -2.496  -0.678  -6.421  0.00  0.00     0.217 HD
ENDBRANCH  16  23
BRANCH  20  25
HETATM   25  O   UNK N   1      -1.762   4.848  -7.179  0.00  0.00    -0.361 OA
HETATM   26  H   UNK N   1      -1.948   5.759  -6.911  0.00  0.00     0.217 HD
ENDBRANCH  20  25
ENDBRANCH   1  10
BRANCH   3  27
HETATM   27  O   UNK N   1      -1.837   4.428   0.549  0.00  0.00    -0.358 OA
HETATM   28  H   UNK N   1      -2.374   5.232   0.495  0.00  0.00     0.218 HD
ENDBRANCH   3  27
BRANCH   7  29
HETATM   29  C   UNK N   1      -1.068  -1.383  -0.406  0.00  0.00     0.176 C 
BRANCH  29  30
HETATM   30  O   UNK N   1      -2.044  -1.462   0.594  0.00  0.00    -0.400 OA
HETATM   31  H   UNK N   1      -2.343  -2.407   0.607  0.00  0.00     0.209 HD
ENDBRANCH  29  30
ENDBRANCH   7  29
BRANCH   6  32
HETATM   32  C   UNK N   1       1.540   0.435   0.853  0.00  0.00    -0.025 A 
HETATM   33  C   UNK N   1       2.413   0.936  -0.119  0.00  0.00     0.049 A 
HETATM   34  C   UNK N   1       3.801   0.716  -0.017  0.00  0.00     0.101 A 
HETATM   35  C   UNK N   1       4.305  -0.014   1.079  0.00  0.00     0.099 A 
HETATM   36  C   UNK N   1       3.426  -0.511   2.049  0.00  0.00     0.040 A 
HETATM   37  C   UNK N   1       2.054  -0.289   1.938  0.00  0.00     0.012 A 
BRANCH  34  38
HETATM   38  O   UNK N   1       4.667   1.191  -0.954  0.00  0.00    -0.353 OA
HETATM   39  C   UNK N   1       4.293   1.908  -2.072  0.00  0.00     0.210 C 
ENDBRANCH  34  38
BRANCH  35  40
HETATM   40  O   UNK N   1       5.627  -0.246   1.214  0.00  0.00    -0.358 OA
HETATM   41  H   UNK N   1       6.276   0.076   0.573  0.00  0.00     0.218 HD
ENDBRANCH  35  40
ENDBRANCH   6  32
TORSDOF 10
