REMARK  14 active torsions:
REMARK  status: ('A' for Active; 'I' for Inactive)
REMARK    1  A    between atoms: C_5  and  C_32 
REMARK    2  A    between atoms: C_6  and  C_7 
REMARK    3  A    between atoms: C_7  and  C_8 
REMARK    4  A    between atoms: C_10  and  O_11 
REMARK    5  A    between atoms: C_13  and  O_14 
REMARK    6  A    between atoms: O_14  and  C_15 
REMARK    7  A    between atoms: C_17  and  C_27 
REMARK    8  A    between atoms: C_18  and  O_19 
REMARK    9  A    between atoms: C_21  and  O_22 
REMARK   10  A    between atoms: C_24  and  O_25 
REMARK   11  A    between atoms: C_27  and  O_28 
REMARK   12  A    between atoms: C_32  and  C_33 
REMARK   13  A    between atoms: C_35  and  O_36 
REMARK   14  A    between atoms: C_38  and  O_39 
ROOT
HETATM    1  C   UNK N   1       0.687  -0.679   1.733  0.00  0.00    -0.055 A 
HETATM    2  C   UNK N   1       1.526   0.303   2.283  0.00  0.00     0.046 A 
HETATM    3  C   UNK N   1       2.409   1.035   1.460  0.00  0.00     0.102 A 
HETATM    4  C   UNK N   1       2.436   0.787   0.075  0.00  0.00     0.105 A 
HETATM    5  C   UNK N   1       1.577  -0.192  -0.469  0.00  0.00     0.040 A 
HETATM    6  C   UNK N   1       0.722  -0.920   0.354  0.00  0.00     0.010 A 
ENDROOT
BRANCH   1   7
HETATM    7  C   UNK N   1      -0.231  -1.492   2.617  0.00  0.00     0.053 C 
BRANCH   7   8
HETATM    8  C   UNK N   1      -1.523  -0.760   3.041  0.00  0.00     0.096 C 
HETATM    9  C   UNK N   1      -1.375   0.538   3.749  0.00  0.00     0.263 C 
HETATM   10  O   UNK N   1      -0.675   0.702   4.735  0.00  0.00    -0.265 OA
HETATM   11  O   UNK N   1      -2.276   1.451   3.353  0.00  0.00    -0.321 OA
HETATM   12  C   UNK N   1      -3.160   0.912   2.445  0.00  0.00     0.184 C 
HETATM   13  C   UNK N   1      -2.371  -0.264   1.849  0.00  0.00     0.028 C 
BRANCH  13  14
HETATM   14  C   UNK N   1      -3.171  -1.363   1.130  0.00  0.00     0.046 C 
BRANCH  14  15
HETATM   15  C   UNK N   1      -3.964  -0.814  -0.027  0.00  0.00    -0.055 A 
HETATM   16  C   UNK N   1      -5.235  -0.261   0.191  0.00  0.00     0.046 A 
HETATM   17  C   UNK N   1      -5.986   0.252  -0.887  0.00  0.00     0.102 A 
HETATM   18  C   UNK N   1      -5.442   0.215  -2.181  0.00  0.00     0.101 A 
HETATM   19  C   UNK N   1      -4.174  -0.340  -2.397  0.00  0.00     0.040 A 
HETATM   20  C   UNK N   1      -3.441  -0.857  -1.328  0.00  0.00     0.010 A 
BRANCH  17  21
HETATM   21  O   UNK N   1      -7.227   0.784  -0.715  0.00  0.00    -0.353 OA
HETATM   22  C   UNK N   1      -7.896   0.865   0.489  0.00  0.00     0.210 C 
ENDBRANCH  17  21
BRANCH  18  23
HETATM   23  O   UNK N   1      -6.142   0.709  -3.224  0.00  0.00    -0.353 OA
HETATM   24  C   UNK N   1      -6.011   2.022  -3.617  0.00  0.00     0.210 C 
ENDBRANCH  18  23
ENDBRANCH  14  15
ENDBRANCH  13  14
ENDBRANCH   7   8
ENDBRANCH   1   7
BRANCH   3  25
HETATM   25  O   UNK N   1       3.269   1.959   1.974  0.00  0.00    -0.353 OA
HETATM   26  C   UNK N   1       3.447   2.219   3.320  0.00  0.00     0.210 C 
ENDBRANCH   3  25
BRANCH   4  27
HETATM   27  O   UNK N   1       3.327   1.466  -0.699  0.00  0.00    -0.315 OA
BRANCH  27  28
HETATM   28  C   UNK N   1       3.713   1.088  -1.980  0.00  0.00     0.298 C 
HETATM   29  O   UNK N   1       2.703   1.354  -2.947  0.00  0.00    -0.348 OA
HETATM   30  C   UNK N   1       2.508   2.746  -3.169  0.00  0.00     0.179 C 
HETATM   31  C   UNK N   1       3.806   3.428  -3.673  0.00  0.00     0.180 C 
HETATM   32  C   UNK N   1       4.915   3.218  -2.631  0.00  0.00     0.183 C 
HETATM   33  C   UNK N   1       5.065   1.712  -2.376  0.00  0.00     0.205 C 
BRANCH  30  34
HETATM   34  C   UNK N   1       1.374   2.911  -4.196  0.00  0.00     0.198 C 
BRANCH  34  35
HETATM   35  O   UNK N   1       1.709   2.322  -5.426  0.00  0.00    -0.398 OA
HETATM   36  H   UNK N   1       1.583   1.343  -5.320  0.00  0.00     0.209 HD
ENDBRANCH  34  35
ENDBRANCH  30  34
BRANCH  31  37
HETATM   37  O   UNK N   1       3.586   4.802  -3.869  0.00  0.00    -0.390 OA
HETATM   38  H   UNK N   1       4.313   5.127  -4.463  0.00  0.00     0.210 HD
ENDBRANCH  31  37
BRANCH  32  39
HETATM   39  O   UNK N   1       6.132   3.779  -3.058  0.00  0.00    -0.390 OA
HETATM   40  H   UNK N   1       6.400   3.320  -3.897  0.00  0.00     0.210 HD
ENDBRANCH  32  39
BRANCH  33  41
HETATM   41  O   UNK N   1       6.054   1.443  -1.413  0.00  0.00    -0.388 OA
HETATM   42  H   UNK N   1       5.811   1.930  -0.582  0.00  0.00     0.210 HD
ENDBRANCH  33  41
ENDBRANCH  27  28
ENDBRANCH   4  27
TORSDOF 14
