REMARK  10 active torsions:
REMARK  status: ('A' for Active; 'I' for Inactive)
REMARK    1  A    between atoms: C_2  and  O_3 
REMARK    2  A    between atoms: C_2  and  C_18 
REMARK    3  A    between atoms: O_3  and  C_4 
REMARK    4  A    between atoms: C_5  and  O_6 
REMARK    5  A    between atoms: C_9  and  C_10 
REMARK    6  A    between atoms: C_10  and  O_12 
REMARK    7  A    between atoms: C_15  and  O_16 
REMARK    8  A    between atoms: C_19  and  O_20 
REMARK    9  A    between atoms: C_22  and  O_23 
REMARK   10  A    between atoms: C_25  and  O_26 
ROOT
HETATM    1  O   UNK N   1       0.232  -2.760  -0.069  0.00  0.00    -0.259 OA
HETATM    2  C   UNK N   1       0.122  -1.571  -0.347  0.00  0.00     0.297 C 
ENDROOT
BRANCH   2   3
HETATM    3  O   UNK N   1      -1.073  -0.940  -0.295  0.00  0.00    -0.306 OA
BRANCH   3   4
HETATM    4  C   UNK N   1      -2.233  -1.568   0.085  0.00  0.00     0.193 C 
HETATM    5  C   UNK N   1      -3.153  -0.568   0.802  0.00  0.00     0.173 C 
HETATM    6  C   UNK N   1      -3.829   0.367  -0.150  0.00  0.00     0.021 C 
HETATM    7  C   UNK N   1      -3.902   0.158  -1.490  0.00  0.00     0.017 C 
HETATM    8  C   UNK N   1      -3.317  -1.066  -2.147  0.00  0.00     0.079 C 
HETATM    9  C   UNK N   1      -2.918  -2.167  -1.148  0.00  0.00     0.155 C 
BRANCH   5  10
HETATM   10  O   UNK N   1      -2.428   0.194   1.735  0.00  0.00    -0.389 OA
HETATM   11  H   UNK N   1      -2.015  -0.441   2.375  0.00  0.00     0.210 HD
ENDBRANCH   5  10
BRANCH   7  12
HETATM   12  C   UNK N   1      -4.537   1.181  -2.343  0.00  0.00     0.171 C 
HETATM   13  O   UNK N   1      -5.027   0.880  -3.424  0.00  0.00    -0.646 OA
BRANCH  12  14
HETATM   14  O   UNK N   1      -4.524   2.466  -1.953  0.00  0.00    -0.773 OA
HETATM   15  H   UNK N   1      -4.011   2.722  -1.173  0.00  0.00     0.167 HD
ENDBRANCH  12  14
ENDBRANCH   7  12
BRANCH   9  16
HETATM   16  O   UNK N   1      -4.054  -2.873  -0.729  0.00  0.00    -0.393 OA
HETATM   17  H   UNK N   1      -4.430  -3.305  -1.540  0.00  0.00     0.210 HD
ENDBRANCH   9  16
ENDBRANCH   3   4
ENDBRANCH   2   3
BRANCH   2  18
HETATM   18  C   UNK N   1       1.283  -0.801  -0.735  0.00  0.00     0.081 A 
HETATM   19  C   UNK N   1       1.596  -0.664  -2.099  0.00  0.00     0.118 A 
HETATM   20  C   UNK N   1       2.680   0.122  -2.481  0.00  0.00     0.133 A 
HETATM   21  C   UNK N   1       3.445   0.776  -1.515  0.00  0.00     0.102 A 
HETATM   22  C   UNK N   1       3.123   0.654  -0.166  0.00  0.00     0.047 A 
HETATM   23  C   UNK N   1       2.048  -0.129   0.239  0.00  0.00    -0.040 A 
HETATM   24  C   UNK N   1       1.736  -0.238   1.707  0.00  0.00     0.049 C 
BRANCH  19  25
HETATM   25  O   UNK N   1       0.854  -1.291  -3.034  0.00  0.00    -0.357 OA
HETATM   26  H   UNK N   1       1.080  -1.213  -3.972  0.00  0.00     0.218 HD
ENDBRANCH  19  25
BRANCH  20  27
HETATM   27  O   UNK N   1       2.992   0.252  -3.786  0.00  0.00    -0.356 OA
HETATM   28  H   UNK N   1       3.747   0.784  -4.064  0.00  0.00     0.218 HD
ENDBRANCH  20  27
BRANCH  21  29
HETATM   29  O   UNK N   1       4.495   1.522  -1.881  0.00  0.00    -0.358 OA
HETATM   30  H   UNK N   1       5.034   1.960  -1.212  0.00  0.00     0.218 HD
ENDBRANCH  21  29
ENDBRANCH   2  18
TORSDOF 10
