REMARK  3 active torsions:
REMARK  status: ('A' for Active; 'I' for Inactive)
REMARK    1  A    between atoms: C_6  and  O_9 
REMARK    2  A    between atoms: C_13  and  C_14 
REMARK    3  A    between atoms: C_17  and  O_18 
ROOT
HETATM    1  O   UNK N   1      -0.161   0.288  -0.928  0.00  0.00    -0.340 OA
HETATM    2  C   UNK N   1       1.011   0.303  -0.234  0.00  0.00     0.084 A 
HETATM    3  C   UNK N   1       1.037  -0.141   1.105  0.00  0.00    -0.024 A 
HETATM    4  C   UNK N   1       2.248  -0.184   1.800  0.00  0.00     0.013 A 
HETATM    5  C   UNK N   1       3.425   0.241   1.188  0.00  0.00     0.038 A 
HETATM    6  C   UNK N   1       3.414   0.720  -0.140  0.00  0.00     0.076 A 
HETATM    7  C   UNK N   1       2.193   0.751  -0.855  0.00  0.00     0.005 A 
HETATM    8  C   UNK N   1       2.140   1.241  -2.280  0.00  0.00     0.054 C 
HETATM    9  C   UNK N   1      -0.236  -0.588   1.785  0.00  0.00     0.044 C 
HETATM   10  C   UNK N   1      -1.480  -0.138   1.002  0.00  0.00     0.042 C 
HETATM   11  C   UNK N   1      -1.267  -0.425  -0.487  0.00  0.00     0.162 C 
ENDROOT
BRANCH  11  12
HETATM   12  C   UNK N   1      -2.478  -0.064  -1.315  0.00  0.00    -0.029 A 
HETATM   13  C   UNK N   1      -3.156  -1.060  -2.039  0.00  0.00     0.012 A 
HETATM   14  C   UNK N   1      -4.279  -0.735  -2.805  0.00  0.00     0.037 A 
HETATM   15  C   UNK N   1      -4.737   0.584  -2.859  0.00  0.00     0.065 A 
HETATM   16  C   UNK N   1      -4.064   1.584  -2.142  0.00  0.00     0.037 A 
HETATM   17  C   UNK N   1      -2.940   1.263  -1.374  0.00  0.00     0.012 A 
BRANCH  15  18
HETATM   18  O   UNK N   1      -5.823   0.882  -3.602  0.00  0.00    -0.361 OA
HETATM   19  H   UNK N   1      -6.167   1.784  -3.662  0.00  0.00     0.217 HD
ENDBRANCH  15  18
ENDBRANCH  11  12
BRANCH   6  20
HETATM   20  O   UNK N   1       4.557   1.130  -0.756  0.00  0.00    -0.355 OA
HETATM   21  C   UNK N   1       5.822   1.080  -0.203  0.00  0.00     0.210 C 
ENDBRANCH   6  20
TORSDOF 3
