REMARK  13 active torsions:
REMARK  status: ('A' for Active; 'I' for Inactive)
REMARK    1  A    between atoms: O_1  and  C_2 
REMARK    2  A    between atoms: C_3  and  O_4 
REMARK    3  A    between atoms: C_8  and  C_10 
REMARK    4  A    between atoms: C_10  and  C_11 
REMARK    5  A    between atoms: C_11  and  C_12 
REMARK    6  A    between atoms: C_11  and  C_15 
REMARK    7  A    between atoms: C_12  and  O_13 
REMARK    8  A    between atoms: C_15  and  C_16 
REMARK    9  A    between atoms: C_15  and  C_19 
REMARK   10  A    between atoms: C_16  and  O_17 
REMARK   11  A    between atoms: C_19  and  C_20 
REMARK   12  A    between atoms: C_22  and  O_23 
REMARK   13  A    between atoms: C_25  and  O_26 
ROOT
HETATM    1  C   UNK N   1       0.360   0.201  -1.874  0.00  0.00     0.020 C 
ENDROOT
BRANCH   1   2
HETATM    2  C   UNK N   1      -0.370   1.339  -2.630  0.00  0.00     0.045 C 
BRANCH   2   3
HETATM    3  C   UNK N   1      -1.864   1.245  -2.465  0.00  0.00    -0.055 A 
HETATM    4  C   UNK N   1      -2.489   1.896  -1.391  0.00  0.00     0.010 A 
HETATM    5  C   UNK N   1      -3.864   1.818  -1.218  0.00  0.00     0.040 A 
HETATM    6  C   UNK N   1      -4.658   1.084  -2.118  0.00  0.00     0.099 A 
HETATM    7  C   UNK N   1      -4.036   0.423  -3.199  0.00  0.00     0.101 A 
HETATM    8  C   UNK N   1      -2.646   0.506  -3.369  0.00  0.00     0.046 A 
BRANCH   6   9
HETATM    9  O   UNK N   1      -5.983   1.035  -1.923  0.00  0.00    -0.358 OA
HETATM   10  H   UNK N   1      -6.578   0.549  -2.517  0.00  0.00     0.218 HD
ENDBRANCH   6   9
BRANCH   7  11
HETATM   11  O   UNK N   1      -4.824  -0.292  -4.063  0.00  0.00    -0.353 OA
HETATM   12  C   UNK N   1      -4.352  -0.995  -5.151  0.00  0.00     0.210 C 
ENDBRANCH   7  11
ENDBRANCH   2   3
ENDBRANCH   1   2
BRANCH   1  13
HETATM   13  C   UNK N   1       0.182  -1.167  -2.589  0.00  0.00     0.169 C 
BRANCH  13  14
HETATM   14  O   UNK N   1       0.680  -1.117  -3.899  0.00  0.00    -0.400 OA
HETATM   15  H   UNK N   1       0.676  -2.049  -4.242  0.00  0.00     0.209 HD
ENDBRANCH  13  14
ENDBRANCH   1  13
BRANCH   1  16
HETATM   16  C   UNK N   1       1.849   0.583  -1.568  0.00  0.00     0.020 C 
BRANCH  16  17
HETATM   17  C   UNK N   1       2.736   0.704  -2.825  0.00  0.00     0.169 C 
BRANCH  17  18
HETATM   18  O   UNK N   1       3.993   1.214  -2.468  0.00  0.00    -0.400 OA
HETATM   19  H   UNK N   1       4.529   1.249  -3.302  0.00  0.00     0.209 HD
ENDBRANCH  17  18
ENDBRANCH  16  17
BRANCH  16  20
HETATM   20  C   UNK N   1       2.488  -0.361  -0.511  0.00  0.00     0.045 C 
BRANCH  20  21
HETATM   21  C   UNK N   1       1.932  -0.114   0.874  0.00  0.00    -0.055 A 
HETATM   22  C   UNK N   1       2.562   0.833   1.703  0.00  0.00     0.046 A 
HETATM   23  C   UNK N   1       2.075   1.099   2.987  0.00  0.00     0.101 A 
HETATM   24  C   UNK N   1       0.937   0.417   3.464  0.00  0.00     0.099 A 
HETATM   25  C   UNK N   1       0.308  -0.529   2.630  0.00  0.00     0.040 A 
HETATM   26  C   UNK N   1       0.801  -0.794   1.354  0.00  0.00     0.010 A 
BRANCH  23  27
HETATM   27  O   UNK N   1       2.680   2.016   3.809  0.00  0.00    -0.353 OA
HETATM   28  C   UNK N   1       3.800   2.750   3.474  0.00  0.00     0.210 C 
ENDBRANCH  23  27
BRANCH  24  29
HETATM   29  O   UNK N   1       0.439   0.643   4.688  0.00  0.00    -0.358 OA
HETATM   30  H   UNK N   1       0.841   1.281   5.302  0.00  0.00     0.218 HD
ENDBRANCH  24  29
ENDBRANCH  20  21
ENDBRANCH  16  20
ENDBRANCH   1  16
TORSDOF 13
