REMARK  7 active torsions:
REMARK  status: ('A' for Active; 'I' for Inactive)
REMARK    1  A    between atoms: C_2  and  C_3 
REMARK    2  A    between atoms: C_5  and  O_6 
REMARK    3  A    between atoms: C_8  and  O_9 
REMARK    4  A    between atoms: C_11  and  O_13 
REMARK    5  A    between atoms: C_18  and  C_19 
REMARK    6  A    between atoms: C_21  and  O_22 
REMARK    7  A    between atoms: C_24  and  O_25 
ROOT
HETATM    1  O   UNK N   1      -3.263  -0.959   2.030  0.00  0.00    -0.380 OA
HETATM    2  C   UNK N   1      -2.889  -0.921   0.661  0.00  0.00     0.161 C 
HETATM    3  C   UNK N   1      -1.610  -0.076   0.553  0.00  0.00     0.052 C 
HETATM    4  C   UNK N   1      -1.760   1.446   0.660  0.00  0.00     0.176 C 
HETATM    5  O   UNK N   1      -0.611   1.930   1.334  0.00  0.00    -0.380 OA
HETATM    6  C   UNK N   1      -0.060   0.833   2.057  0.00  0.00     0.161 C 
HETATM    7  C   UNK N   1      -0.967  -0.380   1.837  0.00  0.00     0.052 C 
HETATM    8  C   UNK N   1      -2.183  -0.427   2.769  0.00  0.00     0.176 C 
ENDROOT
BRANCH   2   9
HETATM    9  C   UNK N   1      -4.010  -0.433  -0.239  0.00  0.00    -0.024 A 
HETATM   10  C   UNK N   1      -3.842  -0.445  -1.628  0.00  0.00     0.049 A 
HETATM   11  C   UNK N   1      -4.859   0.004  -2.480  0.00  0.00     0.105 A 
HETATM   12  C   UNK N   1      -6.074   0.502  -1.937  0.00  0.00     0.135 A 
HETATM   13  C   UNK N   1      -6.260   0.480  -0.544  0.00  0.00     0.105 A 
HETATM   14  C   UNK N   1      -5.229   0.016   0.297  0.00  0.00     0.049 A 
BRANCH  11  15
HETATM   15  O   UNK N   1      -4.669  -0.080  -3.813  0.00  0.00    -0.353 OA
HETATM   16  C   UNK N   1      -5.000  -1.235  -4.494  0.00  0.00     0.210 C 
ENDBRANCH  11  15
BRANCH  12  17
HETATM   17  O   UNK N   1      -7.083   1.012  -2.698  0.00  0.00    -0.351 OA
HETATM   18  C   UNK N   1      -6.970   1.568  -3.959  0.00  0.00     0.210 C 
ENDBRANCH  12  17
BRANCH  13  19
HETATM   19  O   UNK N   1      -7.449   0.920  -0.045  0.00  0.00    -0.353 OA
HETATM   20  C   UNK N   1      -7.802   0.928   1.289  0.00  0.00     0.210 C 
ENDBRANCH  13  19
ENDBRANCH   2   9
BRANCH   6  21
HETATM   21  C   UNK N   1       1.363   0.561   1.614  0.00  0.00    -0.026 A 
HETATM   22  C   UNK N   1       1.785   0.798   0.294  0.00  0.00     0.049 A 
HETATM   23  C   UNK N   1       3.125   0.557  -0.085  0.00  0.00     0.101 A 
HETATM   24  C   UNK N   1       4.035   0.068   0.874  0.00  0.00     0.099 A 
HETATM   25  C   UNK N   1       3.609  -0.170   2.183  0.00  0.00     0.040 A 
HETATM   26  C   UNK N   1       2.288   0.075   2.552  0.00  0.00     0.012 A 
BRANCH  23  27
HETATM   27  O   UNK N   1       3.564   0.788  -1.352  0.00  0.00    -0.353 OA
HETATM   28  C   UNK N   1       2.793   1.285  -2.382  0.00  0.00     0.210 C 
ENDBRANCH  23  27
BRANCH  24  29
HETATM   29  O   UNK N   1       5.325  -0.174   0.554  0.00  0.00    -0.358 OA
HETATM   30  H   UNK N   1       5.676  -0.024  -0.335  0.00  0.00     0.218 HD
ENDBRANCH  24  29
ENDBRANCH   6  21
TORSDOF 7
