REMARK  4 active torsions:
REMARK  status: ('A' for Active; 'I' for Inactive)
REMARK    1  A    between atoms: C_5  and  C_13 
REMARK    2  A    between atoms: C_14  and  C_15 
REMARK    3  A    between atoms: C_15  and  C_16 
REMARK    4  A    between atoms: C_16  and  O_18 
ROOT
HETATM    1  O   UNK N   1      -4.612   0.859  -2.894  0.00  0.00    -0.265 OA
HETATM    2  C   UNK N   1      -3.915   0.623  -1.923  0.00  0.00     0.263 C 
HETATM    3  O   UNK N   1      -2.627   1.005  -1.843  0.00  0.00    -0.311 OA
HETATM    4  C   UNK N   1      -2.217   0.953  -0.531  0.00  0.00     0.170 C 
HETATM    5  C   UNK N   1      -0.737   0.769  -0.277  0.00  0.00    -0.021 C 
HETATM    6  C   UNK N   1      -0.349   0.038   0.836  0.00  0.00    -0.074 C 
HETATM    7  C   UNK N   1       1.092  -0.133   1.277  0.00  0.00     0.044 C 
HETATM    8  C   UNK N   1      -1.379  -0.650   1.750  0.00  0.00     0.035 C 
HETATM    9  C   UNK N   1      -2.864  -0.327   1.477  0.00  0.00     0.013 C 
HETATM   10  C   UNK N   1      -3.041  -0.224  -0.019  0.00  0.00     0.033 C 
HETATM   11  C   UNK N   1      -4.421   0.066  -0.629  0.00  0.00     0.088 C 
HETATM   12  C   UNK N   1      -5.291  -1.183  -0.764  0.00  0.00     0.021 C 
ENDROOT
BRANCH   5  13
HETATM   13  C   UNK N   1       0.219   1.453  -1.223  0.00  0.00    -0.056 C 
HETATM   14  C   UNK N   1       1.339   0.808  -1.646  0.00  0.00    -0.009 C 
HETATM   15  C   UNK N   1      -0.151   2.838  -1.726  0.00  0.00     0.048 C 
BRANCH  14  16
HETATM   16  C   UNK N   1       2.360   1.363  -2.605  0.00  0.00     0.137 C 
BRANCH  16  17
HETATM   17  C   UNK N   1       3.435   2.098  -1.859  0.00  0.00     0.142 C 
HETATM   18  O   UNK N   1       3.164   3.099  -1.213  0.00  0.00    -0.650 OA
BRANCH  17  19
HETATM   19  O   UNK N   1       4.704   1.638  -1.897  0.00  0.00    -0.776 OA
HETATM   20  H   UNK N   1       5.416   2.083  -1.416  0.00  0.00     0.167 HD
ENDBRANCH  17  19
ENDBRANCH  16  17
ENDBRANCH  14  16
ENDBRANCH   5  13
TORSDOF 4
