REMARK  6 active torsions:
REMARK  status: ('A' for Active; 'I' for Inactive)
REMARK    1  A    between atoms: C_6  and  C_7 
REMARK    2  A    between atoms: C_7  and  O_8 
REMARK    3  A    between atoms: C_13  and  O_14 
REMARK    4  A    between atoms: C_17  and  O_18 
REMARK    5  A    between atoms: O_18  and  C_19 
REMARK    6  A    between atoms: C_22  and  O_23 
ROOT
HETATM    1  O   UNK N   1      -3.010   3.716  -0.605  0.00  0.00    -0.259 OA
HETATM    2  C   UNK N   1      -2.449   2.700  -0.977  0.00  0.00     0.292 A 
HETATM    3  O   UNK N   1      -1.140   2.458  -0.784  0.00  0.00    -0.307 OA
HETATM    4  C   UNK N   1      -0.792   1.224  -1.322  0.00  0.00     0.169 A 
HETATM    5  C   UNK N   1      -2.102   0.709  -1.858  0.00  0.00    -0.036 A 
HETATM    6  C   UNK N   1      -3.073   1.588  -1.645  0.00  0.00     0.045 A 
HETATM    7  C   UNK N   1      -2.171  -0.651  -2.481  0.00  0.00     0.038 C 
HETATM    8  C   UNK N   1      -1.607  -1.646  -1.453  0.00  0.00     0.012 C 
HETATM    9  C   UNK N   1      -0.209  -1.231  -0.895  0.00  0.00     0.024 C 
HETATM   10  C   UNK N   1       0.928  -1.314  -1.955  0.00  0.00     0.125 C 
HETATM   11  C   UNK N   1       2.287  -0.905  -1.343  0.00  0.00     0.067 C 
HETATM   12  C   UNK N   1       2.226   0.511  -0.719  0.00  0.00     0.168 C 
HETATM   13  C   UNK N   1       1.103   0.620   0.364  0.00  0.00     0.087 C 
HETATM   14  C   UNK N   1      -0.272   0.205  -0.260  0.00  0.00     0.063 C 
HETATM   15  C   UNK N   1       1.417  -0.258   1.606  0.00  0.00     0.049 C 
ENDROOT
BRANCH  12  16
HETATM   16  O   UNK N   1       3.445   0.847  -0.151  0.00  0.00    -0.313 OA
BRANCH  16  17
HETATM   17  C   UNK N   1       4.555   1.202  -0.849  0.00  0.00     0.255 C 
HETATM   18  O   UNK N   1       4.519   1.329  -2.065  0.00  0.00    -0.266 OA
HETATM   19  C   UNK N   1       5.824   1.474  -0.107  0.00  0.00     0.126 C 
ENDBRANCH  16  17
ENDBRANCH  12  16
BRANCH  13  20
HETATM   20  O   UNK N   1       0.995   1.955   0.804  0.00  0.00    -0.387 OA
HETATM   21  H   UNK N   1       1.872   2.242   1.172  0.00  0.00     0.210 HD
ENDBRANCH  13  20
BRANCH  10  22
HETATM   22  O   UNK N   1       1.012  -2.604  -2.507  0.00  0.00    -0.395 OA
HETATM   23  H   UNK N   1       1.215  -3.237  -1.769  0.00  0.00     0.210 HD
ENDBRANCH  10  22
BRANCH   6  24
HETATM   24  C   UNK N   1      -4.528   1.455  -1.998  0.00  0.00     0.209 C 
BRANCH  24  25
HETATM   25  O   UNK N   1      -4.666   1.219  -3.371  0.00  0.00    -0.396 OA
HETATM   26  H   UNK N   1      -5.589   0.876  -3.500  0.00  0.00     0.209 HD
ENDBRANCH  24  25
ENDBRANCH   6  24
TORSDOF 6
