REMARK  3 active torsions:
REMARK  status: ('A' for Active; 'I' for Inactive)
REMARK    1  A    between atoms: O_1  and  C_2 
REMARK    2  A    between atoms: C_4  and  C_19 
REMARK    3  A    between atoms: C_9  and  O_10 
ROOT
HETATM    1  C   UNK N   1       2.831   1.052  -1.395  0.00  0.00     0.073 A 
HETATM    2  C   UNK N   1       1.962   0.612  -0.380  0.00  0.00    -0.018 A 
HETATM    3  C   UNK N   1       0.574   0.452  -0.652  0.00  0.00    -0.017 A 
HETATM    4  C   UNK N   1       0.063   0.791  -1.951  0.00  0.00    -0.008 A 
HETATM    5  C   UNK N   1      -1.401   0.739  -2.358  0.00  0.00    -0.018 A 
HETATM    6  C   UNK N   1      -1.718   0.647  -3.741  0.00  0.00    -0.038 A 
HETATM    7  C   UNK N   1      -3.077   0.676  -4.168  0.00  0.00    -0.022 A 
HETATM    8  C   UNK N   1      -4.100   0.795  -3.206  0.00  0.00     0.072 A 
HETATM    9  C   UNK N   1      -3.779   0.898  -1.852  0.00  0.00     0.038 A 
HETATM   10  C   UNK N   1      -2.451   0.880  -1.431  0.00  0.00     0.016 A 
HETATM   11  C   UNK N   1      -3.433   0.572  -5.634  0.00  0.00     0.052 C 
HETATM   12  C   UNK N   1      -0.568   0.547  -4.729  0.00  0.00     0.044 C 
HETATM   13  C   UNK N   1       0.470   1.588  -4.326  0.00  0.00     0.044 C 
HETATM   14  C   UNK N   1       0.974   1.233  -2.945  0.00  0.00    -0.043 A 
HETATM   15  C   UNK N   1       2.338   1.344  -2.663  0.00  0.00     0.045 A 
HETATM   16  C   UNK N   1       2.521   0.247   0.980  0.00  0.00     0.052 C 
ENDROOT
BRANCH   1  17
HETATM   17  O   UNK N   1       4.155   1.175  -1.148  0.00  0.00    -0.360 OA
HETATM   18  H   UNK N   1       4.780   1.456  -1.831  0.00  0.00     0.217 HD
ENDBRANCH   1  17
BRANCH   3  19
HETATM   19  C   UNK N   1      -0.254  -0.163   0.421  0.00  0.00     0.002 C 
HETATM   20  C   UNK N   1      -1.027  -1.228   0.181  0.00  0.00     0.012 C 
ENDBRANCH   3  19
BRANCH   8  21
HETATM   21  O   UNK N   1      -5.396   0.824  -3.589  0.00  0.00    -0.360 OA
HETATM   22  H   UNK N   1      -6.117   0.916  -2.950  0.00  0.00     0.217 HD
ENDBRANCH   8  21
TORSDOF 3
