REMARK  12 active torsions:
REMARK  status: ('A' for Active; 'I' for Inactive)
REMARK    1  A    between atoms: C_2  and  O_3 
REMARK    2  A    between atoms: C_2  and  C_28 
REMARK    3  A    between atoms: O_3  and  C_4 
REMARK    4  A    between atoms: C_6  and  C_16 
REMARK    5  A    between atoms: C_7  and  O_8 
REMARK    6  A    between atoms: C_10  and  O_11 
REMARK    7  A    between atoms: C_13  and  O_14 
REMARK    8  A    between atoms: C_16  and  O_17 
REMARK    9  A    between atoms: O_17  and  C_18 
REMARK   10  A    between atoms: C_18  and  C_20 
REMARK   11  A    between atoms: C_23  and  O_24 
REMARK   12  A    between atoms: C_31  and  O_32 
ROOT
HETATM    1  C   UNK N   1       1.381   2.315  -2.034  0.00  0.00     0.301 C 
HETATM    2  O   UNK N   1       0.096   2.432  -2.636  0.00  0.00    -0.348 OA
HETATM    3  C   UNK N   1      -0.354   1.191  -3.163  0.00  0.00     0.180 C 
HETATM    4  C   UNK N   1       0.582   0.700  -4.287  0.00  0.00     0.180 C 
HETATM    5  C   UNK N   1       1.988   0.511  -3.695  0.00  0.00     0.183 C 
HETATM    6  C   UNK N   1       2.440   1.839  -3.062  0.00  0.00     0.205 C 
ENDROOT
BRANCH   3   7
HETATM    7  C   UNK N   1      -1.789   1.346  -3.681  0.00  0.00     0.213 C 
BRANCH   7   8
HETATM    8  O   UNK N   1      -2.614   1.709  -2.636  0.00  0.00    -0.315 OA
BRANCH   8   9
HETATM    9  C   UNK N   1      -3.971   1.652  -2.689  0.00  0.00     0.293 C 
HETATM   10  O   UNK N   1      -4.531   1.148  -3.653  0.00  0.00    -0.259 OA
BRANCH   9  11
HETATM   11  C   UNK N   1      -4.767   2.157  -1.546  0.00  0.00     0.039 A 
HETATM   12  C   UNK N   1      -6.160   1.968  -1.501  0.00  0.00     0.020 A 
HETATM   13  C   UNK N   1      -6.901   2.443  -0.414  0.00  0.00     0.037 A 
HETATM   14  C   UNK N   1      -6.260   3.118   0.635  0.00  0.00     0.065 A 
HETATM   15  C   UNK N   1      -4.876   3.312   0.592  0.00  0.00     0.037 A 
HETATM   16  C   UNK N   1      -4.131   2.832  -0.489  0.00  0.00     0.020 A 
BRANCH  14  17
HETATM   17  O   UNK N   1      -6.965   3.583   1.686  0.00  0.00    -0.361 OA
HETATM   18  H   UNK N   1      -7.923   3.464   1.749  0.00  0.00     0.217 HD
ENDBRANCH  14  17
ENDBRANCH   9  11
ENDBRANCH   8   9
ENDBRANCH   7   8
ENDBRANCH   3   7
BRANCH   4  19
HETATM   19  O   UNK N   1       0.602   1.647  -5.327  0.00  0.00    -0.390 OA
HETATM   20  H   UNK N   1       1.010   1.203  -6.116  0.00  0.00     0.210 HD
ENDBRANCH   4  19
BRANCH   1  21
HETATM   21  O   UNK N   1       1.322   1.486  -0.919  0.00  0.00    -0.283 OA
BRANCH  21  22
HETATM   22  C   UNK N   1       2.176   1.571   0.142  0.00  0.00     0.295 C 
HETATM   23  O   UNK N   1       2.998   2.474   0.202  0.00  0.00    -0.259 OA
BRANCH  22  24
HETATM   24  C   UNK N   1       2.099   0.573   1.237  0.00  0.00     0.039 A 
HETATM   25  C   UNK N   1       2.963   0.666   2.345  0.00  0.00     0.020 A 
HETATM   26  C   UNK N   1       2.889  -0.272   3.379  0.00  0.00     0.037 A 
HETATM   27  C   UNK N   1       1.953  -1.314   3.318  0.00  0.00     0.065 A 
HETATM   28  C   UNK N   1       1.095  -1.413   2.217  0.00  0.00     0.037 A 
HETATM   29  C   UNK N   1       1.166  -0.475   1.182  0.00  0.00     0.020 A 
BRANCH  27  30
HETATM   30  O   UNK N   1       1.871  -2.222   4.311  0.00  0.00    -0.361 OA
HETATM   31  H   UNK N   1       2.446  -2.179   5.089  0.00  0.00     0.217 HD
ENDBRANCH  27  30
ENDBRANCH  22  24
ENDBRANCH  21  22
ENDBRANCH   1  21
BRANCH   5  32
HETATM   32  O   UNK N   1       2.873   0.107  -4.708  0.00  0.00    -0.390 OA
HETATM   33  H   UNK N   1       3.728  -0.136  -4.269  0.00  0.00     0.210 HD
ENDBRANCH   5  32
BRANCH   6  34
HETATM   34  O   UNK N   1       3.695   1.670  -2.457  0.00  0.00    -0.388 OA
HETATM   35  H   UNK N   1       4.039   2.578  -2.253  0.00  0.00     0.210 HD
ENDBRANCH   6  34
TORSDOF 12
