REMARK  8 active torsions:
REMARK  status: ('A' for Active; 'I' for Inactive)
REMARK    1  A    between atoms: C_2  and  C_3 
REMARK    2  A    between atoms: C_5  and  C_16 
REMARK    3  A    between atoms: C_6  and  O_7 
REMARK    4  A    between atoms: C_9  and  C_11 
REMARK    5  A    between atoms: C_11  and  C_12 
REMARK    6  A    between atoms: C_16  and  C_17 
REMARK    7  A    between atoms: C_18  and  C_19 
REMARK    8  A    between atoms: C_19  and  O_20 
ROOT
HETATM    1  C   UNK N   1       2.357   1.919  -1.836  0.00  0.00     0.011 A 
HETATM    2  C   UNK N   1       1.166   2.353  -2.443  0.00  0.00     0.025 A 
HETATM    3  C   UNK N   1      -0.060   1.708  -2.196  0.00  0.00    -0.020 A 
HETATM    4  C   UNK N   1      -0.098   0.604  -1.312  0.00  0.00     0.079 A 
HETATM    5  C   UNK N   1       1.086   0.181  -0.673  0.00  0.00    -0.020 A 
HETATM    6  C   UNK N   1       2.299   0.835  -0.943  0.00  0.00     0.025 A 
ENDROOT
BRANCH   3   7
HETATM    7  C   UNK N   1      -1.300   2.232  -2.893  0.00  0.00     0.068 C 
BRANCH   7   8
HETATM    8  C   UNK N   1      -1.605   1.442  -4.141  0.00  0.00    -0.018 C 
HETATM    9  C   UNK N   1      -2.849   1.233  -4.632  0.00  0.00    -0.064 C 
HETATM   10  C   UNK N   1      -3.013   0.534  -5.957  0.00  0.00     0.045 C 
BRANCH   9  11
HETATM   11  C   UNK N   1      -4.097   1.717  -3.929  0.00  0.00     0.197 C 
BRANCH  11  12
HETATM   12  O   UNK N   1      -4.296   1.012  -2.735  0.00  0.00    -0.397 OA
HETATM   13  H   UNK N   1      -4.735   0.156  -2.987  0.00  0.00     0.209 HD
ENDBRANCH  11  12
ENDBRANCH   9  11
ENDBRANCH   7   8
ENDBRANCH   3   7
BRANCH   4  14
HETATM   14  O   UNK N   1      -1.260  -0.035  -1.039  0.00  0.00    -0.360 OA
HETATM   15  H   UNK N   1      -2.107   0.215  -1.428  0.00  0.00     0.217 HD
ENDBRANCH   4  14
BRANCH   1  16
HETATM   16  C   UNK N   1       3.682   2.566  -2.121  0.00  0.00     0.155 C 
HETATM   17  O   UNK N   1       4.701   2.034  -1.707  0.00  0.00    -0.293 OA
HETATM   18  C   UNK N   1       3.837   3.850  -2.900  0.00  0.00     0.096 C 
ENDBRANCH   1  16
BRANCH   5  19
HETATM   19  C   UNK N   1       1.077  -0.948   0.331  0.00  0.00     0.068 C 
BRANCH  19  20
HETATM   20  C   UNK N   1       1.034  -0.350   1.721  0.00  0.00    -0.020 C 
HETATM   21  C   UNK N   1       1.943  -0.512   2.715  0.00  0.00    -0.091 C 
HETATM   22  C   UNK N   1       3.205  -1.331   2.589  0.00  0.00     0.042 C 
HETATM   23  C   UNK N   1       1.698   0.163   4.043  0.00  0.00     0.042 C 
ENDBRANCH  19  20
ENDBRANCH   5  19
TORSDOF 8
