REMARK  9 active torsions:
REMARK  status: ('A' for Active; 'I' for Inactive)
REMARK    1  A    between atoms: C_2  and  O_3 
REMARK    2  A    between atoms: O_3  and  C_4 
REMARK    3  A    between atoms: C_5  and  O_6 
REMARK    4  A    between atoms: C_8  and  C_11 
REMARK    5  A    between atoms: C_13  and  O_14 
REMARK    6  A    between atoms: C_16  and  O_17 
REMARK    7  A    between atoms: C_23  and  C_24 
REMARK    8  A    between atoms: C_26  and  O_27 
REMARK    9  A    between atoms: C_29  and  O_30 
ROOT
HETATM    1  C   UNK N   1       0.788   1.008  -1.122  0.00  0.00     0.157 C 
HETATM    2  C   UNK N   1      -0.613   1.376  -0.781  0.00  0.00     0.146 C 
HETATM    3  C   UNK N   1      -1.113   2.032  -2.079  0.00  0.00     0.194 C 
HETATM    4  O   UNK N   1      -0.381   1.479  -3.160  0.00  0.00    -0.375 OA
HETATM    5  C   UNK N   1       0.591   0.618  -2.606  0.00  0.00     0.213 C 
HETATM    6  C   UNK N   1      -1.174  -0.020  -0.423  0.00  0.00     0.213 C 
HETATM    7  O   UNK N   1      -0.151  -0.760   0.213  0.00  0.00    -0.375 OA
HETATM    8  C   UNK N   1       1.089  -0.198  -0.186  0.00  0.00     0.195 C 
ENDROOT
BRANCH   3   9
HETATM    9  C   UNK N   1      -2.611   1.870  -2.271  0.00  0.00    -0.024 A 
HETATM   10  C   UNK N   1      -3.113   0.792  -3.020  0.00  0.00     0.049 A 
HETATM   11  C   UNK N   1      -4.500   0.612  -3.190  0.00  0.00     0.101 A 
HETATM   12  C   UNK N   1      -5.389   1.536  -2.608  0.00  0.00     0.099 A 
HETATM   13  C   UNK N   1      -4.889   2.611  -1.863  0.00  0.00     0.040 A 
HETATM   14  C   UNK N   1      -3.511   2.776  -1.690  0.00  0.00     0.013 A 
BRANCH  11  15
HETATM   15  O   UNK N   1      -5.002  -0.438  -3.898  0.00  0.00    -0.353 OA
HETATM   16  C   UNK N   1      -4.246  -1.435  -4.483  0.00  0.00     0.210 C 
ENDBRANCH  11  15
BRANCH  12  17
HETATM   17  O   UNK N   1      -6.725   1.402  -2.753  0.00  0.00    -0.358 OA
HETATM   18  H   UNK N   1      -7.122   0.679  -3.260  0.00  0.00     0.218 HD
ENDBRANCH  12  17
ENDBRANCH   3   9
BRANCH   2  19
HETATM   19  O   UNK N   1      -0.697   2.260   0.305  0.00  0.00    -0.381 OA
HETATM   20  H   UNK N   1      -1.659   2.381   0.515  0.00  0.00     0.211 HD
ENDBRANCH   2  19
BRANCH   1  21
HETATM   21  O   UNK N   1       1.680   2.072  -1.003  0.00  0.00    -0.302 OA
BRANCH  21  22
HETATM   22  C   UNK N   1       3.022   1.976  -1.229  0.00  0.00     0.255 C 
HETATM   23  O   UNK N   1       3.522   0.924  -1.602  0.00  0.00    -0.266 OA
HETATM   24  C   UNK N   1       3.902   3.159  -0.985  0.00  0.00     0.126 C 
ENDBRANCH  21  22
ENDBRANCH   1  21
BRANCH   8  25
HETATM   25  C   UNK N   1       1.908   0.104   1.065  0.00  0.00    -0.024 A 
HETATM   26  C   UNK N   1       1.408   0.925   2.085  0.00  0.00     0.049 A 
HETATM   27  C   UNK N   1       2.168   1.207   3.234  0.00  0.00     0.101 A 
HETATM   28  C   UNK N   1       3.446   0.635   3.370  0.00  0.00     0.099 A 
HETATM   29  C   UNK N   1       3.944  -0.200   2.364  0.00  0.00     0.040 A 
HETATM   30  C   UNK N   1       3.185  -0.464   1.222  0.00  0.00     0.013 A 
BRANCH  27  31
HETATM   31  O   UNK N   1       1.693   2.023   4.217  0.00  0.00    -0.353 OA
HETATM   32  C   UNK N   1       0.484   2.692   4.173  0.00  0.00     0.210 C 
ENDBRANCH  27  31
BRANCH  28  33
HETATM   33  O   UNK N   1       4.205   0.874   4.460  0.00  0.00    -0.358 OA
HETATM   34  H   UNK N   1       3.904   1.440   5.185  0.00  0.00     0.218 HD
ENDBRANCH  28  33
ENDBRANCH   8  25
TORSDOF 9
