REMARK  10 active torsions:
REMARK  status: ('A' for Active; 'I' for Inactive)
REMARK    1  A    between atoms: C_2  and  C_3 
REMARK    2  A    between atoms: C_2  and  C_11 
REMARK    3  A    between atoms: C_6  and  O_7 
REMARK    4  A    between atoms: C_11  and  O_12 
REMARK    5  A    between atoms: C_11  and  C_14 
REMARK    6  A    between atoms: C_16  and  O_17 
REMARK    7  A    between atoms: O_17  and  C_18 
REMARK    8  A    between atoms: C_20  and  O_21 
REMARK    9  A    between atoms: C_23  and  O_24 
REMARK   10  A    between atoms: C_26  and  O_27 
ROOT
HETATM    1  C   UNK N   1       1.840   2.757  -1.334  0.00  0.00     0.192 C 
HETATM    2  O   UNK N   1       1.741   1.588  -0.535  0.00  0.00    -0.348 OA
HETATM    3  C   UNK N   1       2.882   1.383   0.273  0.00  0.00     0.291 C 
HETATM    4  C   UNK N   1       4.110   1.148  -0.628  0.00  0.00     0.204 C 
HETATM    5  C   UNK N   1       4.301   2.363  -1.554  0.00  0.00     0.183 C 
HETATM    6  C   UNK N   1       3.003   2.630  -2.349  0.00  0.00     0.181 C 
ENDROOT
BRANCH   1   7
HETATM    7  C   UNK N   1       0.439   2.973  -1.969  0.00  0.00     0.224 C 
BRANCH   7   8
HETATM    8  C   UNK N   1      -0.090   1.723  -2.676  0.00  0.00     0.190 C 
HETATM    9  O   UNK N   1       0.650   0.763  -2.835  0.00  0.00    -0.289 OA
BRANCH   8  10
HETATM   10  C   UNK N   1      -1.532   1.569  -3.034  0.00  0.00     0.013 A 
HETATM   11  C   UNK N   1      -2.015   0.292  -3.382  0.00  0.00     0.018 A 
HETATM   12  C   UNK N   1      -3.372   0.088  -3.630  0.00  0.00     0.037 A 
HETATM   13  C   UNK N   1      -4.271   1.157  -3.548  0.00  0.00     0.065 A 
HETATM   14  C   UNK N   1      -3.800   2.436  -3.233  0.00  0.00     0.037 A 
HETATM   15  C   UNK N   1      -2.440   2.645  -2.974  0.00  0.00     0.018 A 
BRANCH  13  16
HETATM   16  O   UNK N   1      -5.588   0.962  -3.762  0.00  0.00    -0.361 OA
HETATM   17  H   UNK N   1      -5.946   0.083  -3.950  0.00  0.00     0.217 HD
ENDBRANCH  13  16
ENDBRANCH   8  10
ENDBRANCH   7   8
BRANCH   7  18
HETATM   18  O   UNK N   1      -0.440   3.265  -0.910  0.00  0.00    -0.385 OA
HETATM   19  H   UNK N   1      -0.333   4.230  -0.699  0.00  0.00     0.210 HD
ENDBRANCH   7  18
ENDBRANCH   1   7
BRANCH   6  20
HETATM   20  O   UNK N   1       3.119   3.820  -3.085  0.00  0.00    -0.390 OA
HETATM   21  H   UNK N   1       3.711   3.626  -3.858  0.00  0.00     0.210 HD
ENDBRANCH   6  20
BRANCH   3  22
HETATM   22  O   UNK N   1       2.688   0.222   1.061  0.00  0.00    -0.359 OA
BRANCH  22  23
HETATM   23  C   UNK N   1       1.589   0.386   1.935  0.00  0.00     0.166 C 
HETATM   24  C   UNK N   1       1.404  -0.893   2.737  0.00  0.00     0.033 C 
ENDBRANCH  22  23
ENDBRANCH   3  22
BRANCH   5  25
HETATM   25  O   UNK N   1       5.398   2.177  -2.414  0.00  0.00    -0.390 OA
HETATM   26  H   UNK N   1       5.207   1.380  -2.976  0.00  0.00     0.210 HD
ENDBRANCH   5  25
BRANCH   4  27
HETATM   27  O   UNK N   1       5.264   0.966   0.152  0.00  0.00    -0.388 OA
HETATM   28  H   UNK N   1       5.215   0.049   0.529  0.00  0.00     0.210 HD
ENDBRANCH   4  27
TORSDOF 10
