REMARK  11 active torsions:
REMARK  status: ('A' for Active; 'I' for Inactive)
REMARK    1  A    between atoms: C_2  and  O_3 
REMARK    2  A    between atoms: C_2  and  C_20 
REMARK    3  A    between atoms: O_3  and  C_4 
REMARK    4  A    between atoms: C_4  and  C_5 
REMARK    5  A    between atoms: C_5  and  O_7 
REMARK    6  A    between atoms: C_10  and  O_11 
REMARK    7  A    between atoms: C_13  and  O_14 
REMARK    8  A    between atoms: C_16  and  O_17 
REMARK    9  A    between atoms: C_21  and  C_22 
REMARK   10  A    between atoms: C_24  and  O_25 
REMARK   11  A    between atoms: C_27  and  O_28 
ROOT
HETATM    1  C   UNK N   1      -4.303  -1.359  -3.321  0.00  0.00     0.160 C 
HETATM    2  C   UNK N   1      -4.222  -1.445  -4.869  0.00  0.00     0.084 C 
HETATM    3  C   UNK N   1      -3.383  -2.653  -5.338  0.00  0.00     0.152 C 
HETATM    4  C   UNK N   1      -3.973  -3.971  -4.785  0.00  0.00     0.175 C 
HETATM    5  C   UNK N   1      -4.026  -3.905  -3.245  0.00  0.00     0.152 C 
HETATM    6  C   UNK N   1      -4.878  -2.703  -2.779  0.00  0.00     0.084 C 
ENDROOT
BRANCH   1   7
HETATM    7  O   UNK N   1      -3.021  -1.137  -2.836  0.00  0.00    -0.295 OA
BRANCH   7   8
HETATM    8  C   UNK N   1      -2.665  -0.926  -1.539  0.00  0.00     0.284 C 
HETATM    9  O   UNK N   1      -3.487  -0.995  -0.637  0.00  0.00    -0.260 OA
BRANCH   8  10
HETATM   10  C   UNK N   1      -1.265  -0.571  -1.258  0.00  0.00     0.083 C 
HETATM   11  C   UNK N   1      -0.798  -0.393  -0.007  0.00  0.00     0.017 C 
BRANCH  11  12
HETATM   12  C   UNK N   1       0.620  -0.039   0.289  0.00  0.00    -0.033 A 
HETATM   13  C   UNK N   1       1.522   0.378  -0.712  0.00  0.00     0.050 A 
HETATM   14  C   UNK N   1       2.850   0.687  -0.403  0.00  0.00     0.099 A 
HETATM   15  C   UNK N   1       3.299   0.570   0.936  0.00  0.00     0.098 A 
HETATM   16  C   UNK N   1       2.401   0.166   1.929  0.00  0.00     0.040 A 
HETATM   17  C   UNK N   1       1.073  -0.129   1.613  0.00  0.00     0.014 A 
BRANCH  14  18
HETATM   18  O   UNK N   1       3.657   1.091  -1.409  0.00  0.00    -0.358 OA
HETATM   19  H   UNK N   1       4.581   1.344  -1.297  0.00  0.00     0.218 HD
ENDBRANCH  14  18
BRANCH  15  20
HETATM   20  O   UNK N   1       4.576   0.833   1.294  0.00  0.00    -0.358 OA
HETATM   21  H   UNK N   1       5.268   1.092   0.675  0.00  0.00     0.218 HD
ENDBRANCH  15  20
ENDBRANCH  11  12
ENDBRANCH   8  10
ENDBRANCH   7   8
ENDBRANCH   1   7
BRANCH   1  22
HETATM   22  C   UNK N   1      -5.179  -0.169  -2.946  0.00  0.00     0.176 C 
HETATM   23  O   UNK N   1      -6.234  -0.336  -2.352  0.00  0.00    -0.648 OA
BRANCH  22  24
HETATM   24  O   UNK N   1      -4.781   1.089  -3.237  0.00  0.00    -0.774 OA
HETATM   25  H   UNK N   1      -3.920   1.265  -3.644  0.00  0.00     0.167 HD
ENDBRANCH  22  24
ENDBRANCH   1  22
BRANCH   3  26
HETATM   26  O   UNK N   1      -3.356  -2.676  -6.742  0.00  0.00    -0.393 OA
HETATM   27  H   UNK N   1      -2.704  -3.377  -7.006  0.00  0.00     0.210 HD
ENDBRANCH   3  26
BRANCH   5  28
HETATM   28  O   UNK N   1      -4.511  -5.109  -2.705  0.00  0.00    -0.393 OA
HETATM   29  H   UNK N   1      -5.462  -5.205  -2.970  0.00  0.00     0.210 HD
ENDBRANCH   5  28
BRANCH   4  30
HETATM   30  O   UNK N   1      -5.267  -4.184  -5.295  0.00  0.00    -0.390 OA
HETATM   31  H   UNK N   1      -5.165  -4.474  -6.238  0.00  0.00     0.210 HD
ENDBRANCH   4  30
TORSDOF 11
