REMARK  11 active torsions:
REMARK  status: ('A' for Active; 'I' for Inactive)
REMARK    1  A    between atoms: C_2  and  O_3 
REMARK    2  A    between atoms: C_2  and  C_19 
REMARK    3  A    between atoms: O_3  and  C_4 
REMARK    4  A    between atoms: C_6  and  C_16 
REMARK    5  A    between atoms: C_7  and  O_8 
REMARK    6  A    between atoms: C_10  and  O_11 
REMARK    7  A    between atoms: C_13  and  O_14 
REMARK    8  A    between atoms: C_16  and  O_17 
REMARK    9  A    between atoms: C_20  and  C_21 
REMARK   10  A    between atoms: C_23  and  O_24 
REMARK   11  A    between atoms: C_26  and  O_27 
ROOT
HETATM    1  C   UNK N   1      -4.036   0.487  -0.555  0.00  0.00     0.301 C 
HETATM    2  O   UNK N   1      -4.500  -0.853  -0.465  0.00  0.00    -0.348 OA
HETATM    3  C   UNK N   1      -5.873  -0.940  -0.825  0.00  0.00     0.179 C 
HETATM    4  C   UNK N   1      -6.069  -0.538  -2.307  0.00  0.00     0.180 C 
HETATM    5  C   UNK N   1      -5.541   0.892  -2.510  0.00  0.00     0.183 C 
HETATM    6  C   UNK N   1      -4.092   0.972  -2.016  0.00  0.00     0.205 C 
ENDROOT
BRANCH   1   7
HETATM    7  O   UNK N   1      -2.720   0.540  -0.134  0.00  0.00    -0.284 OA
BRANCH   7   8
HETATM    8  C   UNK N   1      -2.316   0.312   1.143  0.00  0.00     0.285 C 
HETATM    9  O   UNK N   1      -3.136   0.169   2.037  0.00  0.00    -0.260 OA
BRANCH   8  10
HETATM   10  C   UNK N   1      -0.874   0.238   1.463  0.00  0.00     0.083 C 
HETATM   11  C   UNK N   1       0.071   0.406   0.516  0.00  0.00     0.017 C 
BRANCH  11  12
HETATM   12  C   UNK N   1       1.540   0.326   0.775  0.00  0.00    -0.033 A 
HETATM   13  C   UNK N   1       2.424   0.702  -0.251  0.00  0.00     0.050 A 
HETATM   14  C   UNK N   1       3.811   0.655  -0.058  0.00  0.00     0.099 A 
HETATM   15  C   UNK N   1       4.330   0.211   1.171  0.00  0.00     0.098 A 
HETATM   16  C   UNK N   1       3.456  -0.176   2.194  0.00  0.00     0.040 A 
HETATM   17  C   UNK N   1       2.073  -0.117   2.004  0.00  0.00     0.014 A 
BRANCH  14  18
HETATM   18  O   UNK N   1       4.628   1.041  -1.060  0.00  0.00    -0.358 OA
HETATM   19  H   UNK N   1       5.592   1.041  -0.971  0.00  0.00     0.218 HD
ENDBRANCH  14  18
BRANCH  15  20
HETATM   20  O   UNK N   1       5.666   0.158   1.363  0.00  0.00    -0.358 OA
HETATM   21  H   UNK N   1       6.048  -0.145   2.199  0.00  0.00     0.218 HD
ENDBRANCH  15  20
ENDBRANCH  11  12
ENDBRANCH   8  10
ENDBRANCH   7   8
ENDBRANCH   1   7
BRANCH   6  22
HETATM   22  O   UNK N   1      -3.645   2.300  -2.113  0.00  0.00    -0.388 OA
HETATM   23  H   UNK N   1      -2.662   2.287  -1.976  0.00  0.00     0.210 HD
ENDBRANCH   6  22
BRANCH   3  24
HETATM   24  C   UNK N   1      -6.352  -2.383  -0.595  0.00  0.00     0.198 C 
BRANCH  24  25
HETATM   25  O   UNK N   1      -6.215  -2.739   0.754  0.00  0.00    -0.398 OA
HETATM   26  H   UNK N   1      -5.268  -3.004   0.887  0.00  0.00     0.209 HD
ENDBRANCH  24  25
ENDBRANCH   3  24
BRANCH   5  27
HETATM   27  O   UNK N   1      -5.591   1.250  -3.867  0.00  0.00    -0.390 OA
HETATM   28  H   UNK N   1      -6.515   1.561  -4.051  0.00  0.00     0.210 HD
ENDBRANCH   5  27
BRANCH   4  29
HETATM   29  O   UNK N   1      -7.432  -0.598  -2.640  0.00  0.00    -0.390 OA
HETATM   30  H   UNK N   1      -7.487  -0.672  -3.628  0.00  0.00     0.210 HD
ENDBRANCH   4  29
TORSDOF 11
