REMARK  6 active torsions:
REMARK  status: ('A' for Active; 'I' for Inactive)
REMARK    1  A    between atoms: C_7  and  O_8 
REMARK    2  A    between atoms: O_8  and  C_9 
REMARK    3  A    between atoms: C_9  and  C_11 
REMARK    4  A    between atoms: C_14  and  O_15 
REMARK    5  A    between atoms: C_20  and  O_21 
REMARK    6  A    between atoms: C_20  and  C_23 
ROOT
HETATM    1  O   UNK N   1       1.051   3.975  -3.090  0.00  0.00    -0.292 OA
HETATM    2  C   UNK N   1       1.953   3.440  -2.458  0.00  0.00     0.158 C 
HETATM    3  C   UNK N   1       3.118   2.930  -3.191  0.00  0.00     0.053 C 
HETATM    4  C   UNK N   1       3.084   1.790  -3.895  0.00  0.00    -0.080 C 
HETATM    5  C   UNK N   1       1.861   0.905  -3.934  0.00  0.00     0.036 C 
HETATM    6  C   UNK N   1       1.659   0.081  -2.645  0.00  0.00     0.037 C 
HETATM    7  C   UNK N   1       0.999   0.735  -1.407  0.00  0.00     0.140 C 
HETATM    8  C   UNK N   1       1.749   1.772  -0.519  0.00  0.00     0.066 C 
HETATM    9  C   UNK N   1       3.129   1.383   0.060  0.00  0.00     0.068 C 
HETATM   10  C   UNK N   1       3.461   2.703   0.806  0.00  0.00     0.040 C 
HETATM   11  C   UNK N   1       3.138   3.777  -0.233  0.00  0.00     0.020 C 
HETATM   12  C   UNK N   1       1.849   3.276  -0.950  0.00  0.00     0.030 C 
HETATM   13  C   UNK N   1       0.615   4.059  -0.416  0.00  0.00     0.024 C 
HETATM   14  C   UNK N   1       4.308   1.351  -4.655  0.00  0.00     0.043 C 
ENDROOT
BRANCH   7  15
HETATM   15  O   UNK N   1      -0.226   1.234  -1.794  0.00  0.00    -0.312 OA
BRANCH  15  16
HETATM   16  C   UNK N   1      -1.386   1.002  -1.132  0.00  0.00     0.293 C 
HETATM   17  O   UNK N   1      -1.375   0.726   0.059  0.00  0.00    -0.259 OA
BRANCH  16  18
HETATM   18  C   UNK N   1      -2.656   1.045  -1.879  0.00  0.00     0.039 A 
HETATM   19  C   UNK N   1      -2.649   1.266  -3.266  0.00  0.00     0.020 A 
HETATM   20  C   UNK N   1      -3.843   1.258  -3.987  0.00  0.00     0.038 A 
HETATM   21  C   UNK N   1      -5.062   1.034  -3.337  0.00  0.00     0.068 A 
HETATM   22  C   UNK N   1      -5.071   0.825  -1.942  0.00  0.00     0.038 A 
HETATM   23  C   UNK N   1      -3.877   0.829  -1.222  0.00  0.00     0.020 A 
BRANCH  21  24
HETATM   24  O   UNK N   1      -6.200   1.020  -4.079  0.00  0.00    -0.356 OA
HETATM   25  C   UNK N   1      -7.463   0.790  -3.576  0.00  0.00     0.210 C 
ENDBRANCH  21  24
ENDBRANCH  16  18
ENDBRANCH  15  16
ENDBRANCH   7  15
BRANCH   9  26
HETATM   26  O   UNK N   1       4.020   1.180  -1.015  0.00  0.00    -0.389 OA
HETATM   27  H   UNK N   1       4.946   1.332  -0.697  0.00  0.00     0.210 HD
ENDBRANCH   9  26
BRANCH   9  28
HETATM   28  C   UNK N   1       3.114   0.089   0.963  0.00  0.00     0.012 C 
HETATM   29  C   UNK N   1       4.503  -0.225   1.543  0.00  0.00     0.012 C 
HETATM   30  C   UNK N   1       2.099   0.124   2.127  0.00  0.00     0.012 C 
ENDBRANCH   9  28
TORSDOF 6
