REMARK  2 active torsions:
REMARK  status: ('A' for Active; 'I' for Inactive)
REMARK    1  A    between atoms: C_7  and  O_8 
REMARK    2  A    between atoms: C_11  and  O_12 
ROOT
HETATM    1  O   UNK N   1      -4.122   0.975  -3.509  0.00  0.00    -0.265 OA
HETATM    2  C   UNK N   1      -3.137   0.737  -2.832  0.00  0.00     0.263 C 
HETATM    3  O   UNK N   1      -1.944   0.430  -3.379  0.00  0.00    -0.311 OA
HETATM    4  C   UNK N   1      -0.933   0.403  -2.444  0.00  0.00     0.160 C 
HETATM    5  C   UNK N   1      -0.197   1.733  -2.566  0.00  0.00     0.011 C 
HETATM    6  C   UNK N   1       1.146   1.980  -2.655  0.00  0.00    -0.057 C 
HETATM    7  C   UNK N   1       2.266   0.918  -2.579  0.00  0.00     0.149 C 
HETATM    8  C   UNK N   1       2.209   0.017  -1.326  0.00  0.00     0.072 C 
HETATM    9  C   UNK N   1       2.170   0.715   0.060  0.00  0.00     0.149 C 
HETATM   10  C   UNK N   1       1.368  -0.128   1.050  0.00  0.00    -0.061 C 
HETATM   11  C   UNK N   1      -0.043  -0.619   0.703  0.00  0.00     0.036 C 
HETATM   12  C   UNK N   1      -1.068   0.469   0.276  0.00  0.00     0.013 C 
HETATM   13  C   UNK N   1      -1.730   0.201  -1.105  0.00  0.00     0.032 C 
HETATM   14  C   UNK N   1      -3.103   0.864  -1.348  0.00  0.00     0.088 C 
HETATM   15  C   UNK N   1      -3.262   2.321  -0.890  0.00  0.00     0.021 C 
HETATM   16  C   UNK N   1       1.904  -0.450   2.238  0.00  0.00     0.017 C 
HETATM   17  C   UNK N   1       1.568   3.429  -2.826  0.00  0.00     0.046 C 
ENDROOT
BRANCH   7  18
HETATM   18  O   UNK N   1       3.532   1.529  -2.606  0.00  0.00    -0.391 OA
HETATM   19  H   UNK N   1       3.745   1.726  -3.555  0.00  0.00     0.210 HD
ENDBRANCH   7  18
BRANCH   9  20
HETATM   20  O   UNK N   1       1.578   1.980  -0.009  0.00  0.00    -0.391 OA
HETATM   21  H   UNK N   1       1.820   2.459   0.828  0.00  0.00     0.210 HD
ENDBRANCH   9  20
TORSDOF 2
