REMARK  6 active torsions:
REMARK  status: ('A' for Active; 'I' for Inactive)
REMARK    1  A    between atoms: C_5  and  O_6 
REMARK    2  A    between atoms: C_8  and  O_9 
REMARK    3  A    between atoms: C_11  and  C_13 
REMARK    4  A    between atoms: C_13  and  C_14 
REMARK    5  A    between atoms: C_14  and  O_15 
REMARK    6  A    between atoms: O_15  and  C_16 
ROOT
HETATM    1  O   UNK N   1       3.269   1.492  -2.033  0.00  0.00    -0.292 OA
HETATM    2  C   UNK N   1       2.681   1.390  -0.965  0.00  0.00     0.160 C 
HETATM    3  C   UNK N   1       1.409   0.612  -0.885  0.00  0.00     0.020 A 
HETATM    4  C   UNK N   1       0.831   0.268   0.375  0.00  0.00     0.000 A 
HETATM    5  C   UNK N   1      -0.309  -0.604   0.362  0.00  0.00     0.107 A 
HETATM    6  C   UNK N   1      -0.903  -0.996  -0.852  0.00  0.00     0.106 A 
HETATM    7  C   UNK N   1      -0.345  -0.604  -2.082  0.00  0.00    -0.015 A 
HETATM    8  C   UNK N   1       0.814   0.176  -2.082  0.00  0.00     0.026 A 
HETATM    9  C   UNK N   1       1.516   0.785   1.682  0.00  0.00    -0.008 C 
HETATM   10  C   UNK N   1       2.314   2.132   1.414  0.00  0.00     0.013 C 
HETATM   11  C   UNK N   1       1.407   3.445   1.259  0.00  0.00    -0.043 C 
HETATM   12  C   UNK N   1       0.415   3.529   2.447  0.00  0.00     0.009 C 
HETATM   13  C   UNK N   1      -0.397   2.252   2.622  0.00  0.00     0.002 C 
HETATM   14  C   UNK N   1       0.564   1.100   2.892  0.00  0.00     0.014 C 
HETATM   15  C   UNK N   1       0.608   3.541  -0.065  0.00  0.00     0.015 C 
HETATM   16  C   UNK N   1       2.291   4.719   1.350  0.00  0.00     0.015 C 
HETATM   17  C   UNK N   1       3.326   1.950   0.264  0.00  0.00     0.090 C 
HETATM   18  C   UNK N   1       2.489  -0.328   2.141  0.00  0.00     0.021 C 
ENDROOT
BRANCH   7  19
HETATM   19  C   UNK N   1      -0.952  -1.037  -3.418  0.00  0.00     0.042 C 
HETATM   20  C   UNK N   1      -0.897  -2.561  -3.597  0.00  0.00     0.017 C 
BRANCH  19  21
HETATM   21  C   UNK N   1      -2.387  -0.511  -3.593  0.00  0.00     0.187 C 
BRANCH  21  22
HETATM   22  O   UNK N   1      -2.382   0.866  -3.504  0.00  0.00    -0.321 OA
BRANCH  22  23
HETATM   23  C   UNK N   1      -3.493   1.630  -3.633  0.00  0.00     0.254 C 
HETATM   24  O   UNK N   1      -4.588   1.119  -3.825  0.00  0.00    -0.266 OA
HETATM   25  C   UNK N   1      -3.366   3.115  -3.544  0.00  0.00     0.126 C 
ENDBRANCH  22  23
ENDBRANCH  21  22
ENDBRANCH  19  21
ENDBRANCH   7  19
BRANCH   6  26
HETATM   26  O   UNK N   1      -2.003  -1.780  -0.839  0.00  0.00    -0.357 OA
HETATM   27  H   UNK N   1      -2.443  -2.064  -0.025  0.00  0.00     0.218 HD
ENDBRANCH   6  26
BRANCH   5  28
HETATM   28  O   UNK N   1      -0.841  -1.130   1.483  0.00  0.00    -0.357 OA
HETATM   29  H   UNK N   1      -0.301  -1.414   2.225  0.00  0.00     0.218 HD
ENDBRANCH   5  28
TORSDOF 6
