REMARK  3 active torsions:
REMARK  status: ('A' for Active; 'I' for Inactive)
REMARK    1  A    between atoms: C_8  and  O_9 
REMARK    2  A    between atoms: C_17  and  O_18 
REMARK    3  A    between atoms: C_21  and  O_22 
ROOT
HETATM    1  O   UNK N   1      -0.991   0.708   0.307  0.00  0.00    -0.265 OA
HETATM    2  C   UNK N   1      -0.303  -0.187  -0.165  0.00  0.00     0.263 C 
HETATM    3  O   UNK N   1       0.983  -0.361   0.248  0.00  0.00    -0.316 OA
HETATM    4  C   UNK N   1       1.573   0.340   1.298  0.00  0.00     0.127 C 
HETATM    5  C   UNK N   1       2.929   0.969   0.886  0.00  0.00     0.032 C 
HETATM    6  C   UNK N   1       2.829   2.258   0.039  0.00  0.00     0.005 C 
HETATM    7  C   UNK N   1       2.143   2.122  -1.326  0.00  0.00     0.032 C 
HETATM    8  C   UNK N   1       2.915   1.251  -2.339  0.00  0.00     0.128 C 
HETATM    9  C   UNK N   1       2.040   1.016  -3.597  0.00  0.00     0.116 C 
HETATM   10  C   UNK N   1       0.966   0.011  -3.240  0.00  0.00     0.165 C 
HETATM   11  C   UNK N   1      -0.507   0.278  -3.322  0.00  0.00     0.050 A 
HETATM   12  C   UNK N   1      -1.402  -0.322  -2.378  0.00  0.00    -0.030 A 
HETATM   13  C   UNK N   1      -0.922  -1.121  -1.176  0.00  0.00     0.150 C 
HETATM   14  C   UNK N   1      -2.783  -0.110  -2.503  0.00  0.00     0.045 A 
HETATM   15  C   UNK N   1      -3.298   0.692  -3.520  0.00  0.00     0.068 A 
HETATM   16  C   UNK N   1      -2.436   1.290  -4.436  0.00  0.00     0.074 A 
HETATM   17  C   UNK N   1      -1.050   1.090  -4.351  0.00  0.00     0.082 A 
HETATM   18  O   UNK N   1       1.345  -1.079  -2.845  0.00  0.00    -0.292 OA
HETATM   19  C   UNK N   1       1.775  -0.646   2.449  0.00  0.00     0.040 C 
ENDROOT
BRANCH   8  20
HETATM   20  O   UNK N   1       4.119   1.912  -2.693  0.00  0.00    -0.390 OA
HETATM   21  C   UNK N   1       5.133   0.965  -2.967  0.00  0.00     0.202 C 
ENDBRANCH   8  20
BRANCH  17  22
HETATM   22  O   UNK N   1      -0.249   1.650  -5.284  0.00  0.00    -0.360 OA
HETATM   23  H   UNK N   1      -0.602   2.192  -6.003  0.00  0.00     0.217 HD
ENDBRANCH  17  22
BRANCH  15  24
HETATM   24  O   UNK N   1      -4.627   0.901  -3.619  0.00  0.00    -0.361 OA
HETATM   25  H   UNK N   1      -5.251   0.510  -2.990  0.00  0.00     0.217 HD
ENDBRANCH  15  24
TORSDOF 3
