REMARK  3 active torsions:
REMARK  status: ('A' for Active; 'I' for Inactive)
REMARK    1  A    between atoms: C_8  and  O_9 
REMARK    2  A    between atoms: C_17  and  O_18 
REMARK    3  A    between atoms: C_21  and  O_22 
ROOT
HETATM    1  O   UNK N   1      -0.330   0.588   0.130  0.00  0.00    -0.265 OA
HETATM    2  C   UNK N   1       0.108  -0.477  -0.285  0.00  0.00     0.263 C 
HETATM    3  O   UNK N   1       1.392  -0.841  -0.025  0.00  0.00    -0.316 OA
HETATM    4  C   UNK N   1       2.212  -0.198   0.895  0.00  0.00     0.127 C 
HETATM    5  C   UNK N   1       3.657  -0.701   0.739  0.00  0.00     0.032 C 
HETATM    6  C   UNK N   1       4.435  -0.246  -0.521  0.00  0.00     0.005 C 
HETATM    7  C   UNK N   1       3.801  -0.594  -1.882  0.00  0.00     0.032 C 
HETATM    8  C   UNK N   1       2.895   0.534  -2.446  0.00  0.00     0.128 C 
HETATM    9  C   UNK N   1       2.148   0.108  -3.735  0.00  0.00     0.116 C 
HETATM   10  C   UNK N   1       1.039  -0.861  -3.393  0.00  0.00     0.165 C 
HETATM   11  C   UNK N   1      -0.388  -0.428  -3.444  0.00  0.00     0.050 A 
HETATM   12  C   UNK N   1      -1.266  -0.698  -2.351  0.00  0.00    -0.030 A 
HETATM   13  C   UNK N   1      -0.798  -1.384  -1.079  0.00  0.00     0.150 C 
HETATM   14  C   UNK N   1      -2.597  -0.257  -2.413  0.00  0.00     0.045 A 
HETATM   15  C   UNK N   1      -3.069   0.447  -3.523  0.00  0.00     0.068 A 
HETATM   16  C   UNK N   1      -2.220   0.700  -4.599  0.00  0.00     0.074 A 
HETATM   17  C   UNK N   1      -0.888   0.270  -4.571  0.00  0.00     0.082 A 
HETATM   18  O   UNK N   1       1.323  -1.963  -2.957  0.00  0.00    -0.292 OA
HETATM   19  C   UNK N   1       1.715  -0.509   2.319  0.00  0.00     0.040 C 
ENDROOT
BRANCH   8  20
HETATM   20  O   UNK N   1       3.728   1.649  -2.734  0.00  0.00    -0.390 OA
HETATM   21  C   UNK N   1       3.051   2.869  -2.503  0.00  0.00     0.202 C 
ENDBRANCH   8  20
BRANCH  17  22
HETATM   22  O   UNK N   1      -0.093   0.503  -5.640  0.00  0.00    -0.360 OA
HETATM   23  H   UNK N   1      -0.420   0.952  -6.433  0.00  0.00     0.217 HD
ENDBRANCH  17  22
BRANCH  15  24
HETATM   24  O   UNK N   1      -4.341   0.894  -3.561  0.00  0.00    -0.361 OA
HETATM   25  H   UNK N   1      -4.947   0.764  -2.817  0.00  0.00     0.217 HD
ENDBRANCH  15  24
TORSDOF 3
