REMARK  4 active torsions:
REMARK  status: ('A' for Active; 'I' for Inactive)
REMARK    1  A    between atoms: C_4  and  C_5 
REMARK    2  A    between atoms: C_14  and  C_18 
REMARK    3  A    between atoms: C_18  and  O_19 
REMARK    4  A    between atoms: C_21  and  O_22 
ROOT
HETATM    1  O   UNK N   1       3.317   1.544  -2.448  0.00  0.00    -0.264 OA
HETATM    2  C   UNK N   1       2.542   1.179  -1.579  0.00  0.00     0.269 C 
HETATM    3  O   UNK N   1       2.865   0.230  -0.691  0.00  0.00    -0.311 OA
HETATM    4  C   UNK N   1       1.780  -0.188   0.041  0.00  0.00     0.168 C 
HETATM    5  C   UNK N   1       0.748   0.959  -0.136  0.00  0.00     0.058 C 
HETATM    6  C   UNK N   1       1.130   1.660  -1.467  0.00  0.00     0.061 C 
HETATM    7  C   UNK N   1       0.272   1.212  -2.714  0.00  0.00     0.036 C 
HETATM    8  C   UNK N   1      -1.161   1.768  -2.574  0.00  0.00    -0.042 C 
HETATM    9  C   UNK N   1      -2.268   0.943  -2.612  0.00  0.00    -0.051 C 
HETATM   10  C   UNK N   1      -2.126  -0.561  -2.770  0.00  0.00     0.037 C 
HETATM   11  C   UNK N   1      -0.753  -1.099  -2.386  0.00  0.00     0.005 C 
HETATM   12  C   UNK N   1       0.312  -0.291  -3.102  0.00  0.00     0.011 C 
HETATM   13  C   UNK N   1      -1.252   3.287  -2.395  0.00  0.00     0.148 C 
HETATM   14  C   UNK N   1      -0.345   3.749  -1.237  0.00  0.00     0.042 C 
HETATM   15  C   UNK N   1       1.103   3.238  -1.383  0.00  0.00     0.003 C 
HETATM   16  C   UNK N   1       1.995   3.863  -0.283  0.00  0.00     0.011 C 
ENDROOT
BRANCH   4  17
HETATM   17  C   UNK N   1       2.154  -0.435   1.483  0.00  0.00    -0.005 A 
HETATM   18  C   UNK N   1       3.373  -0.884   1.951  0.00  0.00     0.151 A 
HETATM   19  O   UNK N   1       3.323  -0.974   3.262  0.00  0.00    -0.334 OA
HETATM   20  C   UNK N   1       2.130  -0.609   3.678  0.00  0.00     0.142 A 
HETATM   21  C   UNK N   1       1.354  -0.259   2.593  0.00  0.00     0.036 A 
ENDBRANCH   4  17
BRANCH   9  22
HETATM   22  C   UNK N   1      -3.709   1.443  -2.573  0.00  0.00     0.198 C 
BRANCH  22  23
HETATM   23  O   UNK N   1      -4.383   1.038  -3.732  0.00  0.00    -0.397 OA
HETATM   24  H   UNK N   1      -3.984   1.552  -4.483  0.00  0.00     0.209 HD
ENDBRANCH  22  23
ENDBRANCH   9  22
BRANCH  13  25
HETATM   25  O   UNK N   1      -0.951   3.953  -3.599  0.00  0.00    -0.391 OA
HETATM   26  H   UNK N   1      -0.015   3.774  -3.857  0.00  0.00     0.210 HD
ENDBRANCH  13  25
TORSDOF 4
