REMARK  4 active torsions:
REMARK  status: ('A' for Active; 'I' for Inactive)
REMARK    1  A    between atoms: C_4  and  C_5 
REMARK    2  A    between atoms: C_14  and  C_17 
REMARK    3  A    between atoms: C_17  and  O_18 
REMARK    4  A    between atoms: C_23  and  O_24 
ROOT
HETATM    1  O   UNK N   1       3.287   1.467  -2.386  0.00  0.00    -0.264 OA
HETATM    2  C   UNK N   1       2.507   1.215  -1.483  0.00  0.00     0.269 C 
HETATM    3  O   UNK N   1       2.780   0.293  -0.550  0.00  0.00    -0.311 OA
HETATM    4  C   UNK N   1       1.677   0.018   0.216  0.00  0.00     0.168 C 
HETATM    5  C   UNK N   1       0.853   1.315   0.095  0.00  0.00     0.058 C 
HETATM    6  C   UNK N   1       1.118   1.791  -1.376  0.00  0.00     0.059 C 
HETATM    7  C   UNK N   1       0.103   1.093  -2.343  0.00  0.00     0.020 C 
HETATM    8  C   UNK N   1      -1.387   1.638  -2.094  0.00  0.00     0.045 C 
HETATM    9  C   UNK N   1      -2.395   1.191  -3.211  0.00  0.00     0.094 C 
HETATM   10  O   UNK N   1      -2.660  -0.013  -2.525  0.00  0.00    -0.376 OA
HETATM   11  C   UNK N   1      -2.147   0.549  -1.328  0.00  0.00     0.184 C 
HETATM   12  C   UNK N   1      -1.801   1.048  -4.634  0.00  0.00     0.041 C 
HETATM   13  C   UNK N   1      -0.435   0.394  -4.683  0.00  0.00     0.004 C 
HETATM   14  C   UNK N   1       0.534   1.192  -3.822  0.00  0.00     0.007 C 
HETATM   15  C   UNK N   1      -1.419   3.077  -1.433  0.00  0.00     0.132 C 
HETATM   16  C   UNK N   1      -0.284   3.935  -2.001  0.00  0.00     0.038 C 
HETATM   17  C   UNK N   1       1.114   3.357  -1.627  0.00  0.00     0.003 C 
HETATM   18  C   UNK N   1       1.771   4.171  -0.496  0.00  0.00     0.011 C 
ENDROOT
BRANCH   4  19
HETATM   19  C   UNK N   1       2.034  -0.313   1.637  0.00  0.00    -0.005 A 
HETATM   20  C   UNK N   1       1.193  -0.847   2.590  0.00  0.00     0.151 A 
HETATM   21  O   UNK N   1       1.859  -0.999   3.713  0.00  0.00    -0.334 OA
HETATM   22  C   UNK N   1       3.097  -0.585   3.541  0.00  0.00     0.142 A 
HETATM   23  C   UNK N   1       3.259  -0.147   2.244  0.00  0.00     0.036 A 
ENDBRANCH   4  19
BRANCH   9  24
HETATM   24  C   UNK N   1      -3.761   1.934  -3.331  0.00  0.00     0.203 C 
BRANCH  24  25
HETATM   25  O   UNK N   1      -4.668   1.179  -4.095  0.00  0.00    -0.398 OA
HETATM   26  H   UNK N   1      -4.620   1.511  -5.029  0.00  0.00     0.209 HD
ENDBRANCH  24  25
ENDBRANCH   9  24
BRANCH  15  27
HETATM   27  O   UNK N   1      -2.670   3.713  -1.521  0.00  0.00    -0.395 OA
HETATM   28  H   UNK N   1      -2.662   4.337  -2.293  0.00  0.00     0.210 HD
ENDBRANCH  15  27
TORSDOF 4
