REMARK  5 active torsions:
REMARK  status: ('A' for Active; 'I' for Inactive)
REMARK    1  A    between atoms: C_2  and  O_3 
REMARK    2  A    between atoms: O_3  and  C_4 
REMARK    3  A    between atoms: C_8  and  C_14 
REMARK    4  A    between atoms: C_14  and  O_15 
REMARK    5  A    between atoms: C_27  and  O_28 
ROOT
HETATM    1  C   UNK N   1       0.223  -0.691  -2.201  0.00  0.00     0.140 C 
HETATM    2  C   UNK N   1       0.567   0.320  -1.081  0.00  0.00     0.062 C 
HETATM    3  C   UNK N   1       1.952   1.040  -1.093  0.00  0.00     0.102 C 
HETATM    4  O   UNK N   1       2.484   1.219  -2.379  0.00  0.00    -0.338 OA
HETATM    5  C   UNK N   1       3.854   0.857  -2.220  0.00  0.00     0.196 C 
HETATM    6  O   UNK N   1       4.186   1.047  -0.862  0.00  0.00    -0.338 OA
HETATM    7  C   UNK N   1       3.122   0.291  -0.396  0.00  0.00     0.093 C 
HETATM    8  C   UNK N   1       3.402  -1.086  -1.030  0.00  0.00     0.046 C 
HETATM    9  C   UNK N   1       3.946  -0.667  -2.390  0.00  0.00     0.075 C 
HETATM   10  C   UNK N   1       3.057   0.181   1.141  0.00  0.00     0.049 C 
HETATM   11  C   UNK N   1       1.672   2.436  -0.470  0.00  0.00     0.042 C 
HETATM   12  C   UNK N   1       0.256   2.360   0.114  0.00  0.00     0.013 C 
HETATM   13  C   UNK N   1      -0.541   1.383  -0.788  0.00  0.00    -0.027 C 
HETATM   14  C   UNK N   1      -1.186   2.051  -2.131  0.00  0.00    -0.032 C 
HETATM   15  C   UNK N   1      -1.597   0.887  -3.118  0.00  0.00     0.005 C 
HETATM   16  C   UNK N   1      -2.489   1.289  -4.403  0.00  0.00    -0.035 C 
HETATM   17  C   UNK N   1      -3.438   2.544  -4.084  0.00  0.00     0.004 C 
HETATM   18  C   UNK N   1      -4.730   2.714  -5.018  0.00  0.00    -0.017 C 
HETATM   19  C   UNK N   1      -5.469   1.357  -5.203  0.00  0.00     0.126 C 
HETATM   20  C   UNK N   1      -4.507   0.270  -5.723  0.00  0.00     0.033 C 
HETATM   21  C   UNK N   1      -3.381   0.029  -4.711  0.00  0.00     0.012 C 
HETATM   22  C   UNK N   1      -4.366   3.312  -6.411  0.00  0.00     0.018 C 
HETATM   23  C   UNK N   1      -5.730   3.753  -4.430  0.00  0.00     0.018 C 
HETATM   24  C   UNK N   1      -3.745   2.554  -2.563  0.00  0.00     0.007 C 
HETATM   25  C   UNK N   1      -2.467   2.907  -1.772  0.00  0.00     0.011 C 
HETATM   26  C   UNK N   1      -1.586   1.560  -5.646  0.00  0.00     0.016 C 
HETATM   27  C   UNK N   1      -0.377  -0.026  -3.451  0.00  0.00     0.039 C 
HETATM   28  C   UNK N   1      -0.229   3.031  -2.869  0.00  0.00     0.016 C 
HETATM   29  C   UNK N   1      -1.642   0.700   0.108  0.00  0.00     0.016 C 
ENDROOT
BRANCH   1  30
HETATM   30  O   UNK N   1      -0.655  -1.636  -1.693  0.00  0.00    -0.316 OA
BRANCH  30  31
HETATM   31  C   UNK N   1      -0.837  -2.868  -2.251  0.00  0.00     0.255 C 
HETATM   32  O   UNK N   1      -0.210  -3.212  -3.236  0.00  0.00    -0.266 OA
HETATM   33  C   UNK N   1      -1.803  -3.814  -1.617  0.00  0.00     0.126 C 
ENDBRANCH  30  31
ENDBRANCH   1  30
BRANCH   5  34
HETATM   34  C   UNK N   1       4.755   1.704  -3.168  0.00  0.00     0.107 C 
HETATM   35  C   UNK N   1       4.380   1.475  -4.650  0.00  0.00     0.051 C 
HETATM   36  C   UNK N   1       4.578   3.201  -2.854  0.00  0.00     0.051 C 
BRANCH  34  37
HETATM   37  O   UNK N   1       6.112   1.392  -2.949  0.00  0.00    -0.385 OA
HETATM   38  H   UNK N   1       6.319   0.528  -3.391  0.00  0.00     0.210 HD
ENDBRANCH  34  37
ENDBRANCH   5  34
BRANCH  19  39
HETATM   39  O   UNK N   1      -6.034   0.944  -3.982  0.00  0.00    -0.395 OA
HETATM   40  H   UNK N   1      -6.644   0.186  -4.185  0.00  0.00     0.210 HD
ENDBRANCH  19  39
TORSDOF 5
