REMARK  3 active torsions:
REMARK  status: ('A' for Active; 'I' for Inactive)
REMARK    1  A    between atoms: C_15  and  O_16 
REMARK    2  A    between atoms: O_16  and  C_17 
REMARK    3  A    between atoms: C_22  and  C_23 
ROOT
HETATM    1  O   UNK N   1       5.113   1.426  -1.461  0.00  0.00    -0.292 OA
HETATM    2  C   UNK N   1       4.081   0.818  -1.214  0.00  0.00     0.157 C 
HETATM    3  C   UNK N   1       2.795   1.548  -1.294  0.00  0.00     0.048 C 
HETATM    4  C   UNK N   1       1.643   1.027  -0.840  0.00  0.00    -0.013 C 
HETATM    5  C   UNK N   1       1.581  -0.337  -0.140  0.00  0.00    -0.017 C 
HETATM    6  C   UNK N   1       2.676  -1.246  -0.820  0.00  0.00     0.013 C 
HETATM    7  C   UNK N   1       4.144  -0.660  -0.846  0.00  0.00     0.022 C 
HETATM    8  C   UNK N   1       4.956  -1.387  -1.954  0.00  0.00     0.024 C 
HETATM    9  C   UNK N   1       4.932  -0.831   0.476  0.00  0.00     0.024 C 
HETATM   10  C   UNK N   1       2.577  -2.714  -0.337  0.00  0.00     0.007 C 
HETATM   11  C   UNK N   1       1.211  -3.308  -0.715  0.00  0.00     0.011 C 
HETATM   12  C   UNK N   1      -0.005  -2.555  -0.097  0.00  0.00    -0.032 C 
HETATM   13  C   UNK N   1      -1.387  -3.111  -0.729  0.00  0.00    -0.030 C 
HETATM   14  C   UNK N   1      -2.615  -2.192  -0.388  0.00  0.00     0.031 C 
HETATM   15  C   UNK N   1      -2.339  -0.663  -0.570  0.00  0.00     0.137 C 
HETATM   16  C   UNK N   1      -1.056  -0.222   0.147  0.00  0.00     0.039 C 
HETATM   17  C   UNK N   1       0.161  -1.005  -0.426  0.00  0.00     0.009 C 
HETATM   18  C   UNK N   1      -3.720  -2.727  -1.350  0.00  0.00     0.028 C 
HETATM   19  C   UNK N   1      -2.947  -3.057  -2.652  0.00  0.00     0.009 C 
HETATM   20  C   UNK N   1      -1.451  -3.127  -2.276  0.00  0.00     0.011 C 
HETATM   21  C   UNK N   1      -1.655  -4.589  -0.262  0.00  0.00     0.016 C 
HETATM   22  C   UNK N   1      -0.014  -2.831   1.443  0.00  0.00     0.016 C 
HETATM   23  C   UNK N   1       1.841  -0.039   1.360  0.00  0.00     0.020 C 
ENDROOT
BRANCH  18  24
HETATM   24  C   UNK N   1      -5.063  -1.939  -1.532  0.00  0.00     0.071 C 
HETATM   25  O   UNK N   1      -4.868  -0.695  -2.085  0.00  0.00    -0.310 OA
HETATM   26  C   UNK N   1      -5.816  -0.386  -2.983  0.00  0.00     0.259 C 
HETATM   27  O   UNK N   1      -5.924   0.730  -3.457  0.00  0.00    -0.265 OA
HETATM   28  C   UNK N   1      -6.820  -1.459  -3.164  0.00  0.00     0.114 C 
HETATM   29  C   UNK N   1      -6.019  -2.616  -2.557  0.00  0.00     0.048 C 
HETATM   30  C   UNK N   1      -5.780  -1.777  -0.176  0.00  0.00     0.047 C 
ENDBRANCH  18  24
BRANCH  15  31
HETATM   31  O   UNK N   1      -2.256  -0.292  -1.906  0.00  0.00    -0.316 OA
BRANCH  31  32
HETATM   32  C   UNK N   1      -2.522   0.963  -2.364  0.00  0.00     0.255 C 
HETATM   33  O   UNK N   1      -2.916   1.838  -1.604  0.00  0.00    -0.266 OA
HETATM   34  C   UNK N   1      -2.377   1.260  -3.819  0.00  0.00     0.126 C 
ENDBRANCH  31  32
ENDBRANCH  15  31
TORSDOF 3
