REMARK  6 active torsions:
REMARK  status: ('A' for Active; 'I' for Inactive)
REMARK    1  A    between atoms: O_1  and  C_2 
REMARK    2  A    between atoms: C_3  and  C_17 
REMARK    3  A    between atoms: C_6  and  C_7 
REMARK    4  A    between atoms: C_7  and  O_8 
REMARK    5  A    between atoms: C_17  and  C_18 
REMARK    6  A    between atoms: C_18  and  O_19 
ROOT
HETATM    1  C   UNK N   1       1.060  -0.554  -0.076  0.00  0.00     0.059 C 
HETATM    2  C   UNK N   1       1.067   0.715  -1.031  0.00  0.00     0.030 C 
HETATM    3  C   UNK N   1      -0.264   1.611  -0.987  0.00  0.00    -0.033 C 
HETATM    4  C   UNK N   1      -1.481   0.634  -1.286  0.00  0.00     0.004 C 
HETATM    5  C   UNK N   1      -2.882   1.299  -1.622  0.00  0.00    -0.018 C 
HETATM    6  C   UNK N   1      -2.650   2.372  -2.726  0.00  0.00     0.012 C 
HETATM    7  C   UNK N   1      -1.568   3.388  -2.367  0.00  0.00     0.002 C 
HETATM    8  C   UNK N   1      -0.225   2.671  -2.139  0.00  0.00     0.010 C 
HETATM    9  C   UNK N   1      -3.603   1.905  -0.391  0.00  0.00     0.018 C 
HETATM   10  C   UNK N   1      -1.534  -0.501  -0.226  0.00  0.00     0.009 C 
HETATM   11  C   UNK N   1      -0.256  -1.344  -0.300  0.00  0.00     0.038 C 
HETATM   12  C   UNK N   1      -0.379   2.407   0.353  0.00  0.00     0.016 C 
HETATM   13  C   UNK N   1       1.270  -0.235   1.428  0.00  0.00     0.046 C 
ENDROOT
BRANCH   2  14
HETATM   14  C   UNK N   1       2.389   1.561  -0.968  0.00  0.00     0.034 C 
BRANCH  14  15
HETATM   15  C   UNK N   1       3.673   0.800  -1.331  0.00  0.00     0.164 C 
BRANCH  15  16
HETATM   16  O   UNK N   1       4.747   1.695  -1.443  0.00  0.00    -0.401 OA
HETATM   17  H   UNK N   1       4.713   2.069  -2.363  0.00  0.00     0.209 HD
ENDBRANCH  15  16
ENDBRANCH  14  15
ENDBRANCH   2  14
BRANCH   1  18
HETATM   18  O   UNK N   1       2.114  -1.399  -0.471  0.00  0.00    -0.390 OA
HETATM   19  H   UNK N   1       2.080  -2.237   0.065  0.00  0.00     0.210 HD
ENDBRANCH   1  18
BRANCH   5  20
HETATM   20  C   UNK N   1      -3.843   0.225  -2.235  0.00  0.00     0.173 C 
BRANCH  20  21
HETATM   21  O   UNK N   1      -5.014   0.803  -2.755  0.00  0.00    -0.400 OA
HETATM   22  H   UNK N   1      -5.693   0.807  -2.032  0.00  0.00     0.209 HD
ENDBRANCH  20  21
ENDBRANCH   5  20
TORSDOF 6
