REMARK  8 active torsions:
REMARK  status: ('A' for Active; 'I' for Inactive)
REMARK    1  A    between atoms: C_8  and  O_10 
REMARK    2  A    between atoms: O_10  and  C_11 
REMARK    3  A    between atoms: C_11  and  C_12 
REMARK    4  A    between atoms: C_15  and  C_23 
REMARK    5  A    between atoms: C_16  and  O_17 
REMARK    6  A    between atoms: O_17  and  C_18 
REMARK    7  A    between atoms: C_23  and  O_24 
REMARK    8  A    between atoms: O_24  and  C_25 
ROOT
HETATM    1  C   UNK N   1      -0.160   0.408   1.373  0.00  0.00     0.047 C 
HETATM    2  C   UNK N   1       1.437   0.377   1.457  0.00  0.00    -0.030 C 
HETATM    3  C   UNK N   1       1.913   1.865   1.642  0.00  0.00     0.011 C 
HETATM    4  C   UNK N   1       3.453   2.192   1.369  0.00  0.00     0.009 C 
HETATM    5  C   UNK N   1       3.834   1.560  -0.003  0.00  0.00     0.142 C 
HETATM    6  C   UNK N   1       3.527   0.052  -0.046  0.00  0.00     0.034 C 
HETATM    7  C   UNK N   1       2.019  -0.175   0.118  0.00  0.00     0.013 C 
HETATM    8  C   UNK N   1       3.631   3.732   1.229  0.00  0.00     0.020 C 
HETATM    9  C   UNK N   1       1.371   2.425   2.981  0.00  0.00     0.033 C 
HETATM   10  C   UNK N   1      -0.098   2.200   3.158  0.00  0.00    -0.023 C 
HETATM   11  C   UNK N   1      -0.813   1.322   2.426  0.00  0.00    -0.081 C 
HETATM   12  C   UNK N   1      -2.317   1.313   2.603  0.00  0.00     0.043 C 
HETATM   13  C   UNK N   1       1.882  -0.549   2.631  0.00  0.00     0.016 C 
ENDROOT
BRANCH   1  14
HETATM   14  C   UNK N   1      -0.818  -1.007   1.376  0.00  0.00     0.185 C 
BRANCH  14  15
HETATM   15  O   UNK N   1      -0.496  -1.720   0.236  0.00  0.00    -0.350 OA
BRANCH  15  16
HETATM   16  C   UNK N   1      -1.106  -1.582  -0.976  0.00  0.00     0.071 A 
HETATM   17  C   UNK N   1      -0.610  -2.318  -2.061  0.00  0.00     0.038 A 
HETATM   18  C   UNK N   1      -1.227  -2.243  -3.315  0.00  0.00     0.017 A 
HETATM   19  C   UNK N   1      -2.356  -1.432  -3.493  0.00  0.00    -0.002 A 
HETATM   20  C   UNK N   1      -2.856  -0.677  -2.413  0.00  0.00     0.092 A 
HETATM   21  C   UNK N   1      -3.016  -1.355  -4.723  0.00  0.00     0.020 A 
HETATM   22  O   UNK N   1      -3.932   0.090  -2.569  0.00  0.00    -0.275 OA
HETATM   23  C   UNK N   1      -2.231  -0.746  -1.169  0.00  0.00     0.075 A 
HETATM   24  C   UNK N   1      -4.584   0.180  -3.726  0.00  0.00     0.288 A 
HETATM   25  O   UNK N   1      -5.566   0.891  -3.811  0.00  0.00    -0.260 OA
HETATM   26  C   UNK N   1      -4.143  -0.543  -4.841  0.00  0.00     0.083 A 
ENDBRANCH  15  16
ENDBRANCH  14  15
ENDBRANCH   1  14
BRANCH   4  27
HETATM   27  C   UNK N   1       4.466   1.734   2.470  0.00  0.00     0.191 C 
BRANCH  27  28
HETATM   28  O   UNK N   1       4.157   2.314   3.680  0.00  0.00    -0.321 OA
BRANCH  28  29
HETATM   29  C   UNK N   1       4.830   2.095   4.832  0.00  0.00     0.254 C 
HETATM   30  O   UNK N   1       5.800   1.351   4.864  0.00  0.00    -0.266 OA
HETATM   31  C   UNK N   1       4.353   2.764   6.078  0.00  0.00     0.126 C 
ENDBRANCH  28  29
ENDBRANCH  27  28
ENDBRANCH   4  27
BRANCH   5  32
HETATM   32  O   UNK N   1       5.174   1.789  -0.271  0.00  0.00    -0.315 OA
BRANCH  32  33
HETATM   33  C   UNK N   1       5.722   1.808  -1.512  0.00  0.00     0.255 C 
HETATM   34  O   UNK N   1       5.025   1.684  -2.510  0.00  0.00    -0.266 OA
HETATM   35  C   UNK N   1       7.194   2.009  -1.649  0.00  0.00     0.126 C 
ENDBRANCH  32  33
ENDBRANCH   5  32
TORSDOF 8
