REMARK  6 active torsions:
REMARK  status: ('A' for Active; 'I' for Inactive)
REMARK    1  A    between atoms: C_8  and  O_10 
REMARK    2  A    between atoms: O_10  and  C_11 
REMARK    3  A    between atoms: C_11  and  C_12 
REMARK    4  A    between atoms: C_15  and  C_21 
REMARK    5  A    between atoms: C_16  and  O_17 
REMARK    6  A    between atoms: C_21  and  O_22 
ROOT
HETATM    1  C   UNK N   1      -2.832   1.817   0.138  0.00  0.00     0.047 C 
HETATM    2  C   UNK N   1      -3.528   0.675  -0.736  0.00  0.00    -0.030 C 
HETATM    3  C   UNK N   1      -5.060   1.030  -0.812  0.00  0.00     0.011 C 
HETATM    4  C   UNK N   1      -6.070  -0.115  -1.280  0.00  0.00     0.008 C 
HETATM    5  C   UNK N   1      -5.736  -1.410  -0.468  0.00  0.00     0.128 C 
HETATM    6  C   UNK N   1      -4.254  -1.804  -0.595  0.00  0.00     0.033 C 
HETATM    7  C   UNK N   1      -3.367  -0.697  -0.015  0.00  0.00     0.013 C 
HETATM    8  C   UNK N   1      -7.521   0.303  -0.904  0.00  0.00     0.020 C 
HETATM    9  C   UNK N   1      -5.248   2.377  -1.552  0.00  0.00     0.033 C 
HETATM   10  C   UNK N   1      -4.367   3.465  -1.019  0.00  0.00    -0.023 C 
HETATM   11  C   UNK N   1      -3.297   3.241  -0.230  0.00  0.00    -0.081 C 
HETATM   12  C   UNK N   1      -2.580   4.445   0.348  0.00  0.00     0.043 C 
HETATM   13  C   UNK N   1      -2.848   0.597  -2.138  0.00  0.00     0.016 C 
ENDROOT
BRANCH   1  14
HETATM   14  C   UNK N   1      -1.281   1.761   0.142  0.00  0.00     0.185 C 
BRANCH  14  15
HETATM   15  O   UNK N   1      -0.799   0.601   0.711  0.00  0.00    -0.350 OA
BRANCH  15  16
HETATM   16  C   UNK N   1       0.524   0.326   0.843  0.00  0.00     0.071 A 
HETATM   17  C   UNK N   1       0.936  -0.526   1.877  0.00  0.00     0.038 A 
HETATM   18  C   UNK N   1       2.294  -0.800   2.072  0.00  0.00     0.017 A 
HETATM   19  C   UNK N   1       3.252  -0.234   1.220  0.00  0.00    -0.002 A 
HETATM   20  C   UNK N   1       2.845   0.607   0.164  0.00  0.00     0.092 A 
HETATM   21  C   UNK N   1       4.617  -0.479   1.389  0.00  0.00     0.020 A 
HETATM   22  O   UNK N   1       3.746   1.142  -0.656  0.00  0.00    -0.275 OA
HETATM   23  C   UNK N   1       1.492   0.887  -0.018  0.00  0.00     0.075 A 
HETATM   24  C   UNK N   1       5.052   0.922  -0.523  0.00  0.00     0.288 A 
HETATM   25  O   UNK N   1       5.833   1.435  -1.301  0.00  0.00    -0.260 OA
HETATM   26  C   UNK N   1       5.528   0.105   0.510  0.00  0.00     0.083 A 
ENDBRANCH  15  16
ENDBRANCH  14  15
ENDBRANCH   1  14
BRANCH   4  27
HETATM   27  C   UNK N   1      -6.089  -0.437  -2.814  0.00  0.00     0.176 C 
BRANCH  27  28
HETATM   28  O   UNK N   1      -6.467   0.678  -3.573  0.00  0.00    -0.400 OA
HETATM   29  H   UNK N   1      -6.451   0.393  -4.523  0.00  0.00     0.209 HD
ENDBRANCH  27  28
ENDBRANCH   4  27
BRANCH   5  30
HETATM   30  O   UNK N   1      -6.555  -2.477  -0.882  0.00  0.00    -0.395 OA
HETATM   31  H   UNK N   1      -6.408  -3.225  -0.246  0.00  0.00     0.210 HD
ENDBRANCH   5  30
TORSDOF 6
