REMARK  5 active torsions:
REMARK  status: ('A' for Active; 'I' for Inactive)
REMARK    1  A    between atoms: C_6  and  C_7 
REMARK    2  A    between atoms: C_7  and  O_8 
REMARK    3  A    between atoms: C_13  and  O_14 
REMARK    4  A    between atoms: C_17  and  O_18 
REMARK    5  A    between atoms: O_18  and  C_19 
ROOT
HETATM    1  O   UNK N   1      -2.691  -2.659  -1.385  0.00  0.00    -0.259 OA
HETATM    2  C   UNK N   1      -2.504  -1.523  -0.990  0.00  0.00     0.292 A 
HETATM    3  O   UNK N   1      -1.518  -1.180  -0.138  0.00  0.00    -0.307 OA
HETATM    4  C   UNK N   1      -1.552   0.188   0.114  0.00  0.00     0.171 A 
HETATM    5  C   UNK N   1      -2.711   0.657  -0.729  0.00  0.00    -0.036 A 
HETATM    6  C   UNK N   1      -3.269  -0.361  -1.367  0.00  0.00     0.045 A 
HETATM    7  C   UNK N   1      -3.037   2.115  -0.817  0.00  0.00     0.038 C 
HETATM    8  C   UNK N   1      -1.748   2.820  -1.300  0.00  0.00     0.017 C 
HETATM    9  C   UNK N   1      -0.480   2.470  -0.435  0.00  0.00    -0.007 C 
HETATM   10  C   UNK N   1       0.801   3.121  -1.085  0.00  0.00     0.130 C 
HETATM   11  C   UNK N   1       2.111   2.727  -0.341  0.00  0.00     0.069 C 
HETATM   12  C   UNK N   1       2.288   1.197  -0.137  0.00  0.00     0.163 C 
HETATM   13  C   UNK N   1       1.004   0.608   0.401  0.00  0.00    -0.052 C 
HETATM   14  C   UNK N   1      -0.276   0.907  -0.383  0.00  0.00     0.061 C 
HETATM   15  C   UNK N   1       1.029  -0.130   1.527  0.00  0.00     0.017 C 
HETATM   16  C   UNK N   1      -0.683   3.053   0.998  0.00  0.00     0.018 C 
ENDROOT
BRANCH  12  17
HETATM   17  O   UNK N   1       2.615   0.483  -1.276  0.00  0.00    -0.312 OA
BRANCH  17  18
HETATM   18  C   UNK N   1       3.828   0.512  -1.882  0.00  0.00     0.255 C 
HETATM   19  O   UNK N   1       4.559   1.487  -1.787  0.00  0.00    -0.266 OA
HETATM   20  C   UNK N   1       4.305  -0.715  -2.591  0.00  0.00     0.126 C 
ENDBRANCH  17  18
ENDBRANCH  12  17
BRANCH  10  21
HETATM   21  O   UNK N   1       0.901   2.848  -2.464  0.00  0.00    -0.395 OA
HETATM   22  H   UNK N   1       1.125   1.897  -2.597  0.00  0.00     0.210 HD
ENDBRANCH  10  21
BRANCH   6  23
HETATM   23  C   UNK N   1      -4.446  -0.322  -2.309  0.00  0.00     0.209 C 
BRANCH  23  24
HETATM   24  O   UNK N   1      -4.248   0.600  -3.347  0.00  0.00    -0.396 OA
HETATM   25  H   UNK N   1      -3.430   0.324  -3.834  0.00  0.00     0.209 HD
ENDBRANCH  23  24
ENDBRANCH   6  23
TORSDOF 5
