REMARK  2 active torsions:
REMARK  status: ('A' for Active; 'I' for Inactive)
REMARK    1  A    between atoms: C_4  and  C_18 
REMARK    2  A    between atoms: C_18  and  O_19 
ROOT
HETATM    1  O   UNK N   1      -3.422   0.859   0.164  0.00  0.00    -0.288 OA
HETATM    2  C   UNK N   1      -2.247   0.589  -0.025  0.00  0.00     0.179 C 
HETATM    3  C   UNK N   1      -1.519   0.643  -1.301  0.00  0.00     0.007 C 
HETATM    4  C   UNK N   1      -2.003   1.229  -2.460  0.00  0.00    -0.046 C 
HETATM    5  C   UNK N   1      -1.173   1.488  -3.728  0.00  0.00     0.037 C 
HETATM    6  C   UNK N   1      -0.066   0.493  -4.030  0.00  0.00     0.012 C 
HETATM    7  C   UNK N   1       1.155   0.596  -3.112  0.00  0.00     0.030 C 
HETATM    8  C   UNK N   1       0.929   1.039  -1.658  0.00  0.00     0.149 C 
HETATM    9  O   UNK N   1       2.219   1.008  -1.182  0.00  0.00    -0.314 OA
HETATM   10  C   UNK N   1       3.075   1.335  -2.174  0.00  0.00     0.263 C 
HETATM   11  O   UNK N   1       4.234   1.644  -1.968  0.00  0.00    -0.265 OA
HETATM   12  C   UNK N   1       2.418   1.368  -3.522  0.00  0.00     0.088 C 
HETATM   13  C   UNK N   1       2.188   2.803  -3.999  0.00  0.00     0.021 C 
HETATM   14  C   UNK N   1      -0.102   0.116  -1.020  0.00  0.00     0.081 C 
HETATM   15  C   UNK N   1      -0.115   0.039   0.504  0.00  0.00    -0.069 C 
HETATM   16  C   UNK N   1      -1.319   0.267   1.026  0.00  0.00     0.058 C 
HETATM   17  C   UNK N   1       1.080  -0.320   1.343  0.00  0.00     0.044 C 
ENDROOT
BRANCH   4  18
HETATM   18  C   UNK N   1      -3.417   1.780  -2.507  0.00  0.00     0.199 C 
BRANCH  18  19
HETATM   19  O   UNK N   1      -4.348   0.734  -2.464  0.00  0.00    -0.397 OA
HETATM   20  H   UNK N   1      -4.402   0.370  -3.388  0.00  0.00     0.209 HD
ENDBRANCH  18  19
ENDBRANCH   4  18
TORSDOF 2
