REMARK  8 active torsions:
REMARK  status: ('A' for Active; 'I' for Inactive)
REMARK    1  A    between atoms: C_2  and  O_3 
REMARK    2  A    between atoms: C_2  and  C_25 
REMARK    3  A    between atoms: O_3  and  C_4 
REMARK    4  A    between atoms: C_6  and  O_7 
REMARK    5  A    between atoms: C_6  and  C_9 
REMARK    6  A    between atoms: C_16  and  O_17 
REMARK    7  A    between atoms: C_19  and  O_20 
REMARK    8  A    between atoms: C_28  and  O_29 
ROOT
HETATM    1  C   UNK N   1       0.676   0.316  -0.801  0.00  0.00     0.142 C 
HETATM    2  C   UNK N   1       0.883   1.307   0.365  0.00  0.00     0.058 C 
HETATM    3  C   UNK N   1      -0.222   1.334   1.485  0.00  0.00     0.067 C 
HETATM    4  C   UNK N   1       0.528   1.976   2.702  0.00  0.00     0.039 C 
HETATM    5  C   UNK N   1       1.949   2.257   2.222  0.00  0.00     0.012 C 
HETATM    6  C   UNK N   1       2.220   1.198   1.142  0.00  0.00    -0.033 C 
HETATM    7  C   UNK N   1       3.412   1.653   0.272  0.00  0.00     0.044 C 
HETATM    8  C   UNK N   1       4.039   0.696  -0.766  0.00  0.00     0.153 C 
HETATM    9  C   UNK N   1       3.100  -0.128  -1.736  0.00  0.00     0.082 C 
HETATM   10  C   UNK N   1       1.693   0.478  -1.969  0.00  0.00     0.073 C 
HETATM   11  C   UNK N   1       3.774  -0.275  -3.131  0.00  0.00     0.049 C 
HETATM   12  C   UNK N   1       2.509  -0.172   1.815  0.00  0.00     0.016 C 
ENDROOT
BRANCH   1  13
HETATM   13  O   UNK N   1      -0.586   0.519  -1.326  0.00  0.00    -0.311 OA
BRANCH  13  14
HETATM   14  C   UNK N   1      -1.332  -0.459  -1.912  0.00  0.00     0.293 C 
HETATM   15  O   UNK N   1      -0.913  -1.607  -1.975  0.00  0.00    -0.259 OA
BRANCH  14  16
HETATM   16  C   UNK N   1      -2.658  -0.123  -2.467  0.00  0.00     0.039 A 
HETATM   17  C   UNK N   1      -3.465  -1.119  -3.047  0.00  0.00     0.020 A 
HETATM   18  C   UNK N   1      -4.720  -0.791  -3.566  0.00  0.00     0.037 A 
HETATM   19  C   UNK N   1      -5.181   0.532  -3.512  0.00  0.00     0.065 A 
HETATM   20  C   UNK N   1      -4.380   1.524  -2.939  0.00  0.00     0.037 A 
HETATM   21  C   UNK N   1      -3.126   1.200  -2.421  0.00  0.00     0.020 A 
BRANCH  19  22
HETATM   22  O   UNK N   1      -6.390   0.860  -4.009  0.00  0.00    -0.361 OA
HETATM   23  H   UNK N   1      -6.969   0.199  -4.413  0.00  0.00     0.217 HD
ENDBRANCH  19  22
ENDBRANCH  14  16
ENDBRANCH  13  14
ENDBRANCH   1  13
BRANCH   3  24
HETATM   24  O   UNK N   1      -0.538  -0.013   1.776  0.00  0.00    -0.389 OA
HETATM   25  H   UNK N   1      -0.979  -0.065   2.662  0.00  0.00     0.210 HD
ENDBRANCH   3  24
BRANCH   3  26
HETATM   26  C   UNK N   1      -1.556   2.095   1.104  0.00  0.00     0.012 C 
HETATM   27  C   UNK N   1      -2.580   2.097   2.257  0.00  0.00     0.012 C 
HETATM   28  C   UNK N   1      -1.344   3.554   0.642  0.00  0.00     0.012 C 
ENDBRANCH   3  26
BRANCH   9  29
HETATM   29  O   UNK N   1       2.902  -1.429  -1.228  0.00  0.00    -0.388 OA
HETATM   30  H   UNK N   1       3.771  -1.909  -1.227  0.00  0.00     0.210 HD
ENDBRANCH   9  29
BRANCH   8  31
HETATM   31  O   UNK N   1       4.944   1.479  -1.511  0.00  0.00    -0.393 OA
HETATM   32  H   UNK N   1       5.739   1.646  -0.937  0.00  0.00     0.210 HD
ENDBRANCH   8  31
TORSDOF 8
