REMARK  8 active torsions:
REMARK  status: ('A' for Active; 'I' for Inactive)
REMARK    1  A    between atoms: C_6  and  C_7 
REMARK    2  A    between atoms: C_7  and  O_8 
REMARK    3  A    between atoms: O_8  and  C_9 
REMARK    4  A    between atoms: C_11  and  C_21 
REMARK    5  A    between atoms: C_12  and  O_13 
REMARK    6  A    between atoms: C_15  and  O_16 
REMARK    7  A    between atoms: C_18  and  O_19 
REMARK    8  A    between atoms: C_21  and  O_22 
ROOT
HETATM    1  O   UNK N   1       3.604   1.290  -1.836  0.00  0.00    -0.265 OA
HETATM    2  C   UNK N   1       2.881   1.707  -0.942  0.00  0.00     0.264 C 
HETATM    3  O   UNK N   1       2.033   0.842  -0.324  0.00  0.00    -0.300 OA
HETATM    4  C   UNK N   1       1.275   1.117   0.811  0.00  0.00     0.125 A 
HETATM    5  C   UNK N   1      -0.205   1.020   0.476  0.00  0.00     0.036 A 
HETATM    6  C   UNK N   1      -0.863   1.798  -0.427  0.00  0.00    -0.043 C 
HETATM    7  C   UNK N   1      -0.133   2.875  -1.207  0.00  0.00     0.037 C 
HETATM    8  C   UNK N   1       0.513   3.944  -0.310  0.00  0.00     0.010 C 
HETATM    9  C   UNK N   1       1.820   3.561   0.437  0.00  0.00     0.002 C 
HETATM   10  C   UNK N   1       2.974   3.164  -0.532  0.00  0.00     0.085 C 
HETATM   11  C   UNK N   1       4.365   3.400   0.081  0.00  0.00     0.021 C 
HETATM   12  C   UNK N   1       1.634   2.463   1.482  0.00  0.00     0.054 C 
HETATM   13  C   UNK N   1      -0.773  -0.065   1.281  0.00  0.00     0.182 A 
HETATM   14  O   UNK N   1      -1.934  -0.437   1.294  0.00  0.00    -0.288 OA
HETATM   15  C   UNK N   1       0.279  -0.663   2.060  0.00  0.00     0.061 A 
HETATM   16  C   UNK N   1       1.425  -0.028   1.814  0.00  0.00    -0.040 A 
HETATM   17  C   UNK N   1       2.731  -0.419   2.452  0.00  0.00     0.047 C 
ENDROOT
BRANCH   6  18
HETATM   18  C   UNK N   1      -2.347   1.618  -0.693  0.00  0.00     0.206 C 
BRANCH  18  19
HETATM   19  O   UNK N   1      -3.068   2.166   0.388  0.00  0.00    -0.354 OA
BRANCH  19  20
HETATM   20  C   UNK N   1      -4.393   1.670   0.464  0.00  0.00     0.291 C 
HETATM   21  O   UNK N   1      -5.024   1.654  -0.814  0.00  0.00    -0.348 OA
HETATM   22  C   UNK N   1      -6.308   1.050  -0.723  0.00  0.00     0.179 C 
HETATM   23  C   UNK N   1      -7.243   1.931   0.137  0.00  0.00     0.180 C 
HETATM   24  C   UNK N   1      -6.620   2.095   1.534  0.00  0.00     0.183 C 
HETATM   25  C   UNK N   1      -5.182   2.609   1.399  0.00  0.00     0.204 C 
BRANCH  22  26
HETATM   26  C   UNK N   1      -6.876   0.866  -2.139  0.00  0.00     0.198 C 
BRANCH  26  27
HETATM   27  O   UNK N   1      -6.049   0.023  -2.895  0.00  0.00    -0.398 OA
HETATM   28  H   UNK N   1      -5.294   0.579  -3.220  0.00  0.00     0.209 HD
ENDBRANCH  26  27
ENDBRANCH  22  26
BRANCH  23  29
HETATM   29  O   UNK N   1      -8.507   1.325   0.243  0.00  0.00    -0.390 OA
HETATM   30  H   UNK N   1      -9.154   2.040   0.477  0.00  0.00     0.210 HD
ENDBRANCH  23  29
BRANCH  24  31
HETATM   31  O   UNK N   1      -7.368   2.999   2.307  0.00  0.00    -0.390 OA
HETATM   32  H   UNK N   1      -8.133   2.493   2.686  0.00  0.00     0.210 HD
ENDBRANCH  24  31
BRANCH  25  33
HETATM   33  O   UNK N   1      -4.585   2.658   2.669  0.00  0.00    -0.388 OA
HETATM   34  H   UNK N   1      -3.783   3.237   2.589  0.00  0.00     0.210 HD
ENDBRANCH  25  33
ENDBRANCH  19  20
ENDBRANCH  18  19
ENDBRANCH   6  18
TORSDOF 8
