REMARK  8 active torsions:
REMARK  status: ('A' for Active; 'I' for Inactive)
REMARK    1  A    between atoms: C_2  and  O_3 
REMARK    2  A    between atoms: C_2  and  C_34 
REMARK    3  A    between atoms: O_3  and  C_4 
REMARK    4  A    between atoms: C_6  and  O_7 
REMARK    5  A    between atoms: C_9  and  O_10 
REMARK    6  A    between atoms: O_10  and  C_11 
REMARK    7  A    between atoms: C_18  and  O_19 
REMARK    8  A    between atoms: C_22  and  O_23 
ROOT
HETATM    1  C   UNK N   1      -1.659  -1.380  -1.571  0.00  0.00     0.146 C 
HETATM    2  C   UNK N   1      -0.910  -0.169  -0.986  0.00  0.00     0.075 C 
HETATM    3  C   UNK N   1      -2.083   0.855  -0.792  0.00  0.00     0.095 C 
HETATM    4  C   UNK N   1      -2.594   1.535  -2.125  0.00  0.00     0.174 C 
HETATM    5  C   UNK N   1      -1.655   2.656  -2.691  0.00  0.00     0.036 C 
HETATM    6  C   UNK N   1      -0.319   2.126  -3.159  0.00  0.00    -0.023 C 
HETATM    7  C   UNK N   1       0.846   2.677  -2.746  0.00  0.00    -0.019 C 
HETATM    8  C   UNK N   1       2.238   2.202  -3.168  0.00  0.00    -0.004 C 
HETATM    9  C   UNK N   1       3.136   1.896  -1.899  0.00  0.00     0.132 C 
HETATM   10  C   UNK N   1       2.609   0.813  -0.904  0.00  0.00     0.069 C 
HETATM   11  C   UNK N   1       1.494   1.292   0.053  0.00  0.00     0.149 C 
HETATM   12  C   UNK N   1       0.892   0.106   0.797  0.00  0.00    -0.059 C 
HETATM   13  C   UNK N   1      -0.213  -0.538   0.332  0.00  0.00    -0.012 C 
HETATM   14  C   UNK N   1       1.570  -0.390   2.052  0.00  0.00     0.046 C 
HETATM   15  C   UNK N   1       2.187   0.972  -4.116  0.00  0.00     0.021 C 
HETATM   16  C   UNK N   1       2.877   3.365  -3.957  0.00  0.00     0.021 C 
HETATM   17  C   UNK N   1      -2.309   3.357  -3.891  0.00  0.00     0.017 C 
HETATM   18  C   UNK N   1      -3.165  -0.074  -0.172  0.00  0.00     0.048 C 
HETATM   19  C   UNK N   1      -2.945  -1.486  -0.748  0.00  0.00     0.015 C 
HETATM   20  C   UNK N   1      -4.106  -2.031  -1.583  0.00  0.00     0.012 C 
ENDROOT
BRANCH   1  21
HETATM   21  O   UNK N   1      -0.953  -2.566  -1.525  0.00  0.00    -0.311 OA
BRANCH  21  22
HETATM   22  C   UNK N   1       0.040  -2.921  -2.380  0.00  0.00     0.293 C 
HETATM   23  O   UNK N   1       0.294  -2.233  -3.357  0.00  0.00    -0.259 OA
BRANCH  22  24
HETATM   24  C   UNK N   1       0.775  -4.183  -2.134  0.00  0.00     0.039 A 
HETATM   25  C   UNK N   1       1.716  -4.665  -3.063  0.00  0.00     0.017 A 
HETATM   26  C   UNK N   1       2.395  -5.863  -2.815  0.00  0.00     0.001 A 
HETATM   27  C   UNK N   1       2.147  -6.582  -1.642  0.00  0.00     0.000 A 
HETATM   28  C   UNK N   1       1.217  -6.108  -0.715  0.00  0.00     0.001 A 
HETATM   29  C   UNK N   1       0.531  -4.917  -0.959  0.00  0.00     0.017 A 
ENDBRANCH  22  24
ENDBRANCH  21  22
ENDBRANCH   1  21
BRANCH   3  30
HETATM   30  O   UNK N   1      -1.734   1.873   0.120  0.00  0.00    -0.386 OA
HETATM   31  H   UNK N   1      -2.571   2.325   0.407  0.00  0.00     0.210 HD
ENDBRANCH   3  30
BRANCH   4  32
HETATM   32  O   UNK N   1      -3.829   2.121  -1.859  0.00  0.00    -0.313 OA
BRANCH  32  33
HETATM   33  C   UNK N   1      -4.984   1.842  -2.526  0.00  0.00     0.255 C 
HETATM   34  O   UNK N   1      -4.994   1.077  -3.480  0.00  0.00    -0.266 OA
HETATM   35  C   UNK N   1      -6.255   2.501  -2.100  0.00  0.00     0.126 C 
ENDBRANCH  32  33
ENDBRANCH   4  32
BRANCH  11  36
HETATM   36  O   UNK N   1       2.025   2.236   0.950  0.00  0.00    -0.391 OA
HETATM   37  H   UNK N   1       1.264   2.610   1.467  0.00  0.00     0.210 HD
ENDBRANCH  11  36
BRANCH   9  38
HETATM   38  O   UNK N   1       4.440   1.557  -2.316  0.00  0.00    -0.394 OA
HETATM   39  H   UNK N   1       4.456   0.595  -2.559  0.00  0.00     0.210 HD
ENDBRANCH   9  38
TORSDOF 8
