REMARK  4 active torsions:
REMARK  status: ('A' for Active; 'I' for Inactive)
REMARK    1  A    between atoms: C_18  and  C_19 
REMARK    2  A    between atoms: C_19  and  O_20 
REMARK    3  A    between atoms: C_19  and  C_22 
REMARK    4  A    between atoms: C_22  and  O_23 
ROOT
HETATM    1  O   UNK N   1      -0.277  -1.783   0.846  0.00  0.00    -0.293 OA
HETATM    2  C   UNK N   1      -0.023  -0.835   0.121  0.00  0.00     0.157 C 
HETATM    3  C   UNK N   1       1.389  -0.395  -0.113  0.00  0.00     0.006 C 
HETATM    4  C   UNK N   1       1.649   0.372  -1.213  0.00  0.00    -0.001 C 
HETATM    5  C   UNK N   1       3.036   0.738  -1.540  0.00  0.00     0.156 C 
HETATM    6  O   UNK N   1       3.276   1.623  -2.347  0.00  0.00    -0.293 OA
HETATM    7  C   UNK N   1       4.154  -0.022  -0.903  0.00  0.00     0.090 C 
HETATM    8  C   UNK N   1       3.901  -0.069   0.615  0.00  0.00     0.013 C 
HETATM    9  C   UNK N   1       2.523  -0.823   0.871  0.00  0.00    -0.008 C 
HETATM   10  C   UNK N   1       2.693  -2.378   0.748  0.00  0.00     0.014 C 
HETATM   11  C   UNK N   1       4.125  -2.915   0.954  0.00  0.00     0.002 C 
HETATM   12  C   UNK N   1       4.873  -2.102   1.995  0.00  0.00     0.009 C 
HETATM   13  C   UNK N   1       5.129  -0.643   1.483  0.00  0.00    -0.043 C 
HETATM   14  C   UNK N   1       6.460  -0.635   0.675  0.00  0.00     0.015 C 
HETATM   15  C   UNK N   1       5.398   0.265   2.711  0.00  0.00     0.015 C 
HETATM   16  C   UNK N   1       2.047  -0.423   2.303  0.00  0.00     0.021 C 
HETATM   17  C   UNK N   1       0.547   0.866  -2.146  0.00  0.00     0.055 C 
HETATM   18  C   UNK N   1      -0.791   0.073  -2.072  0.00  0.00    -0.005 C 
HETATM   19  C   UNK N   1      -1.139  -0.124  -0.581  0.00  0.00     0.095 C 
HETATM   20  C   UNK N   1      -0.597  -1.304  -2.766  0.00  0.00     0.018 C 
ENDROOT
BRANCH  18  21
HETATM   21  C   UNK N   1      -1.900   0.898  -2.824  0.00  0.00     0.150 C 
BRANCH  21  22
HETATM   22  O   UNK N   1      -2.020   2.197  -2.286  0.00  0.00    -0.393 OA
HETATM   23  H   UNK N   1      -2.484   2.134  -1.412  0.00  0.00     0.210 HD
ENDBRANCH  21  22
BRANCH  21  24
HETATM   24  C   UNK N   1      -3.289   0.228  -2.890  0.00  0.00     0.196 C 
BRANCH  24  25
HETATM   25  O   UNK N   1      -4.173   1.055  -3.594  0.00  0.00    -0.398 OA
HETATM   26  H   UNK N   1      -5.047   0.584  -3.598  0.00  0.00     0.209 HD
ENDBRANCH  24  25
ENDBRANCH  21  24
ENDBRANCH  18  21
TORSDOF 4
