REMARK  11 active torsions:
REMARK  status: ('A' for Active; 'I' for Inactive)
REMARK    1  A    between atoms: C_2  and  O_3 
REMARK    2  A    between atoms: O_3  and  C_4 
REMARK    3  A    between atoms: C_5  and  O_6 
REMARK    4  A    between atoms: O_6  and  C_7 
REMARK    5  A    between atoms: C_7  and  C_8 
REMARK    6  A    between atoms: C_11  and  C_19 
REMARK    7  A    between atoms: C_19  and  O_20 
REMARK    8  A    between atoms: C_26  and  O_27 
REMARK    9  A    between atoms: O_27  and  C_28 
REMARK   10  A    between atoms: C_31  and  O_32 
REMARK   11  A    between atoms: O_32  and  C_33 
ROOT
HETATM    1  C   UNK N   1      -2.606   0.614  -4.710  0.00  0.00     0.219 C 
HETATM    2  C   UNK N   1      -1.323   1.472  -4.555  0.00  0.00     0.292 C 
HETATM    3  O   UNK N   1      -1.076   2.262  -5.712  0.00  0.00    -0.356 OA
HETATM    4  C   UNK N   1      -2.146   3.155  -5.968  0.00  0.00     0.206 C 
HETATM    5  C   UNK N   1      -3.430   2.388  -6.313  0.00  0.00     0.188 C 
HETATM    6  C   UNK N   1      -3.804   1.489  -5.123  0.00  0.00     0.198 C 
ENDROOT
BRANCH   2   7
HETATM    7  O   UNK N   1      -1.403   2.268  -3.374  0.00  0.00    -0.348 OA
BRANCH   7   8
HETATM    8  C   UNK N   1      -0.161   2.558  -2.715  0.00  0.00     0.061 C 
HETATM    9  C   UNK N   1       0.772   3.364  -3.653  0.00  0.00     0.046 C 
HETATM   10  C   UNK N   1      -0.540   3.503  -1.551  0.00  0.00     0.046 C 
BRANCH   8  11
HETATM   11  C   UNK N   1       0.552   1.246  -2.163  0.00  0.00     0.024 C 
HETATM   12  C   UNK N   1       1.890   1.487  -1.418  0.00  0.00     0.043 C 
HETATM   13  C   UNK N   1       2.502   0.146  -1.001  0.00  0.00    -0.067 C 
HETATM   14  C   UNK N   1       3.759  -0.249  -1.402  0.00  0.00    -0.053 C 
HETATM   15  C   UNK N   1       1.604  -0.764  -0.143  0.00  0.00    -0.020 C 
HETATM   16  C   UNK N   1       4.368  -1.558  -0.930  0.00  0.00     0.036 C 
HETATM   17  C   UNK N   1       3.669  -2.156   0.291  0.00  0.00     0.005 C 
HETATM   18  C   UNK N   1       2.183  -2.201   0.014  0.00  0.00     0.014 C 
HETATM   19  C   UNK N   1       0.239  -0.924  -0.872  0.00  0.00     0.014 C 
HETATM   20  C   UNK N   1       1.410  -0.119   1.253  0.00  0.00     0.020 C 
HETATM   21  C   UNK N   1      -0.403   0.412  -1.268  0.00  0.00     0.009 C 
BRANCH  14  22
HETATM   22  C   UNK N   1       4.611   0.577  -2.345  0.00  0.00     0.198 C 
BRANCH  22  23
HETATM   23  O   UNK N   1       5.028   1.754  -1.710  0.00  0.00    -0.397 OA
HETATM   24  H   UNK N   1       5.851   2.050  -2.180  0.00  0.00     0.209 HD
ENDBRANCH  22  23
ENDBRANCH  14  22
ENDBRANCH   8  11
ENDBRANCH   7   8
ENDBRANCH   2   7
BRANCH   1  25
HETATM   25  O   UNK N   1      -2.401  -0.390  -5.645  0.00  0.00    -0.309 OA
BRANCH  25  26
HETATM   26  C   UNK N   1      -1.770  -1.561  -5.334  0.00  0.00     0.255 C 
HETATM   27  O   UNK N   1      -1.393  -1.789  -4.195  0.00  0.00    -0.266 OA
HETATM   28  C   UNK N   1      -1.556  -2.588  -6.396  0.00  0.00     0.126 C 
ENDBRANCH  25  26
ENDBRANCH   1  25
BRANCH   6  29
HETATM   29  O   UNK N   1      -4.172   2.286  -4.047  0.00  0.00    -0.311 OA
BRANCH  29  30
HETATM   30  C   UNK N   1      -5.162   1.962  -3.169  0.00  0.00     0.255 C 
HETATM   31  O   UNK N   1      -5.749   0.896  -3.247  0.00  0.00    -0.266 OA
HETATM   32  C   UNK N   1      -5.514   2.923  -2.080  0.00  0.00     0.126 C 
ENDBRANCH  29  30
ENDBRANCH   6  29
BRANCH   5  33
HETATM   33  O   UNK N   1      -3.211   1.624  -7.451  0.00  0.00    -0.311 OA
BRANCH  33  34
HETATM   34  C   UNK N   1      -3.543   2.027  -8.711  0.00  0.00     0.255 C 
HETATM   35  O   UNK N   1      -4.025   3.129  -8.912  0.00  0.00    -0.266 OA
HETATM   36  C   UNK N   1      -3.287   1.109  -9.865  0.00  0.00     0.126 C 
ENDBRANCH  33  34
ENDBRANCH   5  33
TORSDOF 11
