REMARK  8 active torsions:
REMARK  status: ('A' for Active; 'I' for Inactive)
REMARK    1  A    between atoms: C_2  and  O_3 
REMARK    2  A    between atoms: C_2  and  C_5 
REMARK    3  A    between atoms: C_6  and  C_7 
REMARK    4  A    between atoms: C_6  and  C_23 
REMARK    5  A    between atoms: C_8  and  C_9 
REMARK    6  A    between atoms: C_9  and  O_10 
REMARK    7  A    between atoms: C_17  and  O_18 
REMARK    8  A    between atoms: C_23  and  O_24 
ROOT
HETATM    1  C   UNK N   1       0.336   0.951   0.752  0.00  0.00     0.116 C 
HETATM    2  C   UNK N   1       1.606   0.574   1.581  0.00  0.00     0.095 C 
HETATM    3  O   UNK N   1       1.866   1.703   2.411  0.00  0.00    -0.376 OA
HETATM    4  C   UNK N   1       1.249   2.826   1.781  0.00  0.00     0.181 C 
HETATM    5  C   UNK N   1       0.789   2.371   0.380  0.00  0.00     0.017 C 
HETATM    6  C   UNK N   1       1.994   2.325  -0.631  0.00  0.00     0.046 C 
HETATM    7  C   UNK N   1       3.240   1.652  -0.028  0.00  0.00     0.122 C 
HETATM    8  C   UNK N   1       2.859   0.349   0.677  0.00  0.00     0.073 C 
HETATM    9  C   UNK N   1      -0.306   3.281  -0.205  0.00  0.00     0.021 C 
HETATM   10  C   UNK N   1       1.378  -0.681   2.440  0.00  0.00     0.050 C 
ENDROOT
BRANCH   1  11
HETATM   11  C   UNK N   1      -0.008   0.059  -0.449  0.00  0.00     0.015 C 
HETATM   12  C   UNK N   1      -1.173   0.200  -1.116  0.00  0.00     0.008 C 
BRANCH  12  13
HETATM   13  C   UNK N   1      -1.535  -0.619  -2.325  0.00  0.00    -0.029 C 
HETATM   14  C   UNK N   1      -2.780  -0.585  -2.891  0.00  0.00     0.090 C 
BRANCH  14  15
HETATM   15  C   UNK N   1      -3.987   0.147  -2.398  0.00  0.00     0.165 C 
HETATM   16  O   UNK N   1      -4.021   0.666  -1.299  0.00  0.00    -0.647 OA
BRANCH  15  17
HETATM   17  O   UNK N   1      -5.095   0.194  -3.172  0.00  0.00    -0.773 OA
HETATM   18  H   UNK N   1      -5.111  -0.192  -4.058  0.00  0.00     0.167 HD
ENDBRANCH  15  17
ENDBRANCH  14  15
BRANCH  13  19
HETATM   19  C   UNK N   1      -0.442  -1.475  -2.966  0.00  0.00     0.203 C 
BRANCH  19  20
HETATM   20  O   UNK N   1      -0.853  -2.140  -4.133  0.00  0.00    -0.396 OA
HETATM   21  H   UNK N   1      -1.324  -2.964  -3.841  0.00  0.00     0.209 HD
ENDBRANCH  19  20
ENDBRANCH  13  19
ENDBRANCH  12  13
ENDBRANCH   1  11
BRANCH   1  22
HETATM   22  O   UNK N   1      -0.788   1.027   1.612  0.00  0.00    -0.382 OA
HETATM   23  H   UNK N   1      -1.136   0.109   1.761  0.00  0.00     0.211 HD
ENDBRANCH   1  22
BRANCH   7  24
HETATM   24  O   UNK N   1       4.220   1.409  -1.002  0.00  0.00    -0.395 OA
HETATM   25  H   UNK N   1       4.538   2.294  -1.318  0.00  0.00     0.210 HD
ENDBRANCH   7  24
TORSDOF 8
