REMARK  4 active torsions:
REMARK  status: ('A' for Active; 'I' for Inactive)
REMARK    1  A    between atoms: C_17  and  C_18 
REMARK    2  A    between atoms: C_18  and  O_19 
REMARK    3  A    between atoms: C_18  and  C_21 
REMARK    4  A    between atoms: C_21  and  O_22 
ROOT
HETATM    1  O   UNK N   1       3.285   1.639  -2.364  0.00  0.00    -0.293 OA
HETATM    2  C   UNK N   1       3.039   0.789  -1.521  0.00  0.00     0.156 C 
HETATM    3  C   UNK N   1       1.646   0.474  -1.166  0.00  0.00    -0.008 C 
HETATM    4  C   UNK N   1       1.378  -0.277  -0.055  0.00  0.00    -0.061 C 
HETATM    5  C   UNK N   1       2.510  -0.733   0.931  0.00  0.00    -0.015 C 
HETATM    6  C   UNK N   1       3.916  -0.008   0.662  0.00  0.00     0.013 C 
HETATM    7  C   UNK N   1       5.176  -0.660   1.413  0.00  0.00    -0.043 C 
HETATM    8  C   UNK N   1       5.187  -2.193   1.174  0.00  0.00     0.009 C 
HETATM    9  C   UNK N   1       3.855  -2.857   1.560  0.00  0.00     0.002 C 
HETATM   10  C   UNK N   1       2.690  -2.272   0.748  0.00  0.00     0.014 C 
HETATM   11  C   UNK N   1       5.221  -0.357   2.939  0.00  0.00     0.015 C 
HETATM   12  C   UNK N   1       6.517  -0.077   0.881  0.00  0.00     0.015 C 
HETATM   13  C   UNK N   1       4.151   0.051  -0.866  0.00  0.00     0.090 C 
HETATM   14  C   UNK N   1       1.987  -0.412   2.359  0.00  0.00     0.020 C 
HETATM   15  C   UNK N   1      -0.065  -0.696   0.246  0.00  0.00     0.036 C 
HETATM   16  C   UNK N   1      -1.032  -0.526  -0.925  0.00  0.00     0.016 C 
HETATM   17  C   UNK N   1      -0.898   0.857  -1.585  0.00  0.00    -0.012 C 
HETATM   18  C   UNK N   1       0.558   0.976  -2.111  0.00  0.00     0.054 C 
HETATM   19  C   UNK N   1      -1.153   1.999  -0.561  0.00  0.00     0.018 C 
ENDROOT
BRANCH  17  20
HETATM   20  C   UNK N   1      -1.884   0.990  -2.802  0.00  0.00     0.150 C 
BRANCH  20  21
HETATM   21  O   UNK N   1      -1.620  -0.040  -3.727  0.00  0.00    -0.393 OA
HETATM   22  H   UNK N   1      -1.870   0.293  -4.628  0.00  0.00     0.210 HD
ENDBRANCH  20  21
BRANCH  20  23
HETATM   23  C   UNK N   1      -3.384   0.946  -2.434  0.00  0.00     0.196 C 
BRANCH  23  24
HETATM   24  O   UNK N   1      -4.173   1.139  -3.578  0.00  0.00    -0.398 OA
HETATM   25  H   UNK N   1      -4.243   0.259  -4.034  0.00  0.00     0.209 HD
ENDBRANCH  23  24
ENDBRANCH  20  23
ENDBRANCH  17  20
TORSDOF 4
