REMARK  3 active torsions:
REMARK  status: ('A' for Active; 'I' for Inactive)
REMARK    1  A    between atoms: C_4  and  C_5 
REMARK    2  A    between atoms: C_5  and  O_6 
REMARK    3  A    between atoms: C_15  and  O_16 
ROOT
HETATM    1  C   UNK N   1       4.361   1.349  -0.218  0.00  0.00     0.093 C 
HETATM    2  C   UNK N   1       2.836   1.642  -0.161  0.00  0.00     0.032 C 
HETATM    3  C   UNK N   1       2.089   0.261  -0.368  0.00  0.00    -0.030 C 
HETATM    4  C   UNK N   1       1.128   0.241  -1.664  0.00  0.00    -0.032 C 
HETATM    5  C   UNK N   1       0.213   1.559  -1.767  0.00  0.00     0.003 C 
HETATM    6  C   UNK N   1      -1.357   1.365  -1.659  0.00  0.00    -0.035 C 
HETATM    7  C   UNK N   1      -1.864   0.136  -2.561  0.00  0.00     0.004 C 
HETATM    8  C   UNK N   1      -2.639   0.532  -3.874  0.00  0.00    -0.017 C 
HETATM    9  C   UNK N   1      -3.838   1.487  -3.494  0.00  0.00     0.126 C 
HETATM   10  C   UNK N   1      -3.532   2.547  -2.400  0.00  0.00     0.033 C 
HETATM   11  C   UNK N   1      -2.052   2.714  -2.089  0.00  0.00     0.012 C 
HETATM   12  C   UNK N   1      -1.713   1.192  -4.946  0.00  0.00     0.018 C 
HETATM   13  C   UNK N   1      -3.219  -0.733  -4.571  0.00  0.00     0.018 C 
HETATM   14  C   UNK N   1      -0.808  -0.987  -2.804  0.00  0.00     0.007 C 
HETATM   15  C   UNK N   1       0.250  -1.059  -1.710  0.00  0.00     0.011 C 
HETATM   16  C   UNK N   1      -1.798   1.098  -0.182  0.00  0.00     0.016 C 
HETATM   17  C   UNK N   1       0.765   2.780  -0.963  0.00  0.00     0.007 C 
HETATM   18  C   UNK N   1       2.287   2.831  -0.986  0.00  0.00     0.009 C 
HETATM   19  C   UNK N   1       2.011   0.207  -2.978  0.00  0.00     0.016 C 
HETATM   20  C   UNK N   1       3.254  -0.775  -0.418  0.00  0.00     0.013 C 
HETATM   21  C   UNK N   1       4.392  -0.100   0.334  0.00  0.00     0.042 C 
HETATM   22  C   UNK N   1       1.299  -0.027   0.954  0.00  0.00     0.016 C 
ENDROOT
BRANCH   1  23
HETATM   23  C   UNK N   1       5.306   2.333   0.586  0.00  0.00     0.099 C 
HETATM   24  O   UNK N   1       6.622   1.950   0.427  0.00  0.00    -0.307 OA
HETATM   25  C   UNK N   1       7.435   3.006   0.262  0.00  0.00     0.259 C 
HETATM   26  O   UNK N   1       8.649   2.903   0.282  0.00  0.00    -0.265 OA
HETATM   27  C   UNK N   1       6.720   4.302   0.285  0.00  0.00     0.114 C 
HETATM   28  C   UNK N   1       5.307   3.781   0.021  0.00  0.00     0.051 C 
HETATM   29  C   UNK N   1       5.013   2.383   2.110  0.00  0.00     0.050 C 
ENDBRANCH   1  23
BRANCH   1  30
HETATM   30  O   UNK N   1       4.749   1.335  -1.577  0.00  0.00    -0.386 OA
HETATM   31  H   UNK N   1       5.659   0.945  -1.642  0.00  0.00     0.210 HD
ENDBRANCH   1  30
BRANCH   9  32
HETATM   32  O   UNK N   1      -4.939   0.734  -3.042  0.00  0.00    -0.395 OA
HETATM   33  H   UNK N   1      -5.735   1.327  -3.074  0.00  0.00     0.210 HD
ENDBRANCH   9  32
TORSDOF 3
