REMARK  8 active torsions:
REMARK  status: ('A' for Active; 'I' for Inactive)
REMARK    1  A    between atoms: C_2  and  O_3 
REMARK    2  A    between atoms: C_2  and  C_5 
REMARK    3  A    between atoms: C_5  and  C_6 
REMARK    4  A    between atoms: C_6  and  C_7 
REMARK    5  A    between atoms: C_7  and  C_8 
REMARK    6  A    between atoms: C_8  and  C_9 
REMARK    7  A    between atoms: C_12  and  C_16 
REMARK    8  A    between atoms: C_16  and  O_17 
ROOT
HETATM    1  C   UNK N   1      -1.203  -0.813  -0.744  0.00  0.00    -0.036 C 
HETATM    2  C   UNK N   1       0.159  -0.446   0.003  0.00  0.00     0.007 C 
HETATM    3  C   UNK N   1       0.865   0.925  -0.397  0.00  0.00    -0.014 C 
HETATM    4  C   UNK N   1       2.259   0.984   0.273  0.00  0.00    -0.052 C 
HETATM    5  C   UNK N   1       2.511   0.322   1.428  0.00  0.00    -0.021 C 
HETATM    6  C   UNK N   1       1.514  -0.566   2.127  0.00  0.00     0.028 C 
HETATM    7  C   UNK N   1       0.098  -0.535   1.542  0.00  0.00     0.010 C 
HETATM    8  C   UNK N   1       0.976   0.969  -1.946  0.00  0.00     0.014 C 
HETATM    9  C   UNK N   1      -0.380   0.736  -2.642  0.00  0.00     0.006 C 
HETATM   10  C   UNK N   1      -0.965  -0.656  -2.304  0.00  0.00    -0.010 C 
HETATM   11  C   UNK N   1      -0.083  -1.761  -2.943  0.00  0.00     0.011 C 
HETATM   12  C   UNK N   1       0.170   2.239   0.079  0.00  0.00     0.020 C 
HETATM   13  C   UNK N   1      -1.555  -2.300  -0.425  0.00  0.00     0.016 C 
ENDROOT
BRANCH   1  14
HETATM   14  C   UNK N   1      -2.424   0.056  -0.248  0.00  0.00     0.010 C 
BRANCH  14  15
HETATM   15  C   UNK N   1      -3.815  -0.316  -0.823  0.00  0.00     0.005 C 
BRANCH  15  16
HETATM   16  C   UNK N   1      -4.966   0.609  -0.340  0.00  0.00    -0.009 C 
HETATM   17  C   UNK N   1      -5.168   0.531   1.183  0.00  0.00     0.010 C 
BRANCH  16  18
HETATM   18  C   UNK N   1      -6.294   0.227  -1.038  0.00  0.00     0.114 C 
BRANCH  18  19
HETATM   19  C   UNK N   1      -6.227   0.389  -2.537  0.00  0.00     0.139 C 
HETATM   20  O   UNK N   1      -6.005   1.488  -3.019  0.00  0.00    -0.650 OA
BRANCH  19  21
HETATM   21  O   UNK N   1      -6.408  -0.671  -3.354  0.00  0.00    -0.776 OA
HETATM   22  H   UNK N   1      -6.576  -1.557  -3.004  0.00  0.00     0.167 HD
ENDBRANCH  19  21
ENDBRANCH  18  19
ENDBRANCH  16  18
ENDBRANCH  15  16
ENDBRANCH  14  15
ENDBRANCH   1  14
BRANCH   4  23
HETATM   23  C   UNK N   1       3.389   1.807  -0.330  0.00  0.00     0.199 C 
BRANCH  23  24
HETATM   24  O   UNK N   1       3.876   1.197  -1.494  0.00  0.00    -0.397 OA
HETATM   25  H   UNK N   1       4.424   0.423  -1.195  0.00  0.00     0.209 HD
ENDBRANCH  23  24
ENDBRANCH   4  23
TORSDOF 8
