REMARK  3 active torsions:
REMARK  status: ('A' for Active; 'I' for Inactive)
REMARK    1  A    between atoms: C_7  and  O_8 
REMARK    2  A    between atoms: C_11  and  O_12 
REMARK    3  A    between atoms: O_12  and  C_13 
ROOT
HETATM    1  O   UNK N   1      -4.507   0.659  -2.770  0.00  0.00    -0.265 OA
HETATM    2  C   UNK N   1      -3.330   0.493  -2.502  0.00  0.00     0.263 C 
HETATM    3  O   UNK N   1      -2.735   1.092  -1.449  0.00  0.00    -0.311 OA
HETATM    4  C   UNK N   1      -1.557   0.447  -1.162  0.00  0.00     0.167 C 
HETATM    5  C   UNK N   1      -0.353   1.187  -0.604  0.00  0.00    -0.035 C 
HETATM    6  C   UNK N   1      -0.289   2.544  -0.421  0.00  0.00    -0.050 C 
HETATM    7  C   UNK N   1       1.036   3.250  -0.107  0.00  0.00     0.149 C 
HETATM    8  C   UNK N   1       2.291   2.349  -0.007  0.00  0.00     0.070 C 
HETATM    9  C   UNK N   1       2.139   1.081  -0.871  0.00  0.00     0.147 C 
HETATM   10  C   UNK N   1       0.884   0.301  -0.392  0.00  0.00     0.009 C 
HETATM   11  C   UNK N   1       0.730  -1.073  -1.159  0.00  0.00     0.017 C 
HETATM   12  C   UNK N   1       0.128  -0.955  -2.572  0.00  0.00     0.009 C 
HETATM   13  C   UNK N   1      -1.128  -0.051  -2.552  0.00  0.00     0.033 C 
HETATM   14  C   UNK N   1      -2.452  -0.533  -3.157  0.00  0.00     0.088 C 
HETATM   15  C   UNK N   1      -2.461  -0.508  -4.684  0.00  0.00     0.021 C 
HETATM   16  C   UNK N   1       0.964  -0.073   1.116  0.00  0.00     0.023 C 
HETATM   17  C   UNK N   1      -1.488   3.432  -0.661  0.00  0.00     0.046 C 
ENDROOT
BRANCH   9  18
HETATM   18  O   UNK N   1       3.239   0.250  -0.753  0.00  0.00    -0.315 OA
BRANCH  18  19
HETATM   19  C   UNK N   1       4.396   0.389  -1.443  0.00  0.00     0.255 C 
HETATM   20  O   UNK N   1       4.633   1.406  -2.079  0.00  0.00    -0.266 OA
HETATM   21  C   UNK N   1       5.355  -0.757  -1.469  0.00  0.00     0.126 C 
ENDBRANCH  18  19
ENDBRANCH   9  18
BRANCH   7  22
HETATM   22  O   UNK N   1       0.907   4.036   1.050  0.00  0.00    -0.391 OA
HETATM   23  H   UNK N   1       1.667   4.674   1.054  0.00  0.00     0.210 HD
ENDBRANCH   7  22
TORSDOF 3
