REMARK  7 active torsions:
REMARK  status: ('A' for Active; 'I' for Inactive)
REMARK    1  A    between atoms: C_2  and  C_3 
REMARK    2  A    between atoms: C_5  and  O_6 
REMARK    3  A    between atoms: C_8  and  O_9 
REMARK    4  A    between atoms: C_14  and  O_15 
REMARK    5  A    between atoms: C_17  and  C_20 
REMARK    6  A    between atoms: C_22  and  O_23 
REMARK    7  A    between atoms: C_25  and  O_26 
ROOT
HETATM    1  O   UNK N   1      -2.388  -0.915   0.653  0.00  0.00    -0.378 OA
HETATM    2  C   UNK N   1      -2.614   0.185  -0.219  0.00  0.00     0.163 C 
HETATM    3  C   UNK N   1      -1.469   0.179  -1.260  0.00  0.00     0.082 C 
HETATM    4  C   UNK N   1      -0.378  -0.474  -0.523  0.00  0.00     0.117 C 
HETATM    5  C   UNK N   1       0.212   0.704   0.280  0.00  0.00     0.191 C 
HETATM    6  O   UNK N   1       0.021   1.879  -0.494  0.00  0.00    -0.377 OA
HETATM    7  C   UNK N   1      -0.866   1.552  -1.551  0.00  0.00     0.179 C 
HETATM    8  C   UNK N   1      -1.154  -1.499   0.284  0.00  0.00     0.210 C 
ENDROOT
BRANCH   2   9
HETATM    9  C   UNK N   1      -3.996   0.096  -0.867  0.00  0.00    -0.026 A 
HETATM   10  C   UNK N   1      -4.237   0.638  -2.147  0.00  0.00     0.049 A 
HETATM   11  C   UNK N   1      -5.499   0.519  -2.762  0.00  0.00     0.101 A 
HETATM   12  C   UNK N   1      -6.537  -0.139  -2.078  0.00  0.00     0.099 A 
HETATM   13  C   UNK N   1      -6.308  -0.664  -0.801  0.00  0.00     0.040 A 
HETATM   14  C   UNK N   1      -5.052  -0.550  -0.200  0.00  0.00     0.012 A 
BRANCH  11  15
HETATM   15  O   UNK N   1      -5.736   1.018  -4.007  0.00  0.00    -0.353 OA
HETATM   16  C   UNK N   1      -4.801   1.662  -4.794  0.00  0.00     0.210 C 
ENDBRANCH  11  15
BRANCH  12  17
HETATM   17  O   UNK N   1      -7.760  -0.278  -2.634  0.00  0.00    -0.358 OA
HETATM   18  H   UNK N   1      -7.970   0.061  -3.516  0.00  0.00     0.218 HD
ENDBRANCH  12  17
ENDBRANCH   2   9
BRANCH   4  19
HETATM   19  O   UNK N   1       0.572  -1.091  -1.369  0.00  0.00    -0.384 OA
HETATM   20  H   UNK N   1       0.871  -0.440  -2.054  0.00  0.00     0.210 HD
ENDBRANCH   4  19
BRANCH   5  21
HETATM   21  C   UNK N   1       1.675   0.487   0.618  0.00  0.00    -0.024 A 
HETATM   22  C   UNK N   1       2.679   0.930  -0.262  0.00  0.00     0.049 A 
HETATM   23  C   UNK N   1       4.042   0.727   0.036  0.00  0.00     0.101 A 
HETATM   24  C   UNK N   1       4.394   0.070   1.231  0.00  0.00     0.099 A 
HETATM   25  C   UNK N   1       3.393  -0.378   2.102  0.00  0.00     0.040 A 
HETATM   26  C   UNK N   1       2.043  -0.175   1.798  0.00  0.00     0.013 A 
BRANCH  23  27
HETATM   27  O   UNK N   1       5.027   1.150  -0.804  0.00  0.00    -0.353 OA
HETATM   28  C   UNK N   1       4.820   1.793  -2.008  0.00  0.00     0.210 C 
ENDBRANCH  23  27
BRANCH  24  29
HETATM   29  O   UNK N   1       5.688  -0.139   1.556  0.00  0.00    -0.358 OA
HETATM   30  H   UNK N   1       6.418   0.155   0.994  0.00  0.00     0.218 HD
ENDBRANCH  24  29
ENDBRANCH   5  21
TORSDOF 7
