REMARK  1 active torsions:
REMARK  status: ('A' for Active; 'I' for Inactive)
REMARK    1  A    between atoms: C_7  and  O_8 
ROOT
HETATM    1  O   UNK N   1      -4.117   0.952  -3.362  0.00  0.00    -0.265 OA
HETATM    2  C   UNK N   1      -3.203   1.212  -2.597  0.00  0.00     0.263 C 
HETATM    3  O   UNK N   1      -2.205   2.048  -2.938  0.00  0.00    -0.311 OA
HETATM    4  C   UNK N   1      -1.225   2.120  -1.975  0.00  0.00     0.160 C 
HETATM    5  C   UNK N   1       0.029   1.407  -2.446  0.00  0.00     0.011 C 
HETATM    6  C   UNK N   1       1.302   1.890  -2.379  0.00  0.00    -0.057 C 
HETATM    7  C   UNK N   1       2.463   0.936  -2.681  0.00  0.00     0.149 C 
HETATM    8  C   UNK N   1       2.421  -0.364  -1.815  0.00  0.00     0.071 C 
HETATM    9  C   UNK N   1       2.575  -0.218  -0.271  0.00  0.00     0.159 A 
HETATM   10  O   UNK N   1       1.957   0.976   0.171  0.00  0.00    -0.370 OA
HETATM   11  C   UNK N   1       1.371  -0.190   0.664  0.00  0.00     0.084 A 
HETATM   12  C   UNK N   1      -0.091  -0.291   0.171  0.00  0.00     0.041 C 
HETATM   13  C   UNK N   1      -0.948   0.979   0.438  0.00  0.00     0.011 C 
HETATM   14  C   UNK N   1      -1.882   1.437  -0.728  0.00  0.00     0.032 C 
HETATM   15  C   UNK N   1      -3.019   0.543  -1.275  0.00  0.00     0.088 C 
HETATM   16  C   UNK N   1      -2.721  -0.943  -1.491  0.00  0.00     0.021 C 
HETATM   17  C   UNK N   1       1.631  -0.355   2.159  0.00  0.00     0.049 C 
HETATM   18  C   UNK N   1       1.645   3.316  -1.972  0.00  0.00     0.046 C 
ENDROOT
BRANCH   7  19
HETATM   19  O   UNK N   1       3.694   1.587  -2.489  0.00  0.00    -0.391 OA
HETATM   20  H   UNK N   1       4.398   1.005  -2.877  0.00  0.00     0.210 HD
ENDBRANCH   7  19
TORSDOF 1
