REMARK  2 active torsions:
REMARK  status: ('A' for Active; 'I' for Inactive)
REMARK    1  A    between atoms: C_11  and  O_12 
REMARK    2  A    between atoms: O_12  and  C_13 
ROOT
HETATM    1  O   UNK N   1      -4.605   0.826  -3.342  0.00  0.00    -0.260 OA
HETATM    2  C   UNK N   1      -3.613   0.497  -2.715  0.00  0.00     0.289 A 
HETATM    3  O   UNK N   1      -2.603  -0.222  -3.237  0.00  0.00    -0.308 OA
HETATM    4  C   UNK N   1      -1.623  -0.444  -2.275  0.00  0.00     0.163 A 
HETATM    5  C   UNK N   1      -2.131   0.338  -1.090  0.00  0.00    -0.038 A 
HETATM    6  C   UNK N   1      -3.314   0.872  -1.359  0.00  0.00     0.018 A 
HETATM    7  C   UNK N   1      -4.152   1.752  -0.476  0.00  0.00     0.055 C 
HETATM    8  C   UNK N   1      -1.281   0.572   0.122  0.00  0.00     0.047 C 
HETATM    9  C   UNK N   1       0.068  -0.197  -0.014  0.00  0.00     0.028 C 
HETATM   10  C   UNK N   1       0.776  -0.131  -1.452  0.00  0.00    -0.007 C 
HETATM   11  C   UNK N   1       1.930   0.952  -1.517  0.00  0.00     0.141 C 
HETATM   12  C   UNK N   1       1.575   2.147  -0.607  0.00  0.00     0.037 C 
HETATM   13  C   UNK N   1       1.635   1.685   0.872  0.00  0.00     0.036 C 
HETATM   14  C   UNK N   1       1.000   0.316   1.060  0.00  0.00    -0.084 C 
HETATM   15  C   UNK N   1       1.305  -0.429   2.131  0.00  0.00     0.015 C 
HETATM   16  C   UNK N   1      -0.265   0.178  -2.598  0.00  0.00     0.049 C 
HETATM   17  C   UNK N   1       1.380  -1.533  -1.745  0.00  0.00     0.018 C 
ENDROOT
BRANCH  11  18
HETATM   18  O   UNK N   1       3.144   0.426  -1.082  0.00  0.00    -0.316 OA
BRANCH  18  19
HETATM   19  C   UNK N   1       4.358   0.755  -1.600  0.00  0.00     0.255 C 
HETATM   20  O   UNK N   1       4.459   1.608  -2.470  0.00  0.00    -0.266 OA
HETATM   21  C   UNK N   1       5.586   0.076  -1.082  0.00  0.00     0.126 C 
ENDBRANCH  18  19
ENDBRANCH  11  18
TORSDOF 2
