REMARK  4 active torsions:
REMARK  status: ('A' for Active; 'I' for Inactive)
REMARK    1  A    between atoms: C_2  and  O_3 
REMARK    2  A    between atoms: C_2  and  C_5 
REMARK    3  A    between atoms: C_5  and  C_7 
REMARK    4  A    between atoms: C_11  and  O_12 
ROOT
HETATM    1  C   UNK N   1      -1.033   1.204  -1.431  0.00  0.00     0.025 C 
HETATM    2  C   UNK N   1      -0.223   0.332  -0.425  0.00  0.00     0.019 C 
HETATM    3  C   UNK N   1       1.216   0.878  -0.238  0.00  0.00     0.025 C 
HETATM    4  C   UNK N   1       1.983   0.915  -1.602  0.00  0.00    -0.010 C 
HETATM    5  C   UNK N   1       3.362   1.567  -1.312  0.00  0.00     0.130 C 
HETATM    6  C   UNK N   1       4.191   0.709  -0.335  0.00  0.00     0.060 C 
HETATM    7  C   UNK N   1       3.380   0.123   0.800  0.00  0.00    -0.021 C 
HETATM    8  C   UNK N   1       2.026   0.178   0.859  0.00  0.00    -0.082 C 
HETATM    9  C   UNK N   1       1.323  -0.431   2.049  0.00  0.00     0.043 C 
HETATM   10  C   UNK N   1       1.164   1.803  -2.581  0.00  0.00     0.013 C 
HETATM   11  C   UNK N   1      -0.274   1.287  -2.779  0.00  0.00     0.010 C 
HETATM   12  C   UNK N   1       2.188  -0.502  -2.225  0.00  0.00     0.018 C 
ENDROOT
BRANCH   1  13
HETATM   13  C   UNK N   1      -2.484   0.736  -1.670  0.00  0.00     0.010 C 
HETATM   14  C   UNK N   1      -2.934  -0.449  -1.192  0.00  0.00     0.026 C 
BRANCH  13  15
HETATM   15  C   UNK N   1      -3.442   1.600  -2.447  0.00  0.00     0.171 C 
HETATM   16  O   UNK N   1      -4.559   1.181  -2.711  0.00  0.00    -0.646 OA
BRANCH  15  17
HETATM   17  O   UNK N   1      -3.118   2.853  -2.843  0.00  0.00    -0.773 OA
HETATM   18  H   UNK N   1      -2.289   3.287  -2.613  0.00  0.00     0.167 HD
ENDBRANCH  15  17
ENDBRANCH  13  15
ENDBRANCH   1  13
BRANCH   5  19
HETATM   19  O   UNK N   1       4.087   1.778  -2.497  0.00  0.00    -0.395 OA
HETATM   20  H   UNK N   1       4.834   2.392  -2.272  0.00  0.00     0.210 HD
ENDBRANCH   5  19
TORSDOF 4
