REMARK  3 active torsions:
REMARK  status: ('A' for Active; 'I' for Inactive)
REMARK    1  A    between atoms: C_4  and  O_5 
REMARK    2  A    between atoms: C_13  and  O_14 
REMARK    3  A    between atoms: O_14  and  C_15 
ROOT
HETATM    1  O   UNK N   1      -4.568   0.766  -3.207  0.00  0.00    -0.259 OA
HETATM    2  C   UNK N   1      -3.543   0.341  -2.705  0.00  0.00     0.292 A 
HETATM    3  O   UNK N   1      -2.490  -0.098  -3.416  0.00  0.00    -0.275 OA
HETATM    4  C   UNK N   1      -1.476  -0.526  -2.563  0.00  0.00     0.197 A 
HETATM    5  C   UNK N   1      -2.044  -0.249  -1.193  0.00  0.00    -0.006 A 
HETATM    6  C   UNK N   1      -3.267   0.264  -1.294  0.00  0.00     0.021 A 
HETATM    7  C   UNK N   1      -4.192   0.723  -0.202  0.00  0.00     0.055 C 
HETATM    8  C   UNK N   1      -1.202  -0.478   0.032  0.00  0.00     0.050 C 
HETATM    9  C   UNK N   1       0.079   0.383  -0.147  0.00  0.00     0.029 C 
HETATM   10  C   UNK N   1       0.828   0.096  -1.507  0.00  0.00    -0.004 C 
HETATM   11  C   UNK N   1       2.002   1.141  -1.642  0.00  0.00     0.141 C 
HETATM   12  C   UNK N   1       2.994   1.047  -0.441  0.00  0.00     0.037 C 
HETATM   13  C   UNK N   1       2.255   1.274   0.885  0.00  0.00     0.036 C 
HETATM   14  C   UNK N   1       1.085   0.329   0.995  0.00  0.00    -0.084 C 
HETATM   15  C   UNK N   1       0.975  -0.497   2.051  0.00  0.00     0.015 C 
HETATM   16  C   UNK N   1      -0.179   0.308  -2.699  0.00  0.00     0.086 C 
HETATM   17  C   UNK N   1       1.404  -1.354  -1.543  0.00  0.00     0.019 C 
ENDROOT
BRANCH  11  18
HETATM   18  O   UNK N   1       2.607   1.001  -2.886  0.00  0.00    -0.316 OA
BRANCH  18  19
HETATM   19  C   UNK N   1       3.595   1.791  -3.388  0.00  0.00     0.255 C 
HETATM   20  O   UNK N   1       4.447   2.280  -2.664  0.00  0.00    -0.266 OA
HETATM   21  C   UNK N   1       3.615   2.093  -4.851  0.00  0.00     0.126 C 
ENDBRANCH  18  19
ENDBRANCH  11  18
BRANCH   4  22
HETATM   22  O   UNK N   1      -1.262  -1.901  -2.734  0.00  0.00    -0.361 OA
HETATM   23  H   UNK N   1      -0.986  -2.034  -3.678  0.00  0.00     0.213 HD
ENDBRANCH   4  22
TORSDOF 3
