REMARK  4 active torsions:
REMARK  status: ('A' for Active; 'I' for Inactive)
REMARK    1  A    between atoms: C_2  and  O_3 
REMARK    2  A    between atoms: C_2  and  C_5 
REMARK    3  A    between atoms: C_5  and  C_7 
REMARK    4  A    between atoms: C_11  and  O_12 
ROOT
HETATM    1  C   UNK N   1      -0.676   1.093  -2.587  0.00  0.00     0.025 C 
HETATM    2  C   UNK N   1      -0.237   0.465  -1.252  0.00  0.00     0.019 C 
HETATM    3  C   UNK N   1       1.064   1.147  -0.759  0.00  0.00     0.025 C 
HETATM    4  C   UNK N   1       2.230   0.979  -1.790  0.00  0.00    -0.011 C 
HETATM    5  C   UNK N   1       3.476   1.782  -1.268  0.00  0.00     0.127 C 
HETATM    6  C   UNK N   1       3.909   1.339   0.153  0.00  0.00     0.037 C 
HETATM    7  C   UNK N   1       2.752   1.496   1.145  0.00  0.00     0.036 C 
HETATM    8  C   UNK N   1       1.550   0.744   0.627  0.00  0.00    -0.084 C 
HETATM    9  C   UNK N   1       0.975  -0.218   1.370  0.00  0.00     0.015 C 
HETATM   10  C   UNK N   1       1.759   1.586  -3.148  0.00  0.00     0.013 C 
HETATM   11  C   UNK N   1       0.439   0.968  -3.657  0.00  0.00     0.010 C 
HETATM   12  C   UNK N   1       2.617  -0.522  -1.977  0.00  0.00     0.018 C 
ENDROOT
BRANCH   1  13
HETATM   13  C   UNK N   1      -2.024   0.521  -3.023  0.00  0.00     0.010 C 
HETATM   14  C   UNK N   1      -2.110  -0.687  -3.617  0.00  0.00     0.026 C 
BRANCH  13  15
HETATM   15  C   UNK N   1      -3.273   1.289  -2.730  0.00  0.00     0.171 C 
HETATM   16  O   UNK N   1      -4.360   0.865  -3.089  0.00  0.00    -0.646 OA
BRANCH  15  17
HETATM   17  O   UNK N   1      -3.209   2.428  -2.005  0.00  0.00    -0.773 OA
HETATM   18  H   UNK N   1      -4.012   2.904  -1.748  0.00  0.00     0.167 HD
ENDBRANCH  15  17
ENDBRANCH  13  15
ENDBRANCH   1  13
BRANCH   5  19
HETATM   19  O   UNK N   1       4.555   1.643  -2.158  0.00  0.00    -0.395 OA
HETATM   20  H   UNK N   1       5.194   2.376  -1.955  0.00  0.00     0.210 HD
ENDBRANCH   5  19
TORSDOF 4
