REMARK  11 active torsions:
REMARK  status: ('A' for Active; 'I' for Inactive)
REMARK    1  A    between atoms: C_2  and  O_3 
REMARK    2  A    between atoms: C_2  and  C_31 
REMARK    3  A    between atoms: O_3  and  C_4 
REMARK    4  A    between atoms: C_6  and  O_7 
REMARK    5  A    between atoms: C_6  and  C_9 
REMARK    6  A    between atoms: C_13  and  O_14 
REMARK    7  A    between atoms: O_14  and  C_15 
REMARK    8  A    between atoms: C_19  and  O_20 
REMARK    9  A    between atoms: O_20  and  C_21 
REMARK   10  A    between atoms: C_25  and  O_26 
REMARK   11  A    between atoms: C_34  and  O_35 
ROOT
HETATM    1  C   UNK N   1       1.275  -0.112  -1.715  0.00  0.00     0.143 C 
HETATM    2  C   UNK N   1       1.057  -1.012  -0.463  0.00  0.00     0.067 C 
HETATM    3  C   UNK N   1       0.560  -2.468  -0.814  0.00  0.00     0.070 C 
HETATM    4  C   UNK N   1       0.928  -3.301   0.451  0.00  0.00     0.072 C 
HETATM    5  C   UNK N   1       1.475  -2.307   1.457  0.00  0.00     0.149 C 
HETATM    6  C   UNK N   1       2.183  -1.217   0.595  0.00  0.00     0.041 C 
HETATM    7  C   UNK N   1       3.525  -1.639   0.003  0.00  0.00     0.067 C 
HETATM    8  C   UNK N   1       4.198  -0.905  -0.933  0.00  0.00     0.044 C 
HETATM    9  C   UNK N   1       3.809   0.381  -1.690  0.00  0.00     0.077 C 
HETATM   10  C   UNK N   1       2.356   0.946  -1.526  0.00  0.00     0.074 C 
HETATM   11  C   UNK N   1       4.049   0.084  -3.201  0.00  0.00     0.050 C 
HETATM   12  C   UNK N   1       2.480  -0.025   1.546  0.00  0.00     0.026 C 
ENDROOT
BRANCH   1  13
HETATM   13  O   UNK N   1       0.072   0.500  -2.036  0.00  0.00    -0.311 OA
BRANCH  13  14
HETATM   14  C   UNK N   1      -0.456   0.502  -3.291  0.00  0.00     0.293 C 
HETATM   15  O   UNK N   1       0.258   0.283  -4.259  0.00  0.00    -0.259 OA
BRANCH  14  16
HETATM   16  C   UNK N   1      -1.912   0.689  -3.478  0.00  0.00     0.039 A 
HETATM   17  C   UNK N   1      -2.747   0.986  -2.388  0.00  0.00     0.020 A 
HETATM   18  C   UNK N   1      -4.130   1.091  -2.569  0.00  0.00     0.038 A 
HETATM   19  C   UNK N   1      -4.699   0.892  -3.834  0.00  0.00     0.068 A 
HETATM   20  C   UNK N   1      -3.858   0.615  -4.929  0.00  0.00     0.038 A 
HETATM   21  C   UNK N   1      -2.479   0.520  -4.752  0.00  0.00     0.020 A 
BRANCH  19  22
HETATM   22  O   UNK N   1      -6.051   0.955  -3.960  0.00  0.00    -0.356 OA
HETATM   23  C   UNK N   1      -6.748   0.646  -5.111  0.00  0.00     0.210 C 
ENDBRANCH  19  22
ENDBRANCH  14  16
ENDBRANCH  13  14
ENDBRANCH   1  13
BRANCH   3  24
HETATM   24  O   UNK N   1       1.352  -2.937  -1.890  0.00  0.00    -0.389 OA
HETATM   25  H   UNK N   1       1.290  -3.925  -1.948  0.00  0.00     0.210 HD
ENDBRANCH   3  24
BRANCH   3  26
HETATM   26  C   UNK N   1      -0.959  -2.537  -1.234  0.00  0.00     0.012 C 
HETATM   27  C   UNK N   1      -1.399  -3.967  -1.613  0.00  0.00     0.012 C 
HETATM   28  C   UNK N   1      -1.935  -2.002  -0.166  0.00  0.00     0.012 C 
ENDBRANCH   3  26
BRANCH   9  29
HETATM   29  O   UNK N   1       4.686   1.415  -1.307  0.00  0.00    -0.386 OA
HETATM   30  H   UNK N   1       5.618   1.130  -1.503  0.00  0.00     0.211 HD
ENDBRANCH   9  29
BRANCH   5  31
HETATM   31  O   UNK N   1       2.303  -2.932   2.378  0.00  0.00    -0.315 OA
BRANCH  31  32
HETATM   32  C   UNK N   1       1.923  -3.345   3.614  0.00  0.00     0.255 C 
HETATM   33  O   UNK N   1       0.782  -3.165   4.015  0.00  0.00    -0.266 OA
HETATM   34  C   UNK N   1       2.911  -4.064   4.475  0.00  0.00     0.126 C 
ENDBRANCH  31  32
ENDBRANCH   5  31
BRANCH   7  35
HETATM   35  O   UNK N   1       4.100  -2.771   0.506  0.00  0.00    -0.283 OA
BRANCH  35  36
HETATM   36  C   UNK N   1       5.407  -2.905   0.870  0.00  0.00     0.259 C 
HETATM   37  O   UNK N   1       6.162  -1.942   0.878  0.00  0.00    -0.265 OA
HETATM   38  C   UNK N   1       5.903  -4.229   1.349  0.00  0.00     0.126 C 
ENDBRANCH  35  36
ENDBRANCH   7  35
TORSDOF 11
