REMARK  14 active torsions:
REMARK  status: ('A' for Active; 'I' for Inactive)
REMARK    1  A    between atoms: C_2  and  O_3 
REMARK    2  A    between atoms: C_2  and  C_39 
REMARK    3  A    between atoms: O_3  and  C_4 
REMARK    4  A    between atoms: C_5  and  C_36 
REMARK    5  A    between atoms: C_7  and  C_14 
REMARK    6  A    between atoms: C_8  and  O_9 
REMARK    7  A    between atoms: C_11  and  O_12 
REMARK    8  A    between atoms: C_14  and  C_15 
REMARK    9  A    between atoms: C_17  and  O_18 
REMARK   10  A    between atoms: C_20  and  C_21 
REMARK   11  A    between atoms: C_21  and  C_23 
REMARK   12  A    between atoms: C_25  and  O_26 
REMARK   13  A    between atoms: C_29  and  O_31 
REMARK   14  A    between atoms: C_36  and  O_37 
ROOT
HETATM    1  C   UNK N   1      -4.265  -0.642  -3.084  0.00  0.00     0.194 C 
HETATM    2  C   UNK N   1      -2.882  -1.329  -2.976  0.00  0.00     0.177 C 
HETATM    3  O   UNK N   1      -1.919  -0.472  -2.361  0.00  0.00    -0.373 OA
HETATM    4  C   UNK N   1      -2.286  -0.092  -1.036  0.00  0.00     0.157 C 
HETATM    5  C   UNK N   1      -3.670   0.601  -1.003  0.00  0.00     0.178 C 
HETATM    6  C   UNK N   1      -4.740  -0.271  -1.670  0.00  0.00     0.181 C 
ENDROOT
BRANCH   4   7
HETATM    7  C   UNK N   1      -2.089  -1.242  -0.010  0.00  0.00     0.073 C 
BRANCH   7   8
HETATM    8  C   UNK N   1      -0.617  -1.508   0.212  0.00  0.00    -0.052 A 
HETATM    9  C   UNK N   1       0.083  -2.435  -0.572  0.00  0.00     0.044 A 
HETATM   10  C   UNK N   1       1.458  -2.645  -0.364  0.00  0.00     0.081 A 
HETATM   11  C   UNK N   1       2.139  -1.917   0.630  0.00  0.00     0.054 A 
HETATM   12  C   UNK N   1       1.439  -0.979   1.419  0.00  0.00    -0.044 A 
HETATM   13  C   UNK N   1       0.067  -0.788   1.206  0.00  0.00     0.015 A 
HETATM   14  C   UNK N   1       2.147  -0.170   2.476  0.00  0.00     0.049 C 
BRANCH  10  15
HETATM   15  O   UNK N   1       2.132  -3.537  -1.121  0.00  0.00    -0.360 OA
HETATM   16  H   UNK N   1       1.696  -4.053  -1.814  0.00  0.00     0.217 HD
ENDBRANCH  10  15
BRANCH  11  17
HETATM   17  C   UNK N   1       3.594  -2.120   0.823  0.00  0.00     0.195 C 
HETATM   18  O   UNK N   1       3.972  -2.974   1.611  0.00  0.00    -0.287 OA
BRANCH  17  19
HETATM   19  C   UNK N   1       4.586  -1.294   0.079  0.00  0.00     0.020 A 
HETATM   20  C   UNK N   1       5.967  -1.486   0.280  0.00  0.00     0.052 A 
HETATM   21  C   UNK N   1       6.902  -0.710  -0.423  0.00  0.00     0.069 A 
HETATM   22  C   UNK N   1       6.463   0.260  -1.328  0.00  0.00     0.073 A 
HETATM   23  C   UNK N   1       5.096   0.463  -1.537  0.00  0.00     0.069 A 
HETATM   24  C   UNK N   1       4.161  -0.310  -0.836  0.00  0.00     0.052 A 
BRANCH  21  25
HETATM   25  O   UNK N   1       8.225  -0.892  -0.235  0.00  0.00    -0.361 OA
HETATM   26  H   UNK N   1       8.566  -1.554   0.384  0.00  0.00     0.217 HD
ENDBRANCH  21  25
BRANCH  23  27
HETATM   27  O   UNK N   1       4.689   1.403  -2.413  0.00  0.00    -0.361 OA
HETATM   28  H   UNK N   1       3.750   1.569  -2.582  0.00  0.00     0.217 HD
ENDBRANCH  23  27
ENDBRANCH  17  19
ENDBRANCH  11  17
ENDBRANCH   7   8
ENDBRANCH   4   7
BRANCH   5  29
HETATM   29  O   UNK N   1      -4.020   0.915   0.322  0.00  0.00    -0.390 OA
HETATM   30  H   UNK N   1      -4.832   1.483   0.288  0.00  0.00     0.210 HD
ENDBRANCH   5  29
BRANCH   2  31
HETATM   31  C   UNK N   1      -2.379  -1.710  -4.376  0.00  0.00     0.198 C 
BRANCH  31  32
HETATM   32  O   UNK N   1      -1.147  -2.366  -4.273  0.00  0.00    -0.398 OA
HETATM   33  H   UNK N   1      -0.879  -2.590  -5.203  0.00  0.00     0.209 HD
ENDBRANCH  31  32
ENDBRANCH   2  31
BRANCH   6  34
HETATM   34  O   UNK N   1      -5.978   0.397  -1.711  0.00  0.00    -0.390 OA
HETATM   35  H   UNK N   1      -5.848   1.245  -2.213  0.00  0.00     0.210 HD
ENDBRANCH   6  34
BRANCH   1  36
HETATM   36  O   UNK N   1      -5.168  -1.516  -3.667  0.00  0.00    -0.307 OA
BRANCH  36  37
HETATM   37  C   UNK N   1      -6.295  -1.151  -4.339  0.00  0.00     0.293 C 
HETATM   38  O   UNK N   1      -6.534   0.027  -4.560  0.00  0.00    -0.259 OA
BRANCH  37  39
HETATM   39  C   UNK N   1      -7.222  -2.204  -4.817  0.00  0.00     0.039 A 
HETATM   40  C   UNK N   1      -8.375  -1.874  -5.556  0.00  0.00     0.017 A 
HETATM   41  C   UNK N   1      -9.238  -2.883  -5.999  0.00  0.00     0.001 A 
HETATM   42  C   UNK N   1      -8.962  -4.221  -5.708  0.00  0.00     0.000 A 
HETATM   43  C   UNK N   1      -7.822  -4.556  -4.973  0.00  0.00     0.001 A 
HETATM   44  C   UNK N   1      -6.956  -3.554  -4.530  0.00  0.00     0.017 A 
ENDBRANCH  37  39
ENDBRANCH  36  37
ENDBRANCH   1  36
TORSDOF 14
