REMARK  7 active torsions:
REMARK  status: ('A' for Active; 'I' for Inactive)
REMARK    1  A    between atoms: C_2  and  O_3 
REMARK    2  A    between atoms: C_2  and  C_22 
REMARK    3  A    between atoms: O_3  and  C_4 
REMARK    4  A    between atoms: C_6  and  O_7 
REMARK    5  A    between atoms: C_6  and  C_9 
REMARK    6  A    between atoms: C_24  and  O_25 
REMARK    7  A    between atoms: C_27  and  O_28 
ROOT
HETATM    1  C   UNK N   1       1.071   0.545  -0.735  0.00  0.00     0.142 C 
HETATM    2  C   UNK N   1       1.152   1.407   0.564  0.00  0.00     0.058 C 
HETATM    3  C   UNK N   1      -0.039   1.337   1.592  0.00  0.00     0.067 C 
HETATM    4  C   UNK N   1       0.626   1.796   2.939  0.00  0.00     0.039 C 
HETATM    5  C   UNK N   1       2.056   2.193   2.588  0.00  0.00     0.012 C 
HETATM    6  C   UNK N   1       2.434   1.254   1.434  0.00  0.00    -0.033 C 
HETATM    7  C   UNK N   1       3.706   1.782   0.711  0.00  0.00     0.044 C 
HETATM    8  C   UNK N   1       4.308   0.776  -0.276  0.00  0.00     0.157 A 
HETATM    9  O   UNK N   1       4.569   1.309  -1.566  0.00  0.00    -0.370 OA
HETATM   10  C   UNK N   1       3.520   0.375  -1.458  0.00  0.00     0.086 A 
HETATM   11  C   UNK N   1       2.145   0.978  -1.752  0.00  0.00     0.073 C 
HETATM   12  C   UNK N   1       3.849  -0.988  -2.074  0.00  0.00     0.049 C 
HETATM   13  C   UNK N   1       2.676  -0.192   1.966  0.00  0.00     0.016 C 
ENDROOT
BRANCH   1  14
HETATM   14  O   UNK N   1      -0.154   0.731  -1.351  0.00  0.00    -0.311 OA
BRANCH  14  15
HETATM   15  C   UNK N   1      -1.008  -0.281  -1.685  0.00  0.00     0.293 C 
HETATM   16  O   UNK N   1      -0.724  -1.445  -1.440  0.00  0.00    -0.259 OA
BRANCH  15  17
HETATM   17  C   UNK N   1      -2.293   0.038  -2.344  0.00  0.00     0.042 A 
HETATM   18  C   UNK N   1      -2.578   1.357  -2.724  0.00  0.00     0.057 A 
HETATM   19  C   UNK N   1      -3.808   1.680  -3.332  0.00  0.00     0.102 A 
HETATM   20  C   UNK N   1      -4.755   0.665  -3.546  0.00  0.00     0.099 A 
HETATM   21  C   UNK N   1      -4.464  -0.656  -3.178  0.00  0.00     0.040 A 
HETATM   22  C   UNK N   1      -3.240  -0.971  -2.587  0.00  0.00     0.020 A 
BRANCH  19  23
HETATM   23  O   UNK N   1      -4.107   2.949  -3.719  0.00  0.00    -0.353 OA
HETATM   24  C   UNK N   1      -3.244   4.024  -3.641  0.00  0.00     0.210 C 
ENDBRANCH  19  23
BRANCH  20  25
HETATM   25  O   UNK N   1      -5.944   0.968  -4.107  0.00  0.00    -0.358 OA
HETATM   26  H   UNK N   1      -6.626   0.296  -4.247  0.00  0.00     0.218 HD
ENDBRANCH  20  25
ENDBRANCH  15  17
ENDBRANCH  14  15
ENDBRANCH   1  14
BRANCH   3  27
HETATM   27  O   UNK N   1      -0.427  -0.019   1.686  0.00  0.00    -0.389 OA
HETATM   28  H   UNK N   1      -0.916  -0.160   2.537  0.00  0.00     0.210 HD
ENDBRANCH   3  27
BRANCH   3  29
HETATM   29  C   UNK N   1      -1.302   2.209   1.200  0.00  0.00     0.012 C 
HETATM   30  C   UNK N   1      -2.439   2.085   2.239  0.00  0.00     0.012 C 
HETATM   31  C   UNK N   1      -1.008   3.714   1.003  0.00  0.00     0.012 C 
ENDBRANCH   3  29
TORSDOF 7
