REMARK  4 active torsions:
REMARK  status: ('A' for Active; 'I' for Inactive)
REMARK    1  A    between atoms: C_2  and  O_3 
REMARK    2  A    between atoms: C_2  and  C_5 
REMARK    3  A    between atoms: C_5  and  C_7 
REMARK    4  A    between atoms: C_12  and  O_13 
ROOT
HETATM    1  C   UNK N   1      -1.469  -0.285  -1.573  0.00  0.00     0.025 C 
HETATM    2  C   UNK N   1      -0.416   0.851  -1.579  0.00  0.00     0.019 C 
HETATM    3  C   UNK N   1       1.008   0.250  -1.644  0.00  0.00     0.029 C 
HETATM    4  C   UNK N   1       2.162   1.220  -1.760  0.00  0.00    -0.052 C 
HETATM    5  C   UNK N   1       2.015   2.557  -1.657  0.00  0.00     0.017 C 
HETATM    6  C   UNK N   1       3.525   0.585  -1.990  0.00  0.00     0.169 C 
HETATM    7  C   UNK N   1       3.669  -0.750  -1.277  0.00  0.00     0.006 C 
HETATM    8  C   UNK N   1       2.673  -1.326  -0.570  0.00  0.00    -0.018 C 
HETATM    9  C   UNK N   1       1.286  -0.705  -0.435  0.00  0.00    -0.019 C 
HETATM   10  C   UNK N   1       0.213  -1.828  -0.473  0.00  0.00     0.014 C 
HETATM   11  C   UNK N   1      -1.223  -1.267  -0.410  0.00  0.00     0.010 C 
HETATM   12  C   UNK N   1       1.264   0.016   0.938  0.00  0.00     0.020 C 
ENDROOT
BRANCH   1  13
HETATM   13  C   UNK N   1      -2.890   0.270  -1.544  0.00  0.00     0.010 C 
HETATM   14  C   UNK N   1      -3.284   1.088  -0.546  0.00  0.00     0.026 C 
BRANCH  13  15
HETATM   15  C   UNK N   1      -3.854  -0.102  -2.620  0.00  0.00     0.171 C 
HETATM   16  O   UNK N   1      -4.952   0.431  -2.680  0.00  0.00    -0.646 OA
BRANCH  15  17
HETATM   17  O   UNK N   1      -3.532  -1.066  -3.511  0.00  0.00    -0.773 OA
HETATM   18  H   UNK N   1      -4.169  -1.365  -4.175  0.00  0.00     0.167 HD
ENDBRANCH  15  17
ENDBRANCH  13  15
ENDBRANCH   1  13
BRANCH   6  19
HETATM   19  O   UNK N   1       4.578   1.446  -1.634  0.00  0.00    -0.387 OA
HETATM   20  H   UNK N   1       4.540   1.569  -0.649  0.00  0.00     0.210 HD
ENDBRANCH   6  19
TORSDOF 4
