REMARK  3 active torsions:
REMARK  status: ('A' for Active; 'I' for Inactive)
REMARK    1  A    between atoms: C_11  and  C_12 
REMARK    2  A    between atoms: C_12  and  C_13 
REMARK    3  A    between atoms: C_13  and  O_15 
ROOT
HETATM    1  O   UNK N   1       4.531   1.608  -1.402  0.00  0.00    -0.288 OA
HETATM    2  C   UNK N   1       3.577   0.867  -1.219  0.00  0.00     0.177 C 
HETATM    3  C   UNK N   1       2.183   1.363  -1.340  0.00  0.00    -0.012 C 
HETATM    4  C   UNK N   1       1.929   2.684  -1.409  0.00  0.00     0.023 C 
HETATM    5  C   UNK N   1       1.099   0.287  -1.395  0.00  0.00     0.034 C 
HETATM    6  C   UNK N   1       1.360  -0.782  -0.287  0.00  0.00    -0.018 C 
HETATM    7  C   UNK N   1       2.779  -1.332  -0.454  0.00  0.00    -0.013 C 
HETATM    8  C   UNK N   1       3.802  -0.551  -0.859  0.00  0.00     0.052 C 
HETATM    9  C   UNK N   1       0.345  -1.947  -0.466  0.00  0.00     0.014 C 
HETATM   10  C   UNK N   1      -1.119  -1.467  -0.472  0.00  0.00     0.010 C 
HETATM   11  C   UNK N   1      -1.336  -0.392  -1.562  0.00  0.00     0.025 C 
HETATM   12  C   UNK N   1      -0.365   0.791  -1.382  0.00  0.00     0.020 C 
HETATM   13  C   UNK N   1       1.259  -0.186   1.140  0.00  0.00     0.020 C 
ENDROOT
BRANCH  11  14
HETATM   14  C   UNK N   1      -2.779   0.105  -1.614  0.00  0.00     0.010 C 
HETATM   15  C   UNK N   1      -3.372   0.614  -0.514  0.00  0.00     0.026 C 
BRANCH  14  16
HETATM   16  C   UNK N   1      -3.529   0.058  -2.904  0.00  0.00     0.171 C 
HETATM   17  O   UNK N   1      -4.691   0.428  -2.961  0.00  0.00    -0.646 OA
BRANCH  16  18
HETATM   18  O   UNK N   1      -2.906  -0.353  -4.031  0.00  0.00    -0.773 OA
HETATM   19  H   UNK N   1      -3.359  -0.346  -4.886  0.00  0.00     0.167 HD
ENDBRANCH  16  18
ENDBRANCH  14  16
ENDBRANCH  11  14
TORSDOF 3
