REMARK  7 active torsions:
REMARK  status: ('A' for Active; 'I' for Inactive)
REMARK    1  A    between atoms: C_2  and  O_3 
REMARK    2  A    between atoms: O_3  and  C_4 
REMARK    3  A    between atoms: C_4  and  C_5 
REMARK    4  A    between atoms: C_10  and  O_11 
REMARK    5  A    between atoms: C_21  and  O_22 
REMARK    6  A    between atoms: C_24  and  O_25 
REMARK    7  A    between atoms: C_27  and  O_28 
ROOT
HETATM    1  C   UNK N   1      -0.542   0.547  -3.499  0.00  0.00     0.060 C 
HETATM    2  C   UNK N   1      -0.067  -0.904  -3.767  0.00  0.00     0.046 C 
HETATM    3  C   UNK N   1       0.006   1.406  -4.664  0.00  0.00     0.046 C 
ENDROOT
BRANCH   1   4
HETATM    4  O   UNK N   1      -1.968   0.691  -3.581  0.00  0.00    -0.348 OA
BRANCH   4   5
HETATM    5  C   UNK N   1      -2.758  -0.149  -2.745  0.00  0.00     0.292 C 
HETATM    6  O   UNK N   1      -2.637   0.254  -1.386  0.00  0.00    -0.351 OA
HETATM    7  C   UNK N   1      -3.339  -0.592  -0.483  0.00  0.00     0.152 C 
HETATM    8  C   UNK N   1      -4.852  -0.552  -0.777  0.00  0.00     0.178 C 
HETATM    9  C   UNK N   1      -2.737  -2.010  -0.393  0.00  0.00     0.042 C 
HETATM   10  C   UNK N   1      -5.097  -0.912  -2.259  0.00  0.00     0.183 C 
HETATM   11  C   UNK N   1      -4.232  -0.020  -3.183  0.00  0.00     0.204 C 
BRANCH   8  12
HETATM   12  O   UNK N   1      -5.312   0.750  -0.509  0.00  0.00    -0.390 OA
HETATM   13  H   UNK N   1      -6.260   0.676  -0.226  0.00  0.00     0.210 HD
ENDBRANCH   8  12
BRANCH  10  14
HETATM   14  O   UNK N   1      -6.462  -0.852  -2.592  0.00  0.00    -0.390 OA
HETATM   15  H   UNK N   1      -6.755   0.094  -2.530  0.00  0.00     0.210 HD
ENDBRANCH  10  14
BRANCH  11  16
HETATM   16  O   UNK N   1      -4.646   1.321  -3.088  0.00  0.00    -0.388 OA
HETATM   17  H   UNK N   1      -4.283   1.795  -3.881  0.00  0.00     0.210 HD
ENDBRANCH  11  16
ENDBRANCH   4   5
ENDBRANCH   1   4
BRANCH   1  18
HETATM   18  C   UNK N   1      -0.006   1.049  -2.109  0.00  0.00     0.021 C 
HETATM   19  C   UNK N   1       1.499   1.033  -1.844  0.00  0.00     0.022 C 
HETATM   20  C   UNK N   1       1.693   1.941  -0.581  0.00  0.00    -0.012 C 
HETATM   21  C   UNK N   1       2.887   2.885  -0.875  0.00  0.00    -0.052 C 
HETATM   22  C   UNK N   1       2.015   1.159   0.760  0.00  0.00    -0.006 C 
HETATM   23  C   UNK N   1       0.315   2.674  -0.443  0.00  0.00     0.015 C 
HETATM   24  C   UNK N   1       2.748   4.205  -1.125  0.00  0.00     0.017 C 
HETATM   25  C   UNK N   1       4.282   2.285  -0.871  0.00  0.00     0.147 C 
HETATM   26  C   UNK N   1       4.506   1.621   0.491  0.00  0.00     0.037 C 
HETATM   27  C   UNK N   1       3.440   0.551   0.751  0.00  0.00     0.008 C 
HETATM   28  C   UNK N   1       1.028   0.018   1.114  0.00  0.00     0.011 C 
HETATM   29  C   UNK N   1      -0.353   2.511  -1.789  0.00  0.00     0.009 C 
BRANCH  25  30
HETATM   30  O   UNK N   1       4.398   1.341  -1.904  0.00  0.00    -0.391 OA
HETATM   31  H   UNK N   1       5.355   1.079  -1.951  0.00  0.00     0.210 HD
ENDBRANCH  25  30
ENDBRANCH   1  18
TORSDOF 7
