REMARK  7 active torsions:
REMARK  status: ('A' for Active; 'I' for Inactive)
REMARK    1  A    between atoms: C_2  and  O_3 
REMARK    2  A    between atoms: O_3  and  C_4 
REMARK    3  A    between atoms: C_4  and  C_5 
REMARK    4  A    between atoms: C_10  and  O_11 
REMARK    5  A    between atoms: C_21  and  O_22 
REMARK    6  A    between atoms: C_24  and  O_25 
REMARK    7  A    between atoms: C_27  and  O_28 
ROOT
HETATM    1  C   UNK N   1      -0.255  -2.347  -1.498  0.00  0.00     0.060 C 
HETATM    2  C   UNK N   1      -0.885  -3.056  -2.720  0.00  0.00     0.046 C 
HETATM    3  C   UNK N   1       0.235  -3.481  -0.561  0.00  0.00     0.046 C 
ENDROOT
BRANCH   1   4
HETATM    4  O   UNK N   1       0.836  -1.593  -2.043  0.00  0.00    -0.348 OA
BRANCH   4   5
HETATM    5  C   UNK N   1       1.624  -0.821  -1.145  0.00  0.00     0.292 C 
HETATM    6  O   UNK N   1       2.304  -1.665  -0.223  0.00  0.00    -0.351 OA
HETATM    7  C   UNK N   1       3.078  -0.947   0.732  0.00  0.00     0.152 C 
HETATM    8  C   UNK N   1       4.183  -0.122   0.036  0.00  0.00     0.178 C 
HETATM    9  C   UNK N   1       2.211  -0.145   1.722  0.00  0.00     0.042 C 
HETATM   10  C   UNK N   1       3.543   0.794  -1.029  0.00  0.00     0.183 C 
HETATM   11  C   UNK N   1       2.658  -0.038  -1.986  0.00  0.00     0.204 C 
BRANCH   8  12
HETATM   12  O   UNK N   1       5.084  -1.018  -0.567  0.00  0.00    -0.390 OA
HETATM   13  H   UNK N   1       5.957  -0.552  -0.642  0.00  0.00     0.210 HD
ENDBRANCH   8  12
BRANCH  10  14
HETATM   14  O   UNK N   1       4.511   1.548  -1.719  0.00  0.00    -0.390 OA
HETATM   15  H   UNK N   1       5.044   0.932  -2.285  0.00  0.00     0.210 HD
ENDBRANCH  10  14
BRANCH  11  16
HETATM   16  O   UNK N   1       3.454  -0.932  -2.725  0.00  0.00    -0.388 OA
HETATM   17  H   UNK N   1       2.903  -1.257  -3.484  0.00  0.00     0.210 HD
ENDBRANCH  11  16
ENDBRANCH   4   5
ENDBRANCH   1   4
BRANCH   1  18
HETATM   18  C   UNK N   1      -1.306  -1.446  -0.741  0.00  0.00     0.021 C 
HETATM   19  C   UNK N   1      -1.949  -0.303  -1.549  0.00  0.00     0.022 C 
HETATM   20  C   UNK N   1      -3.268   0.072  -0.785  0.00  0.00    -0.012 C 
HETATM   21  C   UNK N   1      -4.451  -0.028  -1.794  0.00  0.00    -0.052 C 
HETATM   22  C   UNK N   1      -3.279   1.534  -0.187  0.00  0.00    -0.006 C 
HETATM   23  C   UNK N   1      -3.337  -0.993   0.353  0.00  0.00     0.015 C 
HETATM   24  C   UNK N   1      -5.393  -1.000  -1.741  0.00  0.00     0.017 C 
HETATM   25  C   UNK N   1      -4.515   1.040  -2.881  0.00  0.00     0.147 C 
HETATM   26  C   UNK N   1      -4.573   2.410  -2.201  0.00  0.00     0.037 C 
HETATM   27  C   UNK N   1      -3.349   2.608  -1.303  0.00  0.00     0.008 C 
HETATM   28  C   UNK N   1      -2.068   1.876   0.713  0.00  0.00     0.011 C 
HETATM   29  C   UNK N   1      -2.544  -2.168  -0.188  0.00  0.00     0.009 C 
BRANCH  25  30
HETATM   30  O   UNK N   1      -5.634   0.881  -3.718  0.00  0.00    -0.391 OA
HETATM   31  H   UNK N   1      -5.503   1.487  -4.495  0.00  0.00     0.210 HD
ENDBRANCH  25  30
ENDBRANCH   1  18
TORSDOF 7
