REMARK  8 active torsions:
REMARK  status: ('A' for Active; 'I' for Inactive)
REMARK    1  A    between atoms: C_2  and  O_3 
REMARK    2  A    between atoms: C_2  and  C_25 
REMARK    3  A    between atoms: O_3  and  C_4 
REMARK    4  A    between atoms: C_6  and  O_7 
REMARK    5  A    between atoms: C_6  and  C_9 
REMARK    6  A    between atoms: C_13  and  O_14 
REMARK    7  A    between atoms: O_14  and  C_15 
REMARK    8  A    between atoms: C_28  and  O_29 
ROOT
HETATM    1  C   UNK N   1       0.856   2.868   0.026  0.00  0.00     0.144 C 
HETATM    2  C   UNK N   1       2.048   1.848  -0.018  0.00  0.00     0.061 C 
HETATM    3  C   UNK N   1       2.635   1.625  -1.468  0.00  0.00     0.070 C 
HETATM    4  C   UNK N   1       1.759   0.464  -1.946  0.00  0.00     0.072 C 
HETATM    5  C   UNK N   1       1.850  -0.519  -0.786  0.00  0.00     0.143 C 
HETATM    6  C   UNK N   1       1.698   0.382   0.494  0.00  0.00    -0.005 C 
HETATM    7  C   UNK N   1       0.263   0.222   1.087  0.00  0.00     0.039 C 
HETATM    8  C   UNK N   1      -0.022   0.984   2.351  0.00  0.00    -0.023 C 
HETATM    9  C   UNK N   1       0.047   2.323   2.508  0.00  0.00    -0.085 C 
HETATM   10  C   UNK N   1       0.472   3.320   1.449  0.00  0.00     0.066 C 
HETATM   11  C   UNK N   1      -0.305   2.910   3.855  0.00  0.00     0.043 C 
HETATM   12  C   UNK N   1       2.723  -0.075   1.561  0.00  0.00     0.019 C 
ENDROOT
BRANCH   1  13
HETATM   13  O   UNK N   1      -0.244   2.442  -0.698  0.00  0.00    -0.311 OA
BRANCH  13  14
HETATM   14  C   UNK N   1      -1.176   3.263  -1.255  0.00  0.00     0.293 C 
HETATM   15  O   UNK N   1      -1.047   4.478  -1.193  0.00  0.00    -0.259 OA
BRANCH  14  16
HETATM   16  C   UNK N   1      -2.339   2.674  -1.960  0.00  0.00     0.039 A 
HETATM   17  C   UNK N   1      -3.286   3.502  -2.592  0.00  0.00     0.020 A 
HETATM   18  C   UNK N   1      -4.382   2.940  -3.253  0.00  0.00     0.037 A 
HETATM   19  C   UNK N   1      -4.549   1.548  -3.286  0.00  0.00     0.065 A 
HETATM   20  C   UNK N   1      -3.611   0.723  -2.660  0.00  0.00     0.037 A 
HETATM   21  C   UNK N   1      -2.511   1.280  -2.003  0.00  0.00     0.020 A 
BRANCH  19  22
HETATM   22  O   UNK N   1      -5.604   0.996  -3.918  0.00  0.00    -0.361 OA
HETATM   23  H   UNK N   1      -6.271   1.538  -4.363  0.00  0.00     0.217 HD
ENDBRANCH  19  22
ENDBRANCH  14  16
ENDBRANCH  13  14
ENDBRANCH   1  13
BRANCH   3  24
HETATM   24  O   UNK N   1       3.962   1.145  -1.380  0.00  0.00    -0.389 OA
HETATM   25  H   UNK N   1       4.482   1.760  -0.800  0.00  0.00     0.210 HD
ENDBRANCH   3  24
BRANCH   3  26
HETATM   26  C   UNK N   1       2.603   2.839  -2.472  0.00  0.00     0.012 C 
HETATM   27  C   UNK N   1       3.471   4.027  -2.012  0.00  0.00     0.012 C 
HETATM   28  C   UNK N   1       3.070   2.433  -3.885  0.00  0.00     0.012 C 
ENDBRANCH   3  26
BRANCH   5  29
HETATM   29  O   UNK N   1       0.915  -1.544  -0.888  0.00  0.00    -0.315 OA
BRANCH  29  30
HETATM   30  C   UNK N   1       0.833  -2.413  -1.935  0.00  0.00     0.255 C 
HETATM   31  O   UNK N   1       1.664  -2.398  -2.831  0.00  0.00    -0.266 OA
HETATM   32  C   UNK N   1      -0.304  -3.383  -2.004  0.00  0.00     0.126 C 
ENDBRANCH  29  30
ENDBRANCH   5  29
TORSDOF 8
