REMARK  8 active torsions:
REMARK  status: ('A' for Active; 'I' for Inactive)
REMARK    1  A    between atoms: C_2  and  O_3 
REMARK    2  A    between atoms: C_2  and  C_25 
REMARK    3  A    between atoms: O_3  and  C_4 
REMARK    4  A    between atoms: C_6  and  O_7 
REMARK    5  A    between atoms: C_6  and  C_9 
REMARK    6  A    between atoms: C_13  and  O_14 
REMARK    7  A    between atoms: O_14  and  C_15 
REMARK    8  A    between atoms: C_28  and  O_29 
ROOT
HETATM    1  C   UNK N   1       2.090   1.674  -1.984  0.00  0.00     0.144 C 
HETATM    2  C   UNK N   1       2.597   0.774  -0.815  0.00  0.00     0.061 C 
HETATM    3  C   UNK N   1       4.161   0.531  -0.797  0.00  0.00     0.070 C 
HETATM    4  C   UNK N   1       4.555   0.782   0.681  0.00  0.00     0.072 C 
HETATM    5  C   UNK N   1       3.509   1.783   1.179  0.00  0.00     0.143 C 
HETATM    6  C   UNK N   1       2.193   1.187   0.630  0.00  0.00    -0.005 C 
HETATM    7  C   UNK N   1       0.965   2.132   0.716  0.00  0.00     0.039 C 
HETATM    8  C   UNK N   1       1.165   3.568   0.309  0.00  0.00    -0.023 C 
HETATM    9  C   UNK N   1       1.748   4.035  -0.819  0.00  0.00    -0.085 C 
HETATM   10  C   UNK N   1       2.376   3.194  -1.918  0.00  0.00     0.066 C 
HETATM   11  C   UNK N   1       1.829   5.533  -1.007  0.00  0.00     0.043 C 
HETATM   12  C   UNK N   1       1.776  -0.103   1.416  0.00  0.00     0.019 C 
ENDROOT
BRANCH   1  13
HETATM   13  O   UNK N   1       0.735   1.468  -2.167  0.00  0.00    -0.311 OA
BRANCH  13  14
HETATM   14  C   UNK N   1       0.083   1.676  -3.344  0.00  0.00     0.293 C 
HETATM   15  O   UNK N   1       0.701   2.012  -4.344  0.00  0.00    -0.259 OA
BRANCH  14  16
HETATM   16  C   UNK N   1      -1.375   1.460  -3.414  0.00  0.00     0.039 A 
HETATM   17  C   UNK N   1      -2.091   1.093  -2.264  0.00  0.00     0.020 A 
HETATM   18  C   UNK N   1      -3.469   0.886  -2.328  0.00  0.00     0.038 A 
HETATM   19  C   UNK N   1      -4.155   1.038  -3.539  0.00  0.00     0.068 A 
HETATM   20  C   UNK N   1      -3.436   1.405  -4.695  0.00  0.00     0.038 A 
HETATM   21  C   UNK N   1      -2.059   1.616  -4.631  0.00  0.00     0.020 A 
BRANCH  19  22
HETATM   22  O   UNK N   1      -5.496   0.823  -3.556  0.00  0.00    -0.356 OA
HETATM   23  C   UNK N   1      -6.296   0.928  -4.674  0.00  0.00     0.210 C 
ENDBRANCH  19  22
ENDBRANCH  14  16
ENDBRANCH  13  14
ENDBRANCH   1  13
BRANCH   3  24
HETATM   24  O   UNK N   1       4.793   1.491  -1.614  0.00  0.00    -0.389 OA
HETATM   25  H   UNK N   1       5.766   1.488  -1.425  0.00  0.00     0.210 HD
ENDBRANCH   3  24
BRANCH   3  26
HETATM   26  C   UNK N   1       4.539  -0.922  -1.267  0.00  0.00     0.012 C 
HETATM   27  C   UNK N   1       6.045  -1.215  -1.153  0.00  0.00     0.012 C 
HETATM   28  C   UNK N   1       4.082  -1.222  -2.708  0.00  0.00     0.012 C 
ENDBRANCH   3  26
BRANCH   5  29
HETATM   29  O   UNK N   1       3.493   1.905   2.558  0.00  0.00    -0.315 OA
BRANCH  29  30
HETATM   30  C   UNK N   1       4.533   2.364   3.300  0.00  0.00     0.255 C 
HETATM   31  O   UNK N   1       5.549   2.787   2.765  0.00  0.00    -0.266 OA
HETATM   32  C   UNK N   1       4.433   2.337   4.790  0.00  0.00     0.126 C 
ENDBRANCH  29  30
ENDBRANCH   5  29
TORSDOF 8
