REMARK  8 active torsions:
REMARK  status: ('A' for Active; 'I' for Inactive)
REMARK    1  A    between atoms: C_2  and  O_3 
REMARK    2  A    between atoms: C_2  and  C_26 
REMARK    3  A    between atoms: O_3  and  C_4 
REMARK    4  A    between atoms: C_6  and  O_7 
REMARK    5  A    between atoms: C_6  and  C_9 
REMARK    6  A    between atoms: C_13  and  O_14 
REMARK    7  A    between atoms: O_14  and  C_15 
REMARK    8  A    between atoms: C_29  and  O_30 
ROOT
HETATM    1  C   UNK N   1      -0.157  -1.506  -0.202  0.00  0.00     0.140 C 
HETATM    2  C   UNK N   1       0.941  -0.402  -0.236  0.00  0.00     0.061 C 
HETATM    3  C   UNK N   1       2.265  -0.607   0.547  0.00  0.00     0.070 C 
HETATM    4  C   UNK N   1       2.993   0.714   0.162  0.00  0.00     0.072 C 
HETATM    5  C   UNK N   1       2.797   0.769  -1.353  0.00  0.00     0.143 C 
HETATM    6  C   UNK N   1       1.315   0.330  -1.579  0.00  0.00    -0.005 C 
HETATM    7  C   UNK N   1       1.175  -0.517  -2.869  0.00  0.00     0.039 C 
HETATM    8  C   UNK N   1       2.091  -1.707  -2.944  0.00  0.00    -0.023 C 
HETATM    9  C   UNK N   1       1.734  -2.962  -2.622  0.00  0.00    -0.087 C 
HETATM   10  C   UNK N   1       0.368  -3.318  -2.088  0.00  0.00     0.036 C 
HETATM   11  C   UNK N   1       0.157  -2.964  -0.604  0.00  0.00     0.037 C 
HETATM   12  C   UNK N   1       2.732  -4.079  -2.804  0.00  0.00     0.043 C 
HETATM   13  C   UNK N   1       0.387   1.571  -1.758  0.00  0.00     0.019 C 
ENDROOT
BRANCH   1  14
HETATM   14  O   UNK N   1      -1.246  -1.072  -0.930  0.00  0.00    -0.312 OA
BRANCH  14  15
HETATM   15  C   UNK N   1      -2.359  -0.487  -0.420  0.00  0.00     0.293 C 
HETATM   16  O   UNK N   1      -2.447  -0.251   0.776  0.00  0.00    -0.259 OA
BRANCH  15  17
HETATM   17  C   UNK N   1      -3.442  -0.089  -1.345  0.00  0.00     0.039 A 
HETATM   18  C   UNK N   1      -3.348  -0.395  -2.713  0.00  0.00     0.020 A 
HETATM   19  C   UNK N   1      -4.366  -0.022  -3.592  0.00  0.00     0.038 A 
HETATM   20  C   UNK N   1      -5.491   0.666  -3.124  0.00  0.00     0.068 A 
HETATM   21  C   UNK N   1      -5.585   0.979  -1.751  0.00  0.00     0.038 A 
HETATM   22  C   UNK N   1      -4.568   0.602  -0.871  0.00  0.00     0.020 A 
BRANCH  20  23
HETATM   23  O   UNK N   1      -6.459   1.008  -4.013  0.00  0.00    -0.356 OA
HETATM   24  C   UNK N   1      -7.620   1.683  -3.696  0.00  0.00     0.210 C 
ENDBRANCH  20  23
ENDBRANCH  15  17
ENDBRANCH  14  15
ENDBRANCH   1  14
BRANCH   3  25
HETATM   25  O   UNK N   1       2.932  -1.722  -0.004  0.00  0.00    -0.389 OA
HETATM   26  H   UNK N   1       3.905  -1.629   0.164  0.00  0.00     0.210 HD
ENDBRANCH   3  25
BRANCH   3  27
HETATM   27  C   UNK N   1       2.092  -0.828   2.101  0.00  0.00     0.012 C 
HETATM   28  C   UNK N   1       3.451  -0.957   2.814  0.00  0.00     0.012 C 
HETATM   29  C   UNK N   1       1.274   0.263   2.826  0.00  0.00     0.012 C 
ENDBRANCH   3  27
BRANCH   5  30
HETATM   30  O   UNK N   1       3.077   2.003  -1.914  0.00  0.00    -0.315 OA
BRANCH  30  31
HETATM   31  C   UNK N   1       4.317   2.532  -2.049  0.00  0.00     0.255 C 
HETATM   32  O   UNK N   1       5.315   1.865  -1.814  0.00  0.00    -0.266 OA
HETATM   33  C   UNK N   1       4.453   3.943  -2.524  0.00  0.00     0.126 C 
ENDBRANCH  30  31
ENDBRANCH   5  30
TORSDOF 8
