REMARK  9 active torsions:
REMARK  status: ('A' for Active; 'I' for Inactive)
REMARK    1  A    between atoms: C_3  and  O_4 
REMARK    2  A    between atoms: C_6  and  C_7 
REMARK    3  A    between atoms: C_7  and  O_9 
REMARK    4  A    between atoms: O_9  and  C_10 
REMARK    5  A    between atoms: C_17  and  C_18 
REMARK    6  A    between atoms: C_18  and  O_19 
REMARK    7  A    between atoms: C_18  and  C_21 
REMARK    8  A    between atoms: C_21  and  O_23 
REMARK    9  A    between atoms: C_31  and  C_36 
ROOT
HETATM    1  O   UNK N   1      -3.692  -2.642  -2.101  0.00  0.00    -0.293 OA
HETATM    2  C   UNK N   1      -3.289  -1.549  -1.731  0.00  0.00     0.175 C 
HETATM    3  C   UNK N   1      -2.762  -0.539  -2.708  0.00  0.00     0.150 C 
HETATM    4  C   UNK N   1      -3.674   0.716  -2.655  0.00  0.00     0.140 C 
HETATM    5  C   UNK N   1      -3.792   1.350  -1.199  0.00  0.00    -0.024 C 
HETATM    6  C   UNK N   1      -2.558   2.252  -0.885  0.00  0.00     0.016 C 
HETATM    7  C   UNK N   1      -4.979   2.372  -1.262  0.00  0.00     0.016 C 
HETATM    8  C   UNK N   1      -4.034   0.216  -0.072  0.00  0.00     0.049 C 
HETATM    9  C   UNK N   1      -3.205  -1.176  -0.280  0.00  0.00     0.035 C 
HETATM   10  C   UNK N   1      -1.644  -1.107   0.020  0.00  0.00     0.031 C 
HETATM   11  C   UNK N   1      -0.804  -0.483  -1.105  0.00  0.00    -0.070 C 
HETATM   12  C   UNK N   1      -1.347  -0.189  -2.322  0.00  0.00     0.023 C 
HETATM   13  C   UNK N   1       0.675  -0.232  -0.783  0.00  0.00     0.035 C 
HETATM   14  C   UNK N   1       1.357  -1.571  -0.384  0.00  0.00    -0.005 C 
HETATM   15  C   UNK N   1       2.812  -1.239   0.131  0.00  0.00     0.175 C 
HETATM   16  O   UNK N   1       3.510  -0.400  -0.728  0.00  0.00    -0.310 OA
HETATM   17  C   UNK N   1       2.966   0.406  -1.677  0.00  0.00     0.260 C 
HETATM   18  C   UNK N   1       1.481   0.474  -1.901  0.00  0.00     0.121 C 
HETATM   19  O   UNK N   1       3.706   1.038  -2.413  0.00  0.00    -0.265 OA
HETATM   20  C   UNK N   1       0.510  -2.274   0.722  0.00  0.00     0.013 C 
HETATM   21  C   UNK N   1      -0.969  -2.473   0.331  0.00  0.00     0.011 C 
HETATM   22  C   UNK N   1       1.469  -2.531  -1.606  0.00  0.00     0.019 C 
HETATM   23  C   UNK N   1      -3.874  -2.323   0.547  0.00  0.00     0.025 C 
ENDROOT
BRANCH   4  24
HETATM   24  C   UNK N   1      -5.030   0.405  -3.300  0.00  0.00     0.272 C 
HETATM   25  O   UNK N   1      -5.388   1.069  -4.262  0.00  0.00    -0.264 OA
BRANCH  24  26
HETATM   26  O   UNK N   1      -5.788  -0.645  -2.879  0.00  0.00    -0.284 OA
BRANCH  26  27
HETATM   27  C   UNK N   1      -7.084  -0.844  -3.253  0.00  0.00     0.049 C 
HETATM   28  C   UNK N   1      -7.480  -2.047  -3.719  0.00  0.00     0.001 C 
HETATM   29  C   UNK N   1      -6.542  -3.205  -3.906  0.00  0.00     0.038 C 
HETATM   30  C   UNK N   1      -8.091   0.277  -3.130  0.00  0.00     0.076 C 
ENDBRANCH  26  27
ENDBRANCH  24  26
ENDBRANCH   4  24
BRANCH   3  31
HETATM   31  O   UNK N   1      -2.697  -1.075  -4.015  0.00  0.00    -0.377 OA
HETATM   32  H   UNK N   1      -3.579  -1.454  -4.266  0.00  0.00     0.211 HD
ENDBRANCH   3  31
BRANCH   8  33
HETATM   33  C   UNK N   1      -3.935   0.806   1.406  0.00  0.00     0.223 C 
BRANCH  33  34
HETATM   34  O   UNK N   1      -4.678   1.982   1.571  0.00  0.00    -0.385 OA
HETATM   35  H   UNK N   1      -5.638   1.759   1.445  0.00  0.00     0.210 HD
ENDBRANCH  33  34
BRANCH  33  36
HETATM   36  C   UNK N   1      -4.372  -0.132   2.497  0.00  0.00     0.287 C 
HETATM   37  O   UNK N   1      -3.584  -0.463   3.373  0.00  0.00    -0.262 OA
BRANCH  36  38
HETATM   38  O   UNK N   1      -5.648  -0.598   2.496  0.00  0.00    -0.324 OA
HETATM   39  C   UNK N   1      -6.119  -1.529   3.394  0.00  0.00     0.213 C 
ENDBRANCH  36  38
ENDBRANCH  33  36
ENDBRANCH   8  33
BRANCH  15  40
HETATM   40  C   UNK N   1       2.891  -0.622   1.510  0.00  0.00    -0.004 A 
HETATM   41  C   UNK N   1       3.080   0.714   1.813  0.00  0.00     0.151 A 
HETATM   42  O   UNK N   1       3.134   0.855   3.118  0.00  0.00    -0.334 OA
HETATM   43  C   UNK N   1       2.999  -0.322   3.688  0.00  0.00     0.142 A 
HETATM   44  C   UNK N   1       2.846  -1.288   2.716  0.00  0.00     0.036 A 
ENDBRANCH  15  40
TORSDOF 9
