REMARK  14 active torsions:
REMARK  status: ('A' for Active; 'I' for Inactive)
REMARK    1  A    between atoms: C_2  and  O_3 
REMARK    2  A    between atoms: O_3  and  C_4 
REMARK    3  A    between atoms: C_4  and  C_5 
REMARK    4  A    between atoms: C_12  and  O_13 
REMARK    5  A    between atoms: C_15  and  O_16 
REMARK    6  A    between atoms: C_18  and  O_19 
REMARK    7  A    between atoms: C_21  and  C_22 
REMARK    8  A    between atoms: C_22  and  O_23 
REMARK    9  A    between atoms: O_23  and  C_24 
REMARK   10  A    between atoms: C_26  and  C_36 
REMARK   11  A    between atoms: C_27  and  O_28 
REMARK   12  A    between atoms: C_30  and  O_31 
REMARK   13  A    between atoms: C_33  and  O_34 
REMARK   14  A    between atoms: C_36  and  O_37 
ROOT
HETATM    1  O   UNK N   1       0.379   0.157  -2.383  0.00  0.00    -0.348 OA
HETATM    2  C   UNK N   1       1.565   0.591  -1.727  0.00  0.00     0.291 C 
HETATM    3  C   UNK N   1       2.635   0.915  -2.791  0.00  0.00     0.204 C 
HETATM    4  C   UNK N   1       2.083   2.011  -3.727  0.00  0.00     0.183 C 
HETATM    5  C   UNK N   1       0.711   1.591  -4.300  0.00  0.00     0.180 C 
HETATM    6  C   UNK N   1      -0.208   1.218  -3.118  0.00  0.00     0.180 C 
ENDROOT
BRANCH   6   7
HETATM    7  C   UNK N   1      -1.602   0.772  -3.582  0.00  0.00     0.205 C 
BRANCH   7   8
HETATM    8  O   UNK N   1      -2.388   0.517  -2.434  0.00  0.00    -0.356 OA
BRANCH   8   9
HETATM    9  C   UNK N   1      -3.675   0.045  -2.785  0.00  0.00     0.291 C 
HETATM   10  O   UNK N   1      -4.382   1.057  -3.492  0.00  0.00    -0.348 OA
HETATM   11  C   UNK N   1      -5.656   0.588  -3.910  0.00  0.00     0.179 C 
HETATM   12  C   UNK N   1      -6.550   0.315  -2.678  0.00  0.00     0.180 C 
HETATM   13  C   UNK N   1      -5.853  -0.740  -1.799  0.00  0.00     0.183 C 
HETATM   14  C   UNK N   1      -4.420  -0.287  -1.474  0.00  0.00     0.204 C 
BRANCH  11  15
HETATM   15  C   UNK N   1      -6.283   1.634  -4.845  0.00  0.00     0.198 C 
BRANCH  15  16
HETATM   16  O   UNK N   1      -6.481   2.856  -4.186  0.00  0.00    -0.398 OA
HETATM   17  H   UNK N   1      -5.599   3.311  -4.155  0.00  0.00     0.209 HD
ENDBRANCH  15  16
ENDBRANCH  11  15
BRANCH  12  18
HETATM   18  O   UNK N   1      -7.808  -0.155  -3.089  0.00  0.00    -0.390 OA
HETATM   19  H   UNK N   1      -8.428  -0.022  -2.325  0.00  0.00     0.210 HD
ENDBRANCH  12  18
BRANCH  13  20
HETATM   20  O   UNK N   1      -6.584  -0.992  -0.625  0.00  0.00    -0.390 OA
HETATM   21  H   UNK N   1      -6.656  -0.137  -0.126  0.00  0.00     0.210 HD
ENDBRANCH  13  20
BRANCH  14  22
HETATM   22  O   UNK N   1      -3.759  -1.309  -0.773  0.00  0.00    -0.388 OA
HETATM   23  H   UNK N   1      -2.977  -0.894  -0.325  0.00  0.00     0.210 HD
ENDBRANCH  14  22
ENDBRANCH   8   9
ENDBRANCH   7   8
ENDBRANCH   6   7
BRANCH   5  24
HETATM   24  O   UNK N   1       0.147   2.651  -5.029  0.00  0.00    -0.390 OA
HETATM   25  H   UNK N   1       0.614   2.679  -5.905  0.00  0.00     0.210 HD
ENDBRANCH   5  24
BRANCH   2  26
HETATM   26  O   UNK N   1       2.050  -0.429  -0.858  0.00  0.00    -0.354 OA
BRANCH  26  27
HETATM   27  C   UNK N   1       1.057  -0.805   0.086  0.00  0.00     0.210 C 
BRANCH  27  28
HETATM   28  C   UNK N   1       0.806   0.285   1.106  0.00  0.00    -0.029 A 
HETATM   29  C   UNK N   1       1.724   0.567   2.149  0.00  0.00    -0.054 A 
HETATM   30  C   UNK N   1       1.446   1.615   3.044  0.00  0.00     0.007 A 
HETATM   31  C   UNK N   1       2.977  -0.249   2.334  0.00  0.00     0.049 C 
HETATM   32  C   UNK N   1       0.284   2.378   2.904  0.00  0.00     0.001 A 
HETATM   33  C   UNK N   1      -0.618   2.097   1.880  0.00  0.00     0.001 A 
HETATM   34  C   UNK N   1      -0.365   1.054   0.991  0.00  0.00     0.010 A 
ENDBRANCH  27  28
ENDBRANCH  26  27
ENDBRANCH   2  26
BRANCH   4  35
HETATM   35  O   UNK N   1       2.997   2.314  -4.751  0.00  0.00    -0.390 OA
HETATM   36  H   UNK N   1       3.105   1.499  -5.307  0.00  0.00     0.210 HD
ENDBRANCH   4  35
BRANCH   3  37
HETATM   37  O   UNK N   1       3.813   1.380  -2.184  0.00  0.00    -0.388 OA
HETATM   38  H   UNK N   1       4.273   0.588  -1.802  0.00  0.00     0.210 HD
ENDBRANCH   3  37
TORSDOF 14
