REMARK  7 active torsions:
REMARK  status: ('A' for Active; 'I' for Inactive)
REMARK    1  A    between atoms: C_2  and  O_3 
REMARK    2  A    between atoms: C_2  and  C_9 
REMARK    3  A    between atoms: O_3  and  C_4 
REMARK    4  A    between atoms: C_4  and  C_5 
REMARK    5  A    between atoms: C_10  and  C_11 
REMARK    6  A    between atoms: C_13  and  O_14 
REMARK    7  A    between atoms: C_16  and  O_17 
ROOT
HETATM    1  C   UNK N   1      -1.108   1.062  -3.964  0.00  0.00    -0.033 A 
HETATM    2  C   UNK N   1      -2.436   0.874  -3.540  0.00  0.00     0.050 A 
HETATM    3  C   UNK N   1      -3.509   1.087  -4.415  0.00  0.00     0.099 A 
HETATM    4  C   UNK N   1      -3.259   1.477  -5.743  0.00  0.00     0.098 A 
HETATM    5  C   UNK N   1      -1.940   1.652  -6.178  0.00  0.00     0.040 A 
HETATM    6  C   UNK N   1      -0.871   1.452  -5.299  0.00  0.00     0.014 A 
ENDROOT
BRANCH   1   7
HETATM    7  C   UNK N   1      -0.006   0.831  -2.981  0.00  0.00     0.017 C 
HETATM    8  C   UNK N   1       1.286   1.155  -3.201  0.00  0.00     0.083 C 
BRANCH   8   9
HETATM    9  C   UNK N   1       2.337   0.883  -2.195  0.00  0.00     0.283 C 
HETATM   10  O   UNK N   1       3.473   1.288  -2.393  0.00  0.00    -0.260 OA
BRANCH   9  11
HETATM   11  O   UNK N   1       2.053   0.136  -1.095  0.00  0.00    -0.314 OA
BRANCH  11  12
HETATM   12  C   UNK N   1       2.997  -0.238  -0.159  0.00  0.00     0.212 C 
BRANCH  12  13
HETATM   13  C   UNK N   1       2.373  -1.238   0.794  0.00  0.00    -0.064 C 
HETATM   14  C   UNK N   1       2.254  -1.057   2.135  0.00  0.00    -0.026 C 
HETATM   15  C   UNK N   1       2.696   0.150   2.920  0.00  0.00     0.036 C 
HETATM   16  C   UNK N   1       1.860  -2.521   0.184  0.00  0.00     0.045 C 
ENDBRANCH  12  13
ENDBRANCH  11  12
ENDBRANCH   9  11
ENDBRANCH   8   9
ENDBRANCH   1   7
BRANCH   3  17
HETATM   17  O   UNK N   1      -4.770   0.918  -3.964  0.00  0.00    -0.358 OA
HETATM   18  H   UNK N   1      -5.546   1.074  -4.523  0.00  0.00     0.218 HD
ENDBRANCH   3  17
BRANCH   4  19
HETATM   19  O   UNK N   1      -4.289   1.680  -6.593  0.00  0.00    -0.358 OA
HETATM   20  H   UNK N   1      -4.146   1.951  -7.512  0.00  0.00     0.218 HD
ENDBRANCH   4  19
TORSDOF 7
