REMARK  5 active torsions:
REMARK  status: ('A' for Active; 'I' for Inactive)
REMARK    1  A    between atoms: C_2  and  C_3 
REMARK    2  A    between atoms: C_3  and  O_4 
REMARK    3  A    between atoms: C_13  and  O_14 
REMARK    4  A    between atoms: C_30  and  C_31 
REMARK    5  A    between atoms: C_31  and  O_32 
ROOT
HETATM    1  C   UNK N   1       3.005   0.475  -0.666  0.00  0.00     0.093 C 
HETATM    2  C   UNK N   1       1.510   0.803  -1.063  0.00  0.00     0.032 C 
HETATM    3  C   UNK N   1       1.246  -0.052  -2.387  0.00  0.00    -0.030 C 
HETATM    4  C   UNK N   1      -0.181  -0.842  -2.399  0.00  0.00    -0.032 C 
HETATM    5  C   UNK N   1      -1.266   0.139  -1.840  0.00  0.00    -0.001 C 
HETATM    6  C   UNK N   1      -2.740  -0.372  -1.986  0.00  0.00    -0.005 C 
HETATM    7  C   UNK N   1      -3.054  -0.771  -3.466  0.00  0.00     0.000 C 
HETATM    8  C   UNK N   1      -4.551  -1.246  -3.647  0.00  0.00    -0.018 C 
HETATM    9  C   UNK N   1      -5.501  -0.122  -3.117  0.00  0.00     0.126 C 
HETATM   10  C   UNK N   1      -5.193   0.238  -1.654  0.00  0.00     0.033 C 
HETATM   11  C   UNK N   1      -3.745   0.711  -1.514  0.00  0.00     0.008 C 
HETATM   12  C   UNK N   1      -4.839  -2.581  -2.904  0.00  0.00     0.018 C 
HETATM   13  C   UNK N   1      -4.878  -1.484  -5.143  0.00  0.00     0.018 C 
HETATM   14  C   UNK N   1      -2.011  -1.796  -3.982  0.00  0.00     0.007 C 
HETATM   15  C   UNK N   1      -0.593  -1.220  -3.863  0.00  0.00     0.011 C 
HETATM   16  C   UNK N   1      -0.968   0.591  -0.385  0.00  0.00     0.006 C 
HETATM   17  C   UNK N   1       0.498   0.497   0.045  0.00  0.00     0.009 C 
HETATM   18  C   UNK N   1      -0.153  -2.196  -1.597  0.00  0.00     0.016 C 
HETATM   19  C   UNK N   1       2.475  -1.005  -2.484  0.00  0.00     0.013 C 
HETATM   20  C   UNK N   1       3.081  -1.009  -1.086  0.00  0.00     0.042 C 
HETATM   21  C   UNK N   1       1.369   0.950  -3.585  0.00  0.00     0.016 C 
ENDROOT
BRANCH   1  22
HETATM   22  C   UNK N   1       3.543   0.701   0.824  0.00  0.00     0.089 C 
HETATM   23  O   UNK N   1       4.919   0.348   0.831  0.00  0.00    -0.369 OA
HETATM   24  C   UNK N   1       5.639   1.446   1.357  0.00  0.00     0.156 C 
HETATM   25  C   UNK N   1       4.847   2.683   0.959  0.00  0.00     0.038 C 
HETATM   26  C   UNK N   1       3.463   2.185   1.264  0.00  0.00     0.043 C 
HETATM   27  C   UNK N   1       2.896  -0.186   1.926  0.00  0.00     0.049 C 
BRANCH  24  28
HETATM   28  C   UNK N   1       7.112   1.429   0.863  0.00  0.00     0.076 C 
HETATM   29  C   UNK N   1       7.897   2.602   1.474  0.00  0.00     0.048 C 
HETATM   30  C   UNK N   1       7.794   0.113   1.295  0.00  0.00     0.048 C 
BRANCH  28  31
HETATM   31  O   UNK N   1       7.165   1.552  -0.540  0.00  0.00    -0.388 OA
HETATM   32  H   UNK N   1       6.717   0.759  -0.937  0.00  0.00     0.210 HD
ENDBRANCH  28  31
ENDBRANCH  24  28
ENDBRANCH   1  22
BRANCH   1  33
HETATM   33  O   UNK N   1       3.866   1.182  -1.538  0.00  0.00    -0.386 OA
HETATM   34  H   UNK N   1       3.549   2.120  -1.603  0.00  0.00     0.210 HD
ENDBRANCH   1  33
BRANCH   9  35
HETATM   35  O   UNK N   1      -5.369   1.032  -3.914  0.00  0.00    -0.395 OA
HETATM   36  H   UNK N   1      -6.147   1.615  -3.714  0.00  0.00     0.210 HD
ENDBRANCH   9  35
TORSDOF 5
