REMARK  8 active torsions:
REMARK  status: ('A' for Active; 'I' for Inactive)
REMARK    1  A    between atoms: C_3  and  O_4 
REMARK    2  A    between atoms: C_12  and  O_13 
REMARK    3  A    between atoms: C_15  and  C_16 
REMARK    4  A    between atoms: C_16  and  C_17 
REMARK    5  A    between atoms: C_17  and  C_18 
REMARK    6  A    between atoms: C_19  and  C_33 
REMARK    7  A    between atoms: C_23  and  O_24 
REMARK    8  A    between atoms: C_33  and  O_34 
ROOT
HETATM    1  C   UNK N   1      -2.178  -0.833  -1.329  0.00  0.00     0.009 C 
ENDROOT
BRANCH   1   2
HETATM    2  C   UNK N   1      -3.699  -0.744  -0.921  0.00  0.00     0.030 C 
HETATM    3  C   UNK N   1      -4.376   0.709  -1.000  0.00  0.00    -0.011 C 
HETATM    4  C   UNK N   1      -4.187   1.280  -2.451  0.00  0.00     0.015 C 
HETATM    5  C   UNK N   1      -5.896   0.584  -0.665  0.00  0.00     0.131 C 
HETATM    6  C   UNK N   1      -3.786   1.769  -0.017  0.00  0.00     0.018 C 
HETATM    7  C   UNK N   1      -5.263   2.262  -2.986  0.00  0.00     0.035 C 
HETATM    8  C   UNK N   1      -6.503   1.527  -3.576  0.00  0.00     0.152 C 
HETATM    9  C   UNK N   1      -7.400   0.778  -2.539  0.00  0.00     0.080 C 
HETATM   10  O   UNK N   1      -6.612  -0.076  -1.704  0.00  0.00    -0.372 OA
HETATM   11  C   UNK N   1      -8.374  -0.161  -3.288  0.00  0.00     0.048 C 
HETATM   12  C   UNK N   1      -8.329   1.781  -1.778  0.00  0.00     0.048 C 
HETATM   13  C   UNK N   1      -6.163  -0.146   0.657  0.00  0.00     0.036 C 
HETATM   14  C   UNK N   1      -5.584  -1.554   0.611  0.00  0.00     0.040 C 
HETATM   15  C   UNK N   1      -4.053  -1.536   0.397  0.00  0.00     0.059 C 
HETATM   16  C   UNK N   1      -3.609  -3.018   0.292  0.00  0.00     0.046 C 
BRANCH   8  17
HETATM   17  O   UNK N   1      -6.056   0.622  -4.559  0.00  0.00    -0.393 OA
HETATM   18  H   UNK N   1      -5.865   1.149  -5.379  0.00  0.00     0.210 HD
ENDBRANCH   8  17
BRANCH  15  19
HETATM   19  O   UNK N   1      -3.442  -0.903   1.501  0.00  0.00    -0.390 OA
HETATM   20  H   UNK N   1      -3.198  -1.576   2.188  0.00  0.00     0.210 HD
ENDBRANCH  15  19
ENDBRANCH   1   2
BRANCH   1  21
HETATM   21  C   UNK N   1      -1.110  -0.411  -0.278  0.00  0.00     0.010 C 
BRANCH  21  22
HETATM   22  C   UNK N   1       0.352  -0.350  -0.849  0.00  0.00     0.024 C 
HETATM   23  C   UNK N   1       0.942  -1.752  -1.160  0.00  0.00    -0.056 C 
HETATM   24  C   UNK N   1       2.007  -1.900  -1.972  0.00  0.00    -0.021 C 
HETATM   25  C   UNK N   1       2.733  -0.781  -2.643  0.00  0.00     0.035 C 
HETATM   26  C   UNK N   1       3.499   0.095  -1.621  0.00  0.00     0.028 C 
HETATM   27  C   UNK N   1       4.447   1.135  -2.301  0.00  0.00     0.058 C 
HETATM   28  C   UNK N   1       2.585   1.051  -0.822  0.00  0.00     0.001 C 
HETATM   29  C   UNK N   1       3.457   2.175  -2.836  0.00  0.00     0.038 C 
HETATM   30  C   UNK N   1       5.375   0.601  -3.411  0.00  0.00     0.046 C 
HETATM   31  C   UNK N   1       2.283   2.182  -1.838  0.00  0.00     0.009 C 
HETATM   32  C   UNK N   1       1.366   0.520   0.027  0.00  0.00    -0.036 C 
HETATM   33  C   UNK N   1       1.899  -0.300   1.228  0.00  0.00     0.016 C 
HETATM   34  C   UNK N   1       0.686   1.781   0.642  0.00  0.00     0.016 C 
BRANCH  23  35
HETATM   35  C   UNK N   1       0.395  -3.030  -0.528  0.00  0.00     0.198 C 
BRANCH  35  36
HETATM   36  O   UNK N   1       0.518  -2.972   0.869  0.00  0.00    -0.397 OA
HETATM   37  H   UNK N   1      -0.381  -3.116   1.263  0.00  0.00     0.209 HD
ENDBRANCH  35  36
ENDBRANCH  23  35
BRANCH  27  38
HETATM   38  O   UNK N   1       5.252   1.757  -1.323  0.00  0.00    -0.390 OA
HETATM   39  H   UNK N   1       5.809   1.051  -0.898  0.00  0.00     0.210 HD
ENDBRANCH  27  38
ENDBRANCH  21  22
ENDBRANCH   1  21
TORSDOF 8
