REMARK  13 active torsions:
REMARK  status: ('A' for Active; 'I' for Inactive)
REMARK    1  A    between atoms: C_2  and  O_3 
REMARK    2  A    between atoms: C_2  and  C_19 
REMARK    3  A    between atoms: O_3  and  C_4 
REMARK    4  A    between atoms: C_6  and  C_16 
REMARK    5  A    between atoms: C_7  and  O_8 
REMARK    6  A    between atoms: C_10  and  O_11 
REMARK    7  A    between atoms: C_13  and  O_14 
REMARK    8  A    between atoms: C_16  and  O_17 
REMARK    9  A    between atoms: C_24  and  C_30 
REMARK   10  A    between atoms: C_25  and  O_26 
REMARK   11  A    between atoms: C_30  and  C_31 
REMARK   12  A    between atoms: C_31  and  O_32 
REMARK   13  A    between atoms: C_38  and  O_39 
ROOT
HETATM    1  C   UNK N   1      -2.117   2.711  -0.985  0.00  0.00     0.051 C 
HETATM    2  C   UNK N   1      -1.220   1.560  -1.657  0.00  0.00     0.017 C 
HETATM    3  C   UNK N   1      -0.909   0.300  -0.732  0.00  0.00    -0.009 C 
HETATM    4  C   UNK N   1       0.460   0.384   0.000  0.00  0.00    -0.042 A 
HETATM    5  C   UNK N   1       1.411   1.419  -0.256  0.00  0.00    -0.042 A 
HETATM    6  C   UNK N   1       2.621   1.487   0.510  0.00  0.00    -0.012 A 
HETATM    7  C   UNK N   1       2.877   0.481   1.474  0.00  0.00     0.072 A 
HETATM    8  C   UNK N   1       1.960  -0.548   1.677  0.00  0.00     0.037 A 
HETATM    9  C   UNK N   1       0.775  -0.596   0.961  0.00  0.00     0.011 A 
HETATM   10  C   UNK N   1       1.154   2.438  -1.343  0.00  0.00     0.040 C 
HETATM   11  C   UNK N   1       0.081   2.008  -2.330  0.00  0.00     0.011 C 
HETATM   12  C   UNK N   1      -2.058   0.184   0.305  0.00  0.00     0.046 C 
HETATM   13  C   UNK N   1      -2.080   1.402   1.267  0.00  0.00     0.120 C 
HETATM   14  C   UNK N   1      -1.850   2.756   0.544  0.00  0.00     0.051 C 
HETATM   15  C   UNK N   1      -0.897  -0.986  -1.596  0.00  0.00     0.021 C 
HETATM   16  C   UNK N   1      -1.855   4.119  -1.581  0.00  0.00     0.026 C 
ENDROOT
BRANCH   1  17
HETATM   17  C   UNK N   1      -3.591   2.454  -1.316  0.00  0.00     0.270 C 
HETATM   18  O   UNK N   1      -4.432   2.338  -0.440  0.00  0.00    -0.264 OA
BRANCH  17  19
HETATM   19  O   UNK N   1      -3.957   2.429  -2.626  0.00  0.00    -0.286 OA
BRANCH  19  20
HETATM   20  C   UNK N   1      -5.230   2.188  -3.096  0.00  0.00     0.301 C 
HETATM   21  O   UNK N   1      -5.395   0.788  -3.233  0.00  0.00    -0.348 OA
HETATM   22  C   UNK N   1      -6.714   0.475  -3.652  0.00  0.00     0.179 C 
HETATM   23  C   UNK N   1      -6.972   1.038  -5.071  0.00  0.00     0.180 C 
HETATM   24  C   UNK N   1      -6.751   2.562  -5.052  0.00  0.00     0.183 C 
HETATM   25  C   UNK N   1      -5.367   2.875  -4.470  0.00  0.00     0.205 C 
BRANCH  22  26
HETATM   26  C   UNK N   1      -6.876  -1.052  -3.630  0.00  0.00     0.198 C 
BRANCH  26  27
HETATM   27  O   UNK N   1      -6.678  -1.548  -2.333  0.00  0.00    -0.398 OA
HETATM   28  H   UNK N   1      -5.698  -1.547  -2.170  0.00  0.00     0.209 HD
ENDBRANCH  26  27
ENDBRANCH  22  26
BRANCH  23  29
HETATM   29  O   UNK N   1      -8.290   0.747  -5.461  0.00  0.00    -0.390 OA
HETATM   30  H   UNK N   1      -8.327   0.827  -6.449  0.00  0.00     0.210 HD
ENDBRANCH  23  29
BRANCH  24  31
HETATM   31  O   UNK N   1      -6.838   3.094  -6.349  0.00  0.00    -0.390 OA
HETATM   32  H   UNK N   1      -7.802   3.175  -6.568  0.00  0.00     0.210 HD
ENDBRANCH  24  31
BRANCH  25  33
HETATM   33  O   UNK N   1      -5.226   4.267  -4.345  0.00  0.00    -0.388 OA
HETATM   34  H   UNK N   1      -4.283   4.447  -4.093  0.00  0.00     0.210 HD
ENDBRANCH  25  33
ENDBRANCH  19  20
ENDBRANCH  17  19
ENDBRANCH   1  17
BRANCH  13  35
HETATM   35  O   UNK N   1      -3.240   1.424   2.068  0.00  0.00    -0.396 OA
HETATM   36  H   UNK N   1      -4.015   1.109   1.541  0.00  0.00     0.210 HD
ENDBRANCH  13  35
BRANCH   6  37
HETATM   37  C   UNK N   1       3.647   2.619   0.292  0.00  0.00     0.041 C 
HETATM   38  C   UNK N   1       3.805   3.476   1.555  0.00  0.00     0.017 C 
BRANCH  37  39
HETATM   39  C   UNK N   1       5.006   2.086  -0.208  0.00  0.00     0.173 C 
BRANCH  39  40
HETATM   40  O   UNK N   1       4.859   1.434  -1.441  0.00  0.00    -0.400 OA
HETATM   41  H   UNK N   1       4.495   0.531  -1.248  0.00  0.00     0.209 HD
ENDBRANCH  39  40
ENDBRANCH  37  39
ENDBRANCH   6  37
BRANCH   7  42
HETATM   42  O   UNK N   1       4.015   0.498   2.200  0.00  0.00    -0.360 OA
HETATM   43  H   UNK N   1       4.219  -0.185   2.855  0.00  0.00     0.217 HD
ENDBRANCH   7  42
TORSDOF 13
