REMARK  11 active torsions:
REMARK  status: ('A' for Active; 'I' for Inactive)
REMARK    1  A    between atoms: C_2  and  O_3 
REMARK    2  A    between atoms: C_2  and  C_36 
REMARK    3  A    between atoms: O_3  and  C_4 
REMARK    4  A    between atoms: C_6  and  O_7 
REMARK    5  A    between atoms: O_7  and  C_8 
REMARK    6  A    between atoms: C_12  and  O_13 
REMARK    7  A    between atoms: C_12  and  C_32 
REMARK    8  A    between atoms: C_16  and  O_17 
REMARK    9  A    between atoms: O_17  and  C_18 
REMARK   10  A    between atoms: C_18  and  C_20 
REMARK   11  A    between atoms: C_23  and  O_24 
ROOT
HETATM    1  C   UNK N   1       0.224   0.269   0.409  0.00  0.00     0.166 C 
HETATM    2  C   UNK N   1       1.737   0.453   0.042  0.00  0.00     0.022 C 
HETATM    3  C   UNK N   1       2.140  -0.531  -1.122  0.00  0.00     0.146 C 
HETATM    4  C   UNK N   1       2.377   0.362  -2.338  0.00  0.00     0.072 C 
HETATM    5  C   UNK N   1       3.112   1.554  -1.723  0.00  0.00     0.070 C 
HETATM    6  C   UNK N   1       2.152   1.882  -0.517  0.00  0.00     0.064 C 
HETATM    7  C   UNK N   1       0.950   2.854  -0.841  0.00  0.00     0.144 C 
HETATM    8  C   UNK N   1       0.345   3.446   0.440  0.00  0.00     0.066 C 
HETATM    9  C   UNK N   1      -0.256   2.546   1.505  0.00  0.00    -0.083 C 
HETATM   10  C   UNK N   1      -0.289   1.192   1.493  0.00  0.00     0.009 C 
HETATM   11  C   UNK N   1      -0.853   3.260   2.694  0.00  0.00     0.043 C 
HETATM   12  C   UNK N   1       2.588   0.121   1.299  0.00  0.00     0.021 C 
ENDROOT
BRANCH   7  13
HETATM   13  O   UNK N   1      -0.083   2.295  -1.565  0.00  0.00    -0.311 OA
BRANCH  13  14
HETATM   14  C   UNK N   1      -0.663   2.783  -2.692  0.00  0.00     0.293 C 
HETATM   15  O   UNK N   1      -0.092   3.612  -3.384  0.00  0.00    -0.259 OA
BRANCH  14  16
HETATM   16  C   UNK N   1      -2.033   2.323  -3.035  0.00  0.00     0.039 A 
HETATM   17  C   UNK N   1      -2.653   2.703  -4.239  0.00  0.00     0.020 A 
HETATM   18  C   UNK N   1      -3.947   2.255  -4.536  0.00  0.00     0.037 A 
HETATM   19  C   UNK N   1      -4.636   1.433  -3.631  0.00  0.00     0.065 A 
HETATM   20  C   UNK N   1      -4.029   1.067  -2.429  0.00  0.00     0.037 A 
HETATM   21  C   UNK N   1      -2.740   1.507  -2.132  0.00  0.00     0.020 A 
BRANCH  19  22
HETATM   22  O   UNK N   1      -5.881   0.993  -3.905  0.00  0.00    -0.361 OA
HETATM   23  H   UNK N   1      -6.331   1.218  -4.732  0.00  0.00     0.217 HD
ENDBRANCH  19  22
ENDBRANCH  14  16
ENDBRANCH  13  14
ENDBRANCH   7  13
BRANCH   5  24
HETATM   24  O   UNK N   1       4.356   1.077  -1.243  0.00  0.00    -0.389 OA
HETATM   25  H   UNK N   1       4.709   1.721  -0.577  0.00  0.00     0.210 HD
ENDBRANCH   5  24
BRANCH   5  26
HETATM   26  C   UNK N   1       3.393   2.712  -2.746  0.00  0.00     0.012 C 
HETATM   27  C   UNK N   1       4.073   3.930  -2.086  0.00  0.00     0.012 C 
HETATM   28  C   UNK N   1       4.280   2.242  -3.916  0.00  0.00     0.012 C 
ENDBRANCH   5  26
BRANCH   1  29
HETATM   29  O   UNK N   1       0.032  -1.038   0.835  0.00  0.00    -0.307 OA
BRANCH  29  30
HETATM   30  C   UNK N   1      -1.151  -1.711   0.816  0.00  0.00     0.294 C 
HETATM   31  O   UNK N   1      -2.154  -1.191   0.349  0.00  0.00    -0.259 OA
BRANCH  30  32
HETATM   32  C   UNK N   1      -1.198  -3.097   1.338  0.00  0.00     0.039 A 
HETATM   33  C   UNK N   1      -2.381  -3.856   1.266  0.00  0.00     0.017 A 
HETATM   34  C   UNK N   1      -2.409  -5.163   1.766  0.00  0.00     0.001 A 
HETATM   35  C   UNK N   1      -1.263  -5.719   2.341  0.00  0.00     0.000 A 
HETATM   36  C   UNK N   1      -0.085  -4.973   2.414  0.00  0.00     0.001 A 
HETATM   37  C   UNK N   1      -0.049  -3.669   1.913  0.00  0.00     0.017 A 
ENDBRANCH  30  32
ENDBRANCH  29  30
ENDBRANCH   1  29
BRANCH   3  38
HETATM   38  O   UNK N   1       1.201  -1.515  -1.391  0.00  0.00    -0.315 OA
BRANCH  38  39
HETATM   39  C   UNK N   1       1.442  -2.657  -2.083  0.00  0.00     0.255 C 
HETATM   40  O   UNK N   1       2.580  -2.971  -2.400  0.00  0.00    -0.266 OA
HETATM   41  C   UNK N   1       0.295  -3.551  -2.433  0.00  0.00     0.126 C 
ENDBRANCH  38  39
ENDBRANCH   3  38
TORSDOF 11
