REMARK  3 active torsions:
REMARK  status: ('A' for Active; 'I' for Inactive)
REMARK    1  A    between atoms: C_7  and  O_8 
REMARK    2  A    between atoms: C_12  and  C_13 
REMARK    3  A    between atoms: C_13  and  C_14 
ROOT
HETATM    1  O   UNK N   1       3.764   1.411  -2.091  0.00  0.00    -0.290 OA
HETATM    2  C   UNK N   1       2.900   0.753  -1.532  0.00  0.00     0.184 C 
HETATM    3  C   UNK N   1       1.537   1.339  -1.330  0.00  0.00    -0.010 C 
HETATM    4  C   UNK N   1       0.637   0.713  -0.506  0.00  0.00    -0.061 C 
HETATM    5  C   UNK N   1       1.027  -0.574   0.253  0.00  0.00    -0.017 C 
HETATM    6  C   UNK N   1       1.966  -1.410  -0.655  0.00  0.00     0.053 C 
HETATM    7  C   UNK N   1       3.234  -0.649  -1.079  0.00  0.00     0.193 C 
HETATM    8  C   UNK N   1      -0.261  -1.407   0.607  0.00  0.00     0.014 C 
HETATM    9  C   UNK N   1      -1.291  -1.317  -0.529  0.00  0.00     0.011 C 
HETATM   10  C   UNK N   1      -1.822   0.142  -0.655  0.00  0.00     0.025 C 
HETATM   11  C   UNK N   1      -0.772   1.210  -0.251  0.00  0.00     0.045 C 
HETATM   12  C   UNK N   1       1.724  -0.211   1.583  0.00  0.00     0.020 C 
HETATM   13  C   UNK N   1       1.230   2.612  -2.097  0.00  0.00     0.052 C 
ENDROOT
BRANCH  10  14
HETATM   14  C   UNK N   1      -2.401   0.402  -2.039  0.00  0.00    -0.025 C 
HETATM   15  C   UNK N   1      -1.609   0.404  -3.128  0.00  0.00     0.022 C 
BRANCH  14  16
HETATM   16  C   UNK N   1      -3.856   0.675  -2.168  0.00  0.00     0.265 C 
HETATM   17  O   UNK N   1      -4.363   0.902  -3.256  0.00  0.00    -0.302 OA
ENDBRANCH  14  16
ENDBRANCH  10  14
BRANCH   7  18
HETATM   18  O   UNK N   1       4.174  -0.608  -0.038  0.00  0.00    -0.388 OA
HETATM   19  H   UNK N   1       5.045  -0.355  -0.444  0.00  0.00     0.210 HD
ENDBRANCH   7  18
TORSDOF 3
