REMARK  7 active torsions:
REMARK  status: ('A' for Active; 'I' for Inactive)
REMARK    1  A    between atoms: C_2  and  O_3 
REMARK    2  A    between atoms: C_2  and  C_23 
REMARK    3  A    between atoms: O_3  and  C_4 
REMARK    4  A    between atoms: C_6  and  O_7 
REMARK    5  A    between atoms: C_6  and  C_9 
REMARK    6  A    between atoms: C_13  and  O_14 
REMARK    7  A    between atoms: C_26  and  O_27 
ROOT
HETATM    1  C   UNK N   1       1.670   0.909  -2.132  0.00  0.00     0.144 C 
HETATM    2  C   UNK N   1       1.987   1.840  -0.929  0.00  0.00     0.061 C 
HETATM    3  C   UNK N   1       3.301   1.540  -0.110  0.00  0.00     0.070 C 
HETATM    4  C   UNK N   1       3.693   2.928   0.477  0.00  0.00     0.071 C 
HETATM    5  C   UNK N   1       2.492   3.833   0.245  0.00  0.00     0.130 C 
HETATM    6  C   UNK N   1       1.949   3.381  -1.136  0.00  0.00    -0.006 C 
HETATM    7  C   UNK N   1       2.865   3.869  -2.307  0.00  0.00     0.039 C 
HETATM    8  C   UNK N   1       2.310   3.588  -3.681  0.00  0.00    -0.023 C 
HETATM    9  C   UNK N   1       2.133   2.353  -4.185  0.00  0.00    -0.085 C 
HETATM   10  C   UNK N   1       2.498   1.107  -3.417  0.00  0.00     0.066 C 
HETATM   11  C   UNK N   1       1.563   2.188  -5.573  0.00  0.00     0.043 C 
HETATM   12  C   UNK N   1       0.513   3.930  -1.336  0.00  0.00     0.019 C 
ENDROOT
BRANCH   1  13
HETATM   13  O   UNK N   1       0.320   0.989  -2.418  0.00  0.00    -0.311 OA
BRANCH  13  14
HETATM   14  C   UNK N   1      -0.412  -0.028  -2.943  0.00  0.00     0.293 C 
HETATM   15  O   UNK N   1       0.113  -1.101  -3.205  0.00  0.00    -0.259 OA
BRANCH  14  16
HETATM   16  C   UNK N   1      -1.855   0.170  -3.184  0.00  0.00     0.039 A 
HETATM   17  C   UNK N   1      -2.463   1.396  -2.871  0.00  0.00     0.020 A 
HETATM   18  C   UNK N   1      -3.825   1.589  -3.104  0.00  0.00     0.038 A 
HETATM   19  C   UNK N   1      -4.603   0.563  -3.651  0.00  0.00     0.068 A 
HETATM   20  C   UNK N   1      -3.995  -0.671  -3.961  0.00  0.00     0.038 A 
HETATM   21  C   UNK N   1      -2.633  -0.864  -3.728  0.00  0.00     0.020 A 
BRANCH  19  22
HETATM   22  O   UNK N   1      -5.923   0.794  -3.868  0.00  0.00    -0.356 OA
HETATM   23  C   UNK N   1      -6.803  -0.121  -4.407  0.00  0.00     0.210 C 
ENDBRANCH  19  22
ENDBRANCH  14  16
ENDBRANCH  13  14
ENDBRANCH   1  13
BRANCH   3  24
HETATM   24  O   UNK N   1       4.330   1.139  -0.985  0.00  0.00    -0.389 OA
HETATM   25  H   UNK N   1       5.171   1.060  -0.464  0.00  0.00     0.210 HD
ENDBRANCH   3  24
BRANCH   3  26
HETATM   26  C   UNK N   1       3.150   0.443   1.025  0.00  0.00     0.012 C 
HETATM   27  C   UNK N   1       2.104   0.763   2.113  0.00  0.00     0.012 C 
HETATM   28  C   UNK N   1       2.885  -0.975   0.489  0.00  0.00     0.012 C 
ENDBRANCH   3  26
BRANCH   5  29
HETATM   29  O   UNK N   1       2.864   5.187   0.308  0.00  0.00    -0.395 OA
HETATM   30  H   UNK N   1       2.032   5.721   0.238  0.00  0.00     0.210 HD
ENDBRANCH   5  29
TORSDOF 7
