REMARK  7 active torsions:
REMARK  status: ('A' for Active; 'I' for Inactive)
REMARK    1  A    between atoms: C_5  and  O_6 
REMARK    2  A    between atoms: O_6  and  C_7 
REMARK    3  A    between atoms: C_7  and  C_9 
REMARK    4  A    between atoms: C_12  and  O_13 
REMARK    5  A    between atoms: C_18  and  O_19 
REMARK    6  A    between atoms: C_18  and  C_21 
REMARK    7  A    between atoms: C_25  and  O_26 
ROOT
HETATM    1  O   UNK N   1       1.597  -2.300  -4.263  0.00  0.00    -0.293 OA
HETATM    2  C   UNK N   1       1.834  -2.178  -3.070  0.00  0.00     0.155 C 
HETATM    3  C   UNK N   1       1.626  -3.331  -2.164  0.00  0.00    -0.017 C 
HETATM    4  C   UNK N   1       1.236  -3.207  -0.879  0.00  0.00     0.016 C 
HETATM    5  C   UNK N   1       0.740  -1.934  -0.233  0.00  0.00     0.163 C 
HETATM    6  C   UNK N   1       1.663  -0.693  -0.224  0.00  0.00     0.065 C 
HETATM    7  C   UNK N   1       3.004  -0.788   0.583  0.00  0.00     0.070 C 
HETATM    8  C   UNK N   1       3.933   0.243  -0.132  0.00  0.00     0.071 C 
HETATM    9  C   UNK N   1       3.031   1.023  -1.094  0.00  0.00     0.130 C 
HETATM   10  C   UNK N   1       2.016  -0.037  -1.588  0.00  0.00    -0.002 C 
HETATM   11  C   UNK N   1       2.666  -1.008  -2.609  0.00  0.00     0.095 C 
HETATM   12  C   UNK N   1       0.820   0.665  -2.277  0.00  0.00     0.019 C 
HETATM   13  C   UNK N   1       1.917  -4.703  -2.719  0.00  0.00     0.052 C 
ENDROOT
BRANCH   5  14
HETATM   14  O   UNK N   1      -0.476  -1.596  -0.798  0.00  0.00    -0.308 OA
BRANCH  14  15
HETATM   15  C   UNK N   1      -1.552  -1.153  -0.086  0.00  0.00     0.294 C 
HETATM   16  O   UNK N   1      -1.471  -0.987   1.123  0.00  0.00    -0.259 OA
BRANCH  15  17
HETATM   17  C   UNK N   1      -2.816  -0.847  -0.790  0.00  0.00     0.039 A 
HETATM   18  C   UNK N   1      -3.932  -0.365  -0.080  0.00  0.00     0.020 A 
HETATM   19  C   UNK N   1      -5.122  -0.078  -0.752  0.00  0.00     0.037 A 
HETATM   20  C   UNK N   1      -5.212  -0.268  -2.139  0.00  0.00     0.065 A 
HETATM   21  C   UNK N   1      -4.105  -0.748  -2.846  0.00  0.00     0.037 A 
HETATM   22  C   UNK N   1      -2.914  -1.036  -2.178  0.00  0.00     0.020 A 
BRANCH  20  23
HETATM   23  O   UNK N   1      -6.355   0.006  -2.798  0.00  0.00    -0.361 OA
HETATM   24  H   UNK N   1      -7.139   0.338  -2.338  0.00  0.00     0.217 HD
ENDBRANCH  20  23
ENDBRANCH  15  17
ENDBRANCH  14  15
ENDBRANCH   5  14
BRANCH   7  25
HETATM   25  O   UNK N   1       3.559  -2.073   0.403  0.00  0.00    -0.389 OA
HETATM   26  H   UNK N   1       4.451  -2.088   0.840  0.00  0.00     0.210 HD
ENDBRANCH   7  25
BRANCH   7  27
HETATM   27  C   UNK N   1       2.881  -0.489   2.133  0.00  0.00     0.012 C 
HETATM   28  C   UNK N   1       2.327   0.909   2.484  0.00  0.00     0.012 C 
HETATM   29  C   UNK N   1       2.081  -1.544   2.915  0.00  0.00     0.012 C 
ENDBRANCH   7  27
BRANCH   9  30
HETATM   30  O   UNK N   1       3.742   1.630  -2.144  0.00  0.00    -0.395 OA
HETATM   31  H   UNK N   1       4.437   2.203  -1.728  0.00  0.00     0.210 HD
ENDBRANCH   9  30
TORSDOF 7
