REMARK  5 active torsions:
REMARK  status: ('A' for Active; 'I' for Inactive)
REMARK    1  A    between atoms: C_7  and  C_8 
REMARK    2  A    between atoms: C_10  and  O_11 
REMARK    3  A    between atoms: C_13  and  O_14 
REMARK    4  A    between atoms: C_19  and  O_20 
REMARK    5  A    between atoms: C_23  and  O_24 
ROOT
HETATM    1  O   UNK N   1      -0.666   2.450  -0.198  0.00  0.00    -0.286 OA
HETATM    2  C   UNK N   1      -0.983   1.428  -0.781  0.00  0.00     0.200 A 
HETATM    3  C   UNK N   1      -2.221   1.329  -1.465  0.00  0.00     0.082 A 
HETATM    4  C   UNK N   1      -2.521   0.110  -2.121  0.00  0.00     0.094 A 
HETATM    5  O   UNK N   1      -1.661  -0.904  -2.093  0.00  0.00    -0.321 OA
HETATM    6  C   UNK N   1      -0.497  -0.838  -1.459  0.00  0.00     0.159 A 
HETATM    7  C   UNK N   1      -0.113   0.321  -0.781  0.00  0.00     0.048 A 
HETATM    8  C   UNK N   1      -3.730  -0.046  -2.807  0.00  0.00     0.074 A 
HETATM    9  C   UNK N   1      -4.657   0.996  -2.853  0.00  0.00     0.071 A 
HETATM   10  C   UNK N   1      -4.375   2.207  -2.212  0.00  0.00     0.074 A 
HETATM   11  C   UNK N   1      -3.167   2.388  -1.518  0.00  0.00     0.085 A 
ENDROOT
BRANCH   7  12
HETATM   12  C   UNK N   1       1.194   0.340  -0.087  0.00  0.00    -0.017 A 
HETATM   13  C   UNK N   1       2.351   0.731  -0.775  0.00  0.00     0.052 A 
HETATM   14  C   UNK N   1       3.600   0.692  -0.139  0.00  0.00     0.102 A 
HETATM   15  C   UNK N   1       3.697   0.269   1.195  0.00  0.00     0.099 A 
HETATM   16  C   UNK N   1       2.539  -0.123   1.884  0.00  0.00     0.040 A 
HETATM   17  C   UNK N   1       1.295  -0.093   1.244  0.00  0.00     0.015 A 
BRANCH  14  18
HETATM   18  O   UNK N   1       4.710   1.038  -0.824  0.00  0.00    -0.353 OA
HETATM   19  C   UNK N   1       5.356   0.119  -1.622  0.00  0.00     0.210 C 
ENDBRANCH  14  18
BRANCH  15  20
HETATM   20  O   UNK N   1       4.902   0.226   1.802  0.00  0.00    -0.358 OA
HETATM   21  H   UNK N   1       5.002  -0.077   2.716  0.00  0.00     0.218 HD
ENDBRANCH  15  20
ENDBRANCH   7  12
BRANCH  11  22
HETATM   22  O   UNK N   1      -2.925   3.568  -0.908  0.00  0.00    -0.360 OA
HETATM   23  H   UNK N   1      -3.566   4.294  -0.938  0.00  0.00     0.217 HD
ENDBRANCH  11  22
BRANCH   9  24
HETATM   24  O   UNK N   1      -5.819   0.825  -3.517  0.00  0.00    -0.361 OA
HETATM   25  H   UNK N   1      -6.485   1.526  -3.564  0.00  0.00     0.217 HD
ENDBRANCH   9  24
TORSDOF 5
