REMARK  13 active torsions:
REMARK  status: ('A' for Active; 'I' for Inactive)
REMARK    1  A    between atoms: C_2  and  O_3 
REMARK    2  A    between atoms: O_3  and  C_4 
REMARK    3  A    between atoms: C_12  and  O_13 
REMARK    4  A    between atoms: C_15  and  O_16 
REMARK    5  A    between atoms: C_18  and  O_19 
REMARK    6  A    between atoms: C_21  and  C_22 
REMARK    7  A    between atoms: C_22  and  O_23 
REMARK    8  A    between atoms: O_23  and  C_24 
REMARK    9  A    between atoms: C_26  and  C_36 
REMARK   10  A    between atoms: C_27  and  O_28 
REMARK   11  A    between atoms: C_30  and  O_31 
REMARK   12  A    between atoms: C_33  and  O_34 
REMARK   13  A    between atoms: C_36  and  O_37 
ROOT
HETATM    1  O   UNK N   1       1.469   0.016  -1.773  0.00  0.00    -0.348 OA
HETATM    2  C   UNK N   1       2.630   0.703  -1.332  0.00  0.00     0.298 C 
HETATM    3  C   UNK N   1       3.687   0.697  -2.456  0.00  0.00     0.205 C 
HETATM    4  C   UNK N   1       3.083   1.370  -3.703  0.00  0.00     0.183 C 
HETATM    5  C   UNK N   1       1.723   0.731  -4.071  0.00  0.00     0.180 C 
HETATM    6  C   UNK N   1       0.828   0.736  -2.812  0.00  0.00     0.180 C 
ENDROOT
BRANCH   6   7
HETATM    7  C   UNK N   1      -0.543   0.092  -3.065  0.00  0.00     0.205 C 
BRANCH   7   8
HETATM    8  O   UNK N   1      -1.295   0.185  -1.871  0.00  0.00    -0.356 OA
BRANCH   8   9
HETATM    9  C   UNK N   1      -2.564  -0.428  -2.000  0.00  0.00     0.291 C 
HETATM   10  O   UNK N   1      -3.326   0.252  -2.989  0.00  0.00    -0.348 OA
HETATM   11  C   UNK N   1      -4.588  -0.370  -3.178  0.00  0.00     0.179 C 
HETATM   12  C   UNK N   1      -5.451  -0.218  -1.905  0.00  0.00     0.180 C 
HETATM   13  C   UNK N   1      -4.700  -0.866  -0.727  0.00  0.00     0.183 C 
HETATM   14  C   UNK N   1      -3.271  -0.307  -0.629  0.00  0.00     0.204 C 
BRANCH  11  15
HETATM   15  C   UNK N   1      -5.270   0.272  -4.398  0.00  0.00     0.198 C 
BRANCH  15  16
HETATM   16  O   UNK N   1      -5.504   1.640  -4.193  0.00  0.00    -0.398 OA
HETATM   17  H   UNK N   1      -4.620   2.091  -4.222  0.00  0.00     0.209 HD
ENDBRANCH  15  16
ENDBRANCH  11  15
BRANCH  12  18
HETATM   18  O   UNK N   1      -6.694  -0.846  -2.091  0.00  0.00    -0.390 OA
HETATM   19  H   UNK N   1      -7.270  -0.584  -1.326  0.00  0.00     0.210 HD
ENDBRANCH  12  18
BRANCH  13  20
HETATM   20  O   UNK N   1      -5.393  -0.680   0.482  0.00  0.00    -0.390 OA
HETATM   21  H   UNK N   1      -5.480   0.300   0.631  0.00  0.00     0.210 HD
ENDBRANCH  13  20
BRANCH  14  22
HETATM   22  O   UNK N   1      -2.573  -1.020   0.360  0.00  0.00    -0.388 OA
HETATM   23  H   UNK N   1      -1.702  -0.566   0.492  0.00  0.00     0.210 HD
ENDBRANCH  14  22
ENDBRANCH   8   9
ENDBRANCH   7   8
ENDBRANCH   6   7
BRANCH   5  24
HETATM   24  O   UNK N   1       1.103   1.465  -5.096  0.00  0.00    -0.390 OA
HETATM   25  H   UNK N   1       1.647   1.338  -5.916  0.00  0.00     0.210 HD
ENDBRANCH   5  24
BRANCH   2  26
HETATM   26  O   UNK N   1       3.137   0.054  -0.223  0.00  0.00    -0.318 OA
BRANCH  26  27
HETATM   27  C   UNK N   1       2.471  -0.129   0.955  0.00  0.00     0.072 A 
HETATM   28  C   UNK N   1       3.098  -0.861   1.966  0.00  0.00     0.044 A 
HETATM   29  C   UNK N   1       2.450  -1.089   3.196  0.00  0.00    -0.053 A 
HETATM   30  C   UNK N   1       1.151  -0.571   3.403  0.00  0.00    -0.056 A 
HETATM   31  C   UNK N   1       3.153  -1.882   4.267  0.00  0.00     0.049 C 
HETATM   32  C   UNK N   1       0.418  -0.799   4.700  0.00  0.00     0.049 C 
HETATM   33  C   UNK N   1       0.530   0.166   2.387  0.00  0.00     0.010 A 
HETATM   34  C   UNK N   1       1.182   0.389   1.172  0.00  0.00     0.037 A 
ENDBRANCH  26  27
ENDBRANCH   2  26
BRANCH   4  35
HETATM   35  O   UNK N   1       3.981   1.320  -4.784  0.00  0.00    -0.390 OA
HETATM   36  H   UNK N   1       4.122   0.363  -5.011  0.00  0.00     0.210 HD
ENDBRANCH   4  35
BRANCH   3  37
HETATM   37  O   UNK N   1       4.837   1.404  -2.066  0.00  0.00    -0.388 OA
HETATM   38  H   UNK N   1       5.263   0.892  -1.331  0.00  0.00     0.210 HD
ENDBRANCH   3  37
TORSDOF 13
