REMARK  11 active torsions:
REMARK  status: ('A' for Active; 'I' for Inactive)
REMARK    1  A    between atoms: C_2  and  O_3 
REMARK    2  A    between atoms: O_3  and  C_4 
REMARK    3  A    between atoms: C_5  and  O_6 
REMARK    4  A    between atoms: C_10  and  C_12 
REMARK    5  A    between atoms: C_12  and  C_13 
REMARK    6  A    between atoms: C_13  and  O_14 
REMARK    7  A    between atoms: C_16  and  O_17 
REMARK    8  A    between atoms: C_19  and  O_20 
REMARK    9  A    between atoms: C_22  and  O_23 
REMARK   10  A    between atoms: C_25  and  C_26 
REMARK   11  A    between atoms: C_26  and  O_27 
ROOT
HETATM    1  O   UNK N   1      -2.168   0.917  -1.112  0.00  0.00    -0.348 OA
HETATM    2  C   UNK N   1      -2.533  -0.301  -0.486  0.00  0.00     0.298 C 
HETATM    3  C   UNK N   1      -4.069  -0.388  -0.405  0.00  0.00     0.205 C 
HETATM    4  C   UNK N   1      -4.671  -0.309  -1.823  0.00  0.00     0.183 C 
HETATM    5  C   UNK N   1      -4.109   0.925  -2.564  0.00  0.00     0.180 C 
HETATM    6  C   UNK N   1      -2.565   0.916  -2.470  0.00  0.00     0.179 C 
ENDROOT
BRANCH   2   7
HETATM    7  O   UNK N   1      -1.997  -0.321   0.790  0.00  0.00    -0.315 OA
BRANCH   7   8
HETATM    8  C   UNK N   1      -0.665  -0.245   1.079  0.00  0.00     0.105 A 
HETATM    9  C   UNK N   1      -0.257  -0.209   2.427  0.00  0.00     0.099 A 
HETATM   10  C   UNK N   1       1.105  -0.120   2.741  0.00  0.00     0.040 A 
HETATM   11  C   UNK N   1       2.065  -0.067   1.728  0.00  0.00     0.010 A 
HETATM   12  C   UNK N   1       1.674  -0.105   0.383  0.00  0.00    -0.053 A 
HETATM   13  C   UNK N   1       0.314  -0.195   0.062  0.00  0.00     0.047 A 
BRANCH   9  14
HETATM   14  O   UNK N   1      -1.159  -0.255   3.431  0.00  0.00    -0.358 OA
HETATM   15  H   UNK N   1      -2.111  -0.315   3.270  0.00  0.00     0.218 HD
ENDBRANCH   9  14
BRANCH  12  16
HETATM   16  C   UNK N   1       2.704  -0.057  -0.716  0.00  0.00     0.064 C 
BRANCH  16  17
HETATM   17  C   UNK N   1       2.989   1.381  -1.147  0.00  0.00     0.168 C 
BRANCH  17  18
HETATM   18  O   UNK N   1       3.940   1.371  -2.175  0.00  0.00    -0.401 OA
HETATM   19  H   UNK N   1       4.100   2.321  -2.414  0.00  0.00     0.209 HD
ENDBRANCH  17  18
ENDBRANCH  16  17
ENDBRANCH  12  16
ENDBRANCH   7   8
ENDBRANCH   2   7
BRANCH   3  20
HETATM   20  O   UNK N   1      -4.480  -1.562   0.251  0.00  0.00    -0.388 OA
HETATM   21  H   UNK N   1      -4.128  -2.335  -0.266  0.00  0.00     0.210 HD
ENDBRANCH   3  20
BRANCH   6  22
HETATM   22  C   UNK N   1      -1.938   2.143  -3.145  0.00  0.00     0.198 C 
BRANCH  22  23
HETATM   23  O   UNK N   1      -2.375   3.317  -2.516  0.00  0.00    -0.398 OA
HETATM   24  H   UNK N   1      -1.910   4.065  -2.973  0.00  0.00     0.209 HD
ENDBRANCH  22  23
ENDBRANCH   6  22
BRANCH   4  25
HETATM   25  O   UNK N   1      -6.070  -0.236  -1.721  0.00  0.00    -0.390 OA
HETATM   26  H   UNK N   1      -6.443  -0.404  -2.624  0.00  0.00     0.210 HD
ENDBRANCH   4  25
BRANCH   5  27
HETATM   27  O   UNK N   1      -4.493   0.896  -3.916  0.00  0.00    -0.390 OA
HETATM   28  H   UNK N   1      -5.429   1.220  -3.963  0.00  0.00     0.210 HD
ENDBRANCH   5  27
TORSDOF 11
