REMARK  7 active torsions:
REMARK  status: ('A' for Active; 'I' for Inactive)
REMARK    1  A    between atoms: C_2  and  O_3 
REMARK    2  A    between atoms: C_2  and  C_5 
REMARK    3  A    between atoms: C_5  and  C_6 
REMARK    4  A    between atoms: C_6  and  C_7 
REMARK    5  A    between atoms: C_7  and  C_8 
REMARK    6  A    between atoms: C_8  and  C_9 
REMARK    7  A    between atoms: C_13  and  O_14 
ROOT
HETATM    1  C   UNK N   1       0.014   1.241   0.610  0.00  0.00     0.022 C 
HETATM    2  C   UNK N   1       1.508   0.690   0.582  0.00  0.00    -0.032 C 
HETATM    3  C   UNK N   1       2.473   1.941   0.617  0.00  0.00     0.008 C 
HETATM    4  C   UNK N   1       4.010   1.676   0.289  0.00  0.00    -0.017 C 
HETATM    5  C   UNK N   1       4.127   0.784  -0.999  0.00  0.00     0.126 C 
HETATM    6  C   UNK N   1       3.267  -0.496  -0.899  0.00  0.00     0.033 C 
HETATM    7  C   UNK N   1       1.780  -0.145  -0.712  0.00  0.00     0.012 C 
HETATM    8  C   UNK N   1       4.730   3.027   0.028  0.00  0.00     0.018 C 
HETATM    9  C   UNK N   1       4.809   0.999   1.440  0.00  0.00     0.018 C 
HETATM   10  C   UNK N   1       2.244   2.780   1.901  0.00  0.00     0.033 C 
HETATM   11  C   UNK N   1       0.818   2.826   2.397  0.00  0.00    -0.023 C 
HETATM   12  C   UNK N   1      -0.199   2.120   1.850  0.00  0.00    -0.083 C 
HETATM   13  C   UNK N   1      -1.532   2.094   2.578  0.00  0.00     0.043 C 
HETATM   14  C   UNK N   1       1.658  -0.265   1.809  0.00  0.00     0.016 C 
ENDROOT
BRANCH   1  15
HETATM   15  C   UNK N   1      -0.454   1.969  -0.705  0.00  0.00     0.010 C 
BRANCH  15  16
HETATM   16  C   UNK N   1      -1.901   2.478  -0.675  0.00  0.00     0.005 C 
BRANCH  16  17
HETATM   17  C   UNK N   1      -2.383   3.120  -1.998  0.00  0.00    -0.009 C 
HETATM   18  C   UNK N   1      -3.795   3.695  -1.791  0.00  0.00     0.010 C 
BRANCH  17  19
HETATM   19  C   UNK N   1      -2.368   2.188  -3.237  0.00  0.00     0.115 C 
BRANCH  19  20
HETATM   20  C   UNK N   1      -3.163   0.919  -3.076  0.00  0.00     0.258 C 
HETATM   21  O   UNK N   1      -4.200   0.769  -3.705  0.00  0.00    -0.265 OA
BRANCH  20  22
HETATM   22  O   UNK N   1      -2.669  -0.086  -2.306  0.00  0.00    -0.326 OA
HETATM   23  C   UNK N   1      -3.310  -1.295  -2.134  0.00  0.00     0.213 C 
ENDBRANCH  20  22
ENDBRANCH  19  20
ENDBRANCH  17  19
ENDBRANCH  16  17
ENDBRANCH  15  16
ENDBRANCH   1  15
BRANCH   5  24
HETATM   24  O   UNK N   1       3.829   1.480  -2.191  0.00  0.00    -0.395 OA
HETATM   25  H   UNK N   1       2.977   1.970  -2.094  0.00  0.00     0.210 HD
ENDBRANCH   5  24
TORSDOF 7
