REMARK  7 active torsions:
REMARK  status: ('A' for Active; 'I' for Inactive)
REMARK    1  A    between atoms: C_2  and  O_3 
REMARK    2  A    between atoms: C_2  and  C_5 
REMARK    3  A    between atoms: C_5  and  C_6 
REMARK    4  A    between atoms: C_6  and  C_7 
REMARK    5  A    between atoms: C_7  and  C_8 
REMARK    6  A    between atoms: C_8  and  C_9 
REMARK    7  A    between atoms: C_13  and  O_14 
ROOT
HETATM    1  C   UNK N   1       0.608  -0.755  -0.267  0.00  0.00     0.022 C 
HETATM    2  C   UNK N   1       2.128  -0.969  -0.701  0.00  0.00    -0.032 C 
HETATM    3  C   UNK N   1       2.990   0.133   0.030  0.00  0.00     0.008 C 
HETATM    4  C   UNK N   1       4.490   0.321  -0.461  0.00  0.00    -0.017 C 
HETATM    5  C   UNK N   1       4.502   0.424  -2.021  0.00  0.00     0.126 C 
HETATM    6  C   UNK N   1       3.788  -0.780  -2.678  0.00  0.00     0.033 C 
HETATM    7  C   UNK N   1       2.310  -0.820  -2.246  0.00  0.00     0.012 C 
HETATM    8  C   UNK N   1       5.475  -0.795  -0.008  0.00  0.00     0.018 C 
HETATM    9  C   UNK N   1       5.065   1.640   0.126  0.00  0.00     0.018 C 
HETATM   10  C   UNK N   1       2.851   0.010   1.570  0.00  0.00     0.033 C 
HETATM   11  C   UNK N   1       1.498  -0.438   2.066  0.00  0.00    -0.023 C 
HETATM   12  C   UNK N   1       0.477  -0.806   1.261  0.00  0.00    -0.083 C 
HETATM   13  C   UNK N   1      -0.768  -1.403   1.899  0.00  0.00     0.043 C 
HETATM   14  C   UNK N   1       2.506  -2.433  -0.312  0.00  0.00     0.016 C 
ENDROOT
BRANCH   1  15
HETATM   15  C   UNK N   1      -0.074   0.523  -0.868  0.00  0.00     0.010 C 
BRANCH  15  16
HETATM   16  C   UNK N   1      -1.538   0.734  -0.461  0.00  0.00     0.005 C 
BRANCH  16  17
HETATM   17  C   UNK N   1      -2.201   1.967  -1.118  0.00  0.00    -0.009 C 
HETATM   18  C   UNK N   1      -3.609   2.159  -0.529  0.00  0.00     0.010 C 
BRANCH  17  19
HETATM   19  C   UNK N   1      -2.256   1.905  -2.663  0.00  0.00     0.114 C 
BRANCH  19  20
HETATM   20  C   UNK N   1      -3.039   0.726  -3.188  0.00  0.00     0.139 C 
HETATM   21  O   UNK N   1      -2.477  -0.326  -3.417  0.00  0.00    -0.650 OA
BRANCH  20  22
HETATM   22  O   UNK N   1      -4.368   0.839  -3.415  0.00  0.00    -0.776 OA
HETATM   23  H   UNK N   1      -4.841   1.662  -3.238  0.00  0.00     0.167 HD
ENDBRANCH  20  22
ENDBRANCH  19  20
ENDBRANCH  17  19
ENDBRANCH  16  17
ENDBRANCH  15  16
ENDBRANCH   1  15
BRANCH   5  24
HETATM   24  O   UNK N   1       3.872   1.615  -2.429  0.00  0.00    -0.395 OA
HETATM   25  H   UNK N   1       4.101   1.753  -3.386  0.00  0.00     0.210 HD
ENDBRANCH   5  24
TORSDOF 7
