REMARK  12 active torsions:
REMARK  status: ('A' for Active; 'I' for Inactive)
REMARK    1  A    between atoms: C_2  and  O_3 
REMARK    2  A    between atoms: C_2  and  C_6 
REMARK    3  A    between atoms: O_3  and  C_4 
REMARK    4  A    between atoms: C_7  and  O_8 
REMARK    5  A    between atoms: C_10  and  O_11 
REMARK    6  A    between atoms: C_13  and  O_14 
REMARK    7  A    between atoms: C_16  and  C_18 
REMARK    8  A    between atoms: C_19  and  O_20 
REMARK    9  A    between atoms: C_22  and  O_23 
REMARK   10  A    between atoms: C_25  and  O_26 
REMARK   11  A    between atoms: C_28  and  C_30 
REMARK   12  A    between atoms: C_30  and  O_32 
ROOT
HETATM    1  C   UNK N   1       1.993   0.879  -1.450  0.00  0.00     0.076 A 
HETATM    2  C   UNK N   1       2.644   1.414  -2.606  0.00  0.00     0.118 A 
HETATM    3  C   UNK N   1       1.885   1.698  -3.759  0.00  0.00     0.134 A 
HETATM    4  C   UNK N   1       0.498   1.463  -3.782  0.00  0.00     0.113 A 
HETATM    5  C   UNK N   1      -0.143   0.935  -2.652  0.00  0.00     0.014 A 
HETATM    6  C   UNK N   1       0.602   0.651  -1.504  0.00  0.00     0.035 A 
ENDROOT
BRANCH   5   7
HETATM    7  C   UNK N   1      -1.607   0.688  -2.649  0.00  0.00     0.014 A 
HETATM    8  C   UNK N   1      -2.129  -0.559  -3.024  0.00  0.00     0.113 A 
HETATM    9  C   UNK N   1      -3.519  -0.773  -3.007  0.00  0.00     0.134 A 
HETATM   10  C   UNK N   1      -4.401   0.253  -2.608  0.00  0.00     0.118 A 
HETATM   11  C   UNK N   1      -3.872   1.524  -2.219  0.00  0.00     0.076 A 
HETATM   12  C   UNK N   1      -2.474   1.711  -2.250  0.00  0.00     0.035 A 
BRANCH   8  13
HETATM   13  O   UNK N   1      -1.287  -1.548  -3.398  0.00  0.00    -0.357 OA
HETATM   14  H   UNK N   1      -1.603  -2.426  -3.655  0.00  0.00     0.218 HD
ENDBRANCH   8  13
BRANCH   9  15
HETATM   15  O   UNK N   1      -4.005  -1.981  -3.377  0.00  0.00    -0.356 OA
HETATM   16  H   UNK N   1      -4.952  -2.184  -3.389  0.00  0.00     0.218 HD
ENDBRANCH   9  15
BRANCH  10  17
HETATM   17  O   UNK N   1      -5.727  -0.032  -2.613  0.00  0.00    -0.357 OA
HETATM   18  H   UNK N   1      -6.446   0.551  -2.360  0.00  0.00     0.218 HD
ENDBRANCH  10  17
BRANCH  11  19
HETATM   19  C   UNK N   1      -4.714   2.683  -1.773  0.00  0.00     0.295 C 
HETATM   20  O   UNK N   1      -5.931   2.610  -1.742  0.00  0.00    -0.259 OA
BRANCH  19  21
HETATM   21  O   UNK N   1      -4.107   3.839  -1.396  0.00  0.00    -0.322 OA
HETATM   22  C   UNK N   1      -4.807   4.954  -0.986  0.00  0.00     0.213 C 
ENDBRANCH  19  21
ENDBRANCH  11  19
ENDBRANCH   5   7
BRANCH   4  23
HETATM   23  O   UNK N   1      -0.227   1.745  -4.888  0.00  0.00    -0.357 OA
HETATM   24  H   UNK N   1       0.173   2.118  -5.686  0.00  0.00     0.218 HD
ENDBRANCH   4  23
BRANCH   3  25
HETATM   25  O   UNK N   1       2.488   2.204  -4.860  0.00  0.00    -0.356 OA
HETATM   26  H   UNK N   1       3.438   2.382  -4.902  0.00  0.00     0.218 HD
ENDBRANCH   3  25
BRANCH   1  27
HETATM   27  C   UNK N   1       2.696   0.544  -0.171  0.00  0.00     0.296 C 
HETATM   28  O   UNK N   1       3.900   0.691  -0.043  0.00  0.00    -0.259 OA
BRANCH  27  29
HETATM   29  O   UNK N   1       1.968   0.066   0.869  0.00  0.00    -0.318 OA
BRANCH  29  30
HETATM   30  C   UNK N   1       2.516  -0.277   2.085  0.00  0.00     0.174 C 
HETATM   31  C   UNK N   1       1.408  -0.766   2.998  0.00  0.00     0.034 C 
ENDBRANCH  29  30
ENDBRANCH  27  29
ENDBRANCH   1  27
BRANCH   2  32
HETATM   32  O   UNK N   1       3.974   1.672  -2.656  0.00  0.00    -0.357 OA
HETATM   33  H   UNK N   1       4.616   1.544  -1.953  0.00  0.00     0.218 HD
ENDBRANCH   2  32
TORSDOF 12
