REMARK  5 active torsions:
REMARK  status: ('A' for Active; 'I' for Inactive)
REMARK    1  A    between atoms: C_2  and  O_3 
REMARK    2  A    between atoms: O_3  and  C_4 
REMARK    3  A    between atoms: C_14  and  C_20 
REMARK    4  A    between atoms: C_20  and  O_21 
REMARK    5  A    between atoms: C_27  and  O_28 
ROOT
HETATM    1  C   UNK N   1       2.275   0.545  -0.634  0.00  0.00     0.140 C 
HETATM    2  C   UNK N   1       1.563  -0.624   0.116  0.00  0.00    -0.017 C 
HETATM    3  C   UNK N   1       0.152  -0.857  -0.566  0.00  0.00     0.004 C 
HETATM    4  C   UNK N   1      -0.778   0.404  -0.746  0.00  0.00    -0.035 C 
HETATM    5  C   UNK N   1      -1.924  -0.026  -1.773  0.00  0.00     0.005 C 
HETATM    6  C   UNK N   1      -2.655  -1.445  -1.555  0.00  0.00    -0.032 C 
HETATM    7  C   UNK N   1      -4.265  -1.283  -1.507  0.00  0.00    -0.027 C 
HETATM    8  C   UNK N   1      -4.893  -0.397  -2.669  0.00  0.00     0.061 C 
HETATM    9  C   UNK N   1      -6.216   0.176  -2.008  0.00  0.00     0.102 C 
HETATM   10  O   UNK N   1      -7.175  -0.855  -1.977  0.00  0.00    -0.338 OA
HETATM   11  C   UNK N   1      -8.372  -0.236  -2.418  0.00  0.00     0.196 C 
HETATM   12  O   UNK N   1      -8.289   1.106  -2.036  0.00  0.00    -0.338 OA
HETATM   13  C   UNK N   1      -7.061   1.320  -2.648  0.00  0.00     0.093 C 
HETATM   14  C   UNK N   1      -7.373   0.990  -4.123  0.00  0.00     0.046 C 
HETATM   15  C   UNK N   1      -8.343  -0.168  -3.950  0.00  0.00     0.075 C 
HETATM   16  C   UNK N   1      -6.623   2.785  -2.410  0.00  0.00     0.049 C 
HETATM   17  C   UNK N   1      -5.803   0.472  -0.571  0.00  0.00     0.042 C 
HETATM   18  C   UNK N   1      -4.729  -0.551  -0.202  0.00  0.00     0.013 C 
HETATM   19  C   UNK N   1      -3.835   0.587  -3.270  0.00  0.00     0.126 C 
HETATM   20  C   UNK N   1      -2.858   1.129  -2.232  0.00  0.00     0.038 C 
HETATM   21  C   UNK N   1      -4.956  -2.691  -1.511  0.00  0.00     0.016 C 
HETATM   22  C   UNK N   1      -2.124  -2.114  -0.246  0.00  0.00     0.011 C 
HETATM   23  C   UNK N   1      -0.596  -2.127  -0.057  0.00  0.00     0.007 C 
HETATM   24  C   UNK N   1      -2.250  -2.409  -2.720  0.00  0.00     0.016 C 
HETATM   25  C   UNK N   1       0.082   1.534  -1.414  0.00  0.00     0.012 C 
HETATM   26  C   UNK N   1       1.409   1.818  -0.693  0.00  0.00     0.034 C 
HETATM   27  C   UNK N   1      -1.371   0.978   0.576  0.00  0.00     0.016 C 
HETATM   28  C   UNK N   1       2.432  -1.899  -0.050  0.00  0.00     0.018 C 
HETATM   29  C   UNK N   1       1.502  -0.338   1.646  0.00  0.00     0.018 C 
ENDROOT
BRANCH  19  30
HETATM   30  O   UNK N   1      -4.426   1.606  -4.020  0.00  0.00    -0.395 OA
HETATM   31  H   UNK N   1      -3.711   2.047  -4.549  0.00  0.00     0.210 HD
ENDBRANCH  19  30
BRANCH  11  32
HETATM   32  C   UNK N   1      -9.620  -0.946  -1.812  0.00  0.00     0.107 C 
HETATM   33  C   UNK N   1      -9.688  -2.409  -2.282  0.00  0.00     0.051 C 
HETATM   34  C   UNK N   1      -9.555  -0.929  -0.269  0.00  0.00     0.051 C 
BRANCH  32  35
HETATM   35  O   UNK N   1     -10.799  -0.304  -2.239  0.00  0.00    -0.385 OA
HETATM   36  H   UNK N   1     -10.804   0.617  -1.868  0.00  0.00     0.210 HD
ENDBRANCH  32  35
ENDBRANCH  11  32
BRANCH   1  37
HETATM   37  O   UNK N   1       3.487   0.832  -0.024  0.00  0.00    -0.316 OA
BRANCH  37  38
HETATM   38  C   UNK N   1       4.566   1.361  -0.657  0.00  0.00     0.255 C 
HETATM   39  O   UNK N   1       4.556   1.555  -1.863  0.00  0.00    -0.266 OA
HETATM   40  C   UNK N   1       5.781   1.696   0.144  0.00  0.00     0.126 C 
ENDBRANCH  37  38
ENDBRANCH   1  37
TORSDOF 5
