REMARK  6 active torsions:
REMARK  status: ('A' for Active; 'I' for Inactive)
REMARK    1  A    between atoms: C_4  and  C_5 
REMARK    2  A    between atoms: C_5  and  O_6 
REMARK    3  A    between atoms: C_9  and  O_10 
REMARK    4  A    between atoms: O_10  and  C_11 
REMARK    5  A    between atoms: C_25  and  O_26 
REMARK    6  A    between atoms: O_26  and  C_27 
ROOT
HETATM    1  C   UNK N   1       4.548   1.939   2.549  0.00  0.00     0.096 C 
HETATM    2  C   UNK N   1       3.290   2.530   1.807  0.00  0.00     0.061 C 
HETATM    3  C   UNK N   1       3.206   2.239   0.278  0.00  0.00     0.140 C 
HETATM    4  C   UNK N   1       1.800   2.554  -0.224  0.00  0.00     0.039 C 
HETATM    5  C   UNK N   1       0.756   1.544   0.354  0.00  0.00     0.005 C 
HETATM    6  C   UNK N   1       1.044   1.110   1.876  0.00  0.00    -0.032 C 
HETATM    7  C   UNK N   1       1.992   2.174   2.640  0.00  0.00    -0.027 C 
HETATM    8  C   UNK N   1       2.577   1.685   3.994  0.00  0.00     0.013 C 
HETATM    9  C   UNK N   1       3.936   1.071   3.674  0.00  0.00     0.042 C 
HETATM   10  C   UNK N   1       1.211   3.491   2.956  0.00  0.00     0.016 C 
HETATM   11  C   UNK N   1      -0.308   0.886   2.652  0.00  0.00     0.011 C 
HETATM   12  C   UNK N   1      -1.304   0.065   1.843  0.00  0.00     0.007 C 
HETATM   13  C   UNK N   1      -1.755   0.764   0.523  0.00  0.00     0.004 C 
HETATM   14  C   UNK N   1      -2.305  -0.256  -0.542  0.00  0.00    -0.017 C 
HETATM   15  C   UNK N   1      -2.988   0.558  -1.699  0.00  0.00     0.140 C 
HETATM   16  C   UNK N   1      -2.269   1.864  -2.139  0.00  0.00     0.034 C 
HETATM   17  C   UNK N   1      -0.840   1.975  -1.614  0.00  0.00     0.012 C 
HETATM   18  C   UNK N   1      -0.746   1.874  -0.044  0.00  0.00    -0.035 C 
HETATM   19  C   UNK N   1      -1.195   3.271   0.499  0.00  0.00     0.016 C 
HETATM   20  C   UNK N   1      -1.205  -1.230  -1.076  0.00  0.00     0.018 C 
HETATM   21  C   UNK N   1      -3.401  -1.160   0.087  0.00  0.00     0.018 C 
HETATM   22  C   UNK N   1       1.742  -0.299   1.837  0.00  0.00     0.016 C 
ENDROOT
BRANCH   1  23
HETATM   23  C   UNK N   1       5.548   3.050   3.093  0.00  0.00     0.099 C 
HETATM   24  O   UNK N   1       6.628   2.452   3.711  0.00  0.00    -0.307 OA
HETATM   25  C   UNK N   1       7.783   3.062   3.405  0.00  0.00     0.259 C 
HETATM   26  O   UNK N   1       8.824   2.811   3.986  0.00  0.00    -0.265 OA
HETATM   27  C   UNK N   1       7.615   4.197   2.468  0.00  0.00     0.114 C 
HETATM   28  C   UNK N   1       6.225   3.840   1.934  0.00  0.00     0.051 C 
HETATM   29  C   UNK N   1       4.941   4.053   4.106  0.00  0.00     0.050 C 
ENDBRANCH   1  23
BRANCH   1  30
HETATM   30  O   UNK N   1       5.264   1.086   1.678  0.00  0.00    -0.386 OA
HETATM   31  H   UNK N   1       5.957   0.605   2.202  0.00  0.00     0.210 HD
ENDBRANCH   1  30
BRANCH   3  32
HETATM   32  O   UNK N   1       4.125   3.034  -0.387  0.00  0.00    -0.316 OA
BRANCH  32  33
HETATM   33  C   UNK N   1       4.743   2.696  -1.549  0.00  0.00     0.255 C 
HETATM   34  O   UNK N   1       4.546   1.608  -2.074  0.00  0.00    -0.266 OA
HETATM   35  C   UNK N   1       5.665   3.677  -2.194  0.00  0.00     0.126 C 
ENDBRANCH  32  33
ENDBRANCH   3  32
BRANCH  15  36
HETATM   36  O   UNK N   1      -3.225  -0.274  -2.782  0.00  0.00    -0.316 OA
BRANCH  36  37
HETATM   37  C   UNK N   1      -4.227  -0.100  -3.683  0.00  0.00     0.255 C 
HETATM   38  O   UNK N   1      -5.033   0.812  -3.559  0.00  0.00    -0.266 OA
HETATM   39  C   UNK N   1      -4.348  -1.051  -4.827  0.00  0.00     0.126 C 
ENDBRANCH  36  37
ENDBRANCH  15  36
TORSDOF 6
