REMARK  11 active torsions:
REMARK  status: ('A' for Active; 'I' for Inactive)
REMARK    1  A    between atoms: C_2  and  O_3 
REMARK    2  A    between atoms: C_2  and  C_20 
REMARK    3  A    between atoms: O_3  and  C_4 
REMARK    4  A    between atoms: C_5  and  O_6 
REMARK    5  A    between atoms: C_8  and  O_9 
REMARK    6  A    between atoms: C_12  and  O_13 
REMARK    7  A    between atoms: C_12  and  C_15 
REMARK    8  A    between atoms: C_15  and  O_17 
REMARK    9  A    between atoms: C_21  and  C_22 
REMARK   10  A    between atoms: C_24  and  O_25 
REMARK   11  A    between atoms: C_27  and  O_28 
ROOT
HETATM    1  C   UNK N   1      -4.099  -0.305  -1.868  0.00  0.00     0.166 C 
HETATM    2  C   UNK N   1      -5.188   0.085  -0.831  0.00  0.00     0.176 C 
HETATM    3  C   UNK N   1      -6.572   0.081  -1.501  0.00  0.00     0.152 C 
HETATM    4  C   UNK N   1      -6.593   1.085  -2.675  0.00  0.00     0.083 C 
HETATM    5  C   UNK N   1      -5.482   0.857  -3.742  0.00  0.00     0.150 C 
HETATM    6  C   UNK N   1      -4.106   0.725  -3.022  0.00  0.00     0.084 C 
ENDROOT
BRANCH   1   7
HETATM    7  O   UNK N   1      -2.838  -0.292  -1.292  0.00  0.00    -0.310 OA
BRANCH   7   8
HETATM    8  C   UNK N   1      -2.438  -1.057  -0.238  0.00  0.00     0.283 C 
HETATM    9  O   UNK N   1      -3.184  -1.889   0.254  0.00  0.00    -0.260 OA
BRANCH   8  10
HETATM   10  C   UNK N   1      -1.101  -0.857   0.349  0.00  0.00     0.083 C 
HETATM   11  C   UNK N   1      -0.173  -0.094  -0.256  0.00  0.00     0.017 C 
BRANCH  11  12
HETATM   12  C   UNK N   1       1.193   0.113   0.291  0.00  0.00    -0.033 A 
HETATM   13  C   UNK N   1       2.205   0.553  -0.575  0.00  0.00     0.050 A 
HETATM   14  C   UNK N   1       3.516   0.726  -0.115  0.00  0.00     0.099 A 
HETATM   15  C   UNK N   1       3.818   0.485   1.237  0.00  0.00     0.098 A 
HETATM   16  C   UNK N   1       2.807   0.068   2.112  0.00  0.00     0.040 A 
HETATM   17  C   UNK N   1       1.506  -0.126   1.645  0.00  0.00     0.014 A 
BRANCH  14  18
HETATM   18  O   UNK N   1       4.471   1.114  -0.985  0.00  0.00    -0.358 OA
HETATM   19  H   UNK N   1       5.397   1.217  -0.724  0.00  0.00     0.218 HD
ENDBRANCH  14  18
BRANCH  15  20
HETATM   20  O   UNK N   1       5.079   0.655   1.689  0.00  0.00    -0.358 OA
HETATM   21  H   UNK N   1       5.313   0.494   2.615  0.00  0.00     0.218 HD
ENDBRANCH  15  20
ENDBRANCH  11  12
ENDBRANCH   8  10
ENDBRANCH   7   8
ENDBRANCH   1   7
BRANCH   2  22
HETATM   22  O   UNK N   1      -4.892   1.354  -0.298  0.00  0.00    -0.390 OA
HETATM   23  H   UNK N   1      -5.502   1.499   0.471  0.00  0.00     0.210 HD
ENDBRANCH   2  22
BRANCH   3  24
HETATM   24  O   UNK N   1      -6.876  -1.222  -1.922  0.00  0.00    -0.393 OA
HETATM   25  H   UNK N   1      -7.856  -1.255  -2.074  0.00  0.00     0.210 HD
ENDBRANCH   3  24
BRANCH   5  26
HETATM   26  O   UNK N   1      -5.473   2.004  -4.562  0.00  0.00    -0.379 OA
HETATM   27  H   UNK N   1      -4.650   1.991  -5.119  0.00  0.00     0.211 HD
ENDBRANCH   5  26
BRANCH   5  28
HETATM   28  C   UNK N   1      -5.740  -0.332  -4.657  0.00  0.00     0.293 C 
HETATM   29  O   UNK N   1      -6.743  -1.021  -4.533  0.00  0.00    -0.262 OA
BRANCH  28  30
HETATM   30  O   UNK N   1      -4.884  -0.550  -5.690  0.00  0.00    -0.324 OA
HETATM   31  C   UNK N   1      -5.107  -1.472  -6.689  0.00  0.00     0.213 C 
ENDBRANCH  28  30
ENDBRANCH   5  28
TORSDOF 11
