REMARK  12 active torsions:
REMARK  status: ('A' for Active; 'I' for Inactive)
REMARK    1  A    between atoms: C_2  and  O_3 
REMARK    2  A    between atoms: C_2  and  C_22 
REMARK    3  A    between atoms: O_3  and  C_4 
REMARK    4  A    between atoms: C_5  and  O_6 
REMARK    5  A    between atoms: C_8  and  O_9 
REMARK    6  A    between atoms: O_9  and  C_10 
REMARK    7  A    between atoms: C_14  and  O_15 
REMARK    8  A    between atoms: C_14  and  C_17 
REMARK    9  A    between atoms: C_17  and  O_19 
REMARK   10  A    between atoms: C_23  and  C_24 
REMARK   11  A    between atoms: C_26  and  O_27 
REMARK   12  A    between atoms: C_29  and  O_30 
ROOT
HETATM    1  C   UNK N   1      -2.524  -1.437  -3.567  0.00  0.00     0.166 C 
HETATM    2  C   UNK N   1      -2.174  -0.854  -4.956  0.00  0.00     0.177 C 
HETATM    3  C   UNK N   1      -3.380  -1.003  -5.914  0.00  0.00     0.166 C 
HETATM    4  C   UNK N   1      -4.635  -0.324  -5.322  0.00  0.00     0.084 C 
HETATM    5  C   UNK N   1      -4.989  -0.857  -3.909  0.00  0.00     0.147 C 
HETATM    6  C   UNK N   1      -3.751  -0.691  -2.990  0.00  0.00     0.084 C 
ENDROOT
BRANCH   1   7
HETATM    7  O   UNK N   1      -1.436  -1.313  -2.720  0.00  0.00    -0.310 OA
BRANCH   7   8
HETATM    8  C   UNK N   1      -1.372  -1.871  -1.477  0.00  0.00     0.283 C 
HETATM    9  O   UNK N   1      -2.236  -2.646  -1.098  0.00  0.00    -0.260 OA
BRANCH   8  10
HETATM   10  C   UNK N   1      -0.257  -1.539  -0.570  0.00  0.00     0.083 C 
HETATM   11  C   UNK N   1       0.741  -0.721  -0.953  0.00  0.00     0.017 C 
BRANCH  11  12
HETATM   12  C   UNK N   1       1.890  -0.337  -0.084  0.00  0.00    -0.033 A 
HETATM   13  C   UNK N   1       2.932   0.411  -0.655  0.00  0.00     0.050 A 
HETATM   14  C   UNK N   1       4.045   0.799   0.101  0.00  0.00     0.099 A 
HETATM   15  C   UNK N   1       4.116   0.440   1.471  0.00  0.00     0.098 A 
HETATM   16  C   UNK N   1       3.074  -0.297   2.041  0.00  0.00     0.040 A 
HETATM   17  C   UNK N   1       1.972  -0.687   1.278  0.00  0.00     0.014 A 
BRANCH  14  18
HETATM   18  O   UNK N   1       5.017   1.507  -0.514  0.00  0.00    -0.358 OA
HETATM   19  H   UNK N   1       5.824   1.810  -0.082  0.00  0.00     0.218 HD
ENDBRANCH  14  18
BRANCH  15  20
HETATM   20  O   UNK N   1       5.160   0.784   2.258  0.00  0.00    -0.358 OA
HETATM   21  H   UNK N   1       5.924   1.288   1.955  0.00  0.00     0.218 HD
ENDBRANCH  15  20
ENDBRANCH  11  12
ENDBRANCH   8  10
ENDBRANCH   7   8
ENDBRANCH   1   7
BRANCH   2  22
HETATM   22  O   UNK N   1      -1.833   0.507  -4.848  0.00  0.00    -0.390 OA
HETATM   23  H   UNK N   1      -0.912   0.548  -4.478  0.00  0.00     0.210 HD
ENDBRANCH   2  22
BRANCH   3  24
HETATM   24  O   UNK N   1      -3.647  -2.343  -6.144  0.00  0.00    -0.314 OA
BRANCH  24  25
HETATM   25  C   UNK N   1      -3.055  -3.089  -7.114  0.00  0.00     0.255 C 
HETATM   26  O   UNK N   1      -2.247  -2.590  -7.885  0.00  0.00    -0.266 OA
HETATM   27  C   UNK N   1      -3.407  -4.535  -7.240  0.00  0.00     0.126 C 
ENDBRANCH  24  25
ENDBRANCH   3  24
BRANCH   5  28
HETATM   28  O   UNK N   1      -5.328  -2.222  -3.995  0.00  0.00    -0.379 OA
HETATM   29  H   UNK N   1      -5.583  -2.532  -3.086  0.00  0.00     0.211 HD
ENDBRANCH   5  28
BRANCH   5  30
HETATM   30  C   UNK N   1      -6.192  -0.083  -3.378  0.00  0.00     0.176 C 
HETATM   31  O   UNK N   1      -6.070   0.685  -2.436  0.00  0.00    -0.648 OA
BRANCH  30  32
HETATM   32  O   UNK N   1      -7.413  -0.258  -3.928  0.00  0.00    -0.774 OA
HETATM   33  H   UNK N   1      -7.566  -0.921  -4.616  0.00  0.00     0.167 HD
ENDBRANCH  30  32
ENDBRANCH   5  30
TORSDOF 12
