REMARK  11 active torsions:
REMARK  status: ('A' for Active; 'I' for Inactive)
REMARK    1  A    between atoms: C_2  and  O_3 
REMARK    2  A    between atoms: C_2  and  C_20 
REMARK    3  A    between atoms: O_3  and  C_4 
REMARK    4  A    between atoms: C_5  and  O_6 
REMARK    5  A    between atoms: C_8  and  O_9 
REMARK    6  A    between atoms: C_12  and  O_13 
REMARK    7  A    between atoms: C_12  and  C_15 
REMARK    8  A    between atoms: C_15  and  O_17 
REMARK    9  A    between atoms: C_21  and  C_22 
REMARK   10  A    between atoms: C_24  and  O_25 
REMARK   11  A    between atoms: C_27  and  O_28 
ROOT
HETATM    1  C   UNK N   1      -5.124   1.693   0.554  0.00  0.00     0.166 C 
HETATM    2  C   UNK N   1      -5.104   3.235   0.499  0.00  0.00     0.176 C 
HETATM    3  C   UNK N   1      -4.542   3.714  -0.859  0.00  0.00     0.152 C 
HETATM    4  C   UNK N   1      -5.364   3.132  -2.038  0.00  0.00     0.083 C 
HETATM    5  C   UNK N   1      -5.415   1.573  -2.017  0.00  0.00     0.147 C 
HETATM    6  C   UNK N   1      -5.944   1.127  -0.628  0.00  0.00     0.084 C 
ENDROOT
BRANCH   1   7
HETATM    7  O   UNK N   1      -3.820   1.208   0.534  0.00  0.00    -0.310 OA
BRANCH   7   8
HETATM    8  C   UNK N   1      -3.277   0.417   1.503  0.00  0.00     0.283 C 
HETATM    9  O   UNK N   1      -3.973  -0.024   2.406  0.00  0.00    -0.260 OA
BRANCH   8  10
HETATM   10  C   UNK N   1      -1.837   0.072   1.488  0.00  0.00     0.083 C 
HETATM   11  C   UNK N   1      -0.978   0.560   0.568  0.00  0.00     0.017 C 
BRANCH  11  12
HETATM   12  C   UNK N   1       0.488   0.241   0.542  0.00  0.00    -0.033 A 
HETATM   13  C   UNK N   1       1.302   0.870  -0.420  0.00  0.00     0.051 A 
HETATM   14  C   UNK N   1       2.686   0.615  -0.467  0.00  0.00     0.102 A 
HETATM   15  C   UNK N   1       3.263  -0.275   0.444  0.00  0.00     0.099 A 
HETATM   16  C   UNK N   1       2.462  -0.914   1.395  0.00  0.00     0.040 A 
HETATM   17  C   UNK N   1       1.089  -0.661   1.450  0.00  0.00     0.014 A 
BRANCH  14  18
HETATM   18  O   UNK N   1       3.474   1.228  -1.378  0.00  0.00    -0.353 OA
HETATM   19  C   UNK N   1       3.429   0.912  -2.717  0.00  0.00     0.210 C 
ENDBRANCH  14  18
BRANCH  15  20
HETATM   20  O   UNK N   1       4.590  -0.518   0.389  0.00  0.00    -0.358 OA
HETATM   21  H   UNK N   1       5.020  -1.141   0.993  0.00  0.00     0.218 HD
ENDBRANCH  15  20
ENDBRANCH  11  12
ENDBRANCH   8  10
ENDBRANCH   7   8
ENDBRANCH   1   7
BRANCH   2  22
HETATM   22  O   UNK N   1      -6.405   3.738   0.675  0.00  0.00    -0.390 OA
HETATM   23  H   UNK N   1      -6.612   3.671   1.644  0.00  0.00     0.210 HD
ENDBRANCH   2  22
BRANCH   3  24
HETATM   24  O   UNK N   1      -4.501   5.119  -0.916  0.00  0.00    -0.393 OA
HETATM   25  H   UNK N   1      -5.435   5.454  -0.939  0.00  0.00     0.210 HD
ENDBRANCH   3  24
BRANCH   5  26
HETATM   26  O   UNK N   1      -6.333   1.130  -2.988  0.00  0.00    -0.379 OA
HETATM   27  H   UNK N   1      -6.024   1.457  -3.874  0.00  0.00     0.211 HD
ENDBRANCH   5  26
BRANCH   5  28
HETATM   28  C   UNK N   1      -4.066   0.917  -2.314  0.00  0.00     0.176 C 
HETATM   29  O   UNK N   1      -3.088   1.596  -2.587  0.00  0.00    -0.648 OA
BRANCH  28  30
HETATM   30  O   UNK N   1      -3.947  -0.430  -2.319  0.00  0.00    -0.774 OA
HETATM   31  H   UNK N   1      -4.698  -1.012  -2.134  0.00  0.00     0.167 HD
ENDBRANCH  28  30
ENDBRANCH   5  28
TORSDOF 11
