REMARK  3 active torsions:
REMARK  status: ('A' for Active; 'I' for Inactive)
REMARK    1  A    between atoms: C_10  and  C_11 
REMARK    2  A    between atoms: C_11  and  C_12 
REMARK    3  A    between atoms: C_12  and  O_14 
ROOT
HETATM    1  O   UNK N   1       4.526   1.511  -1.764  0.00  0.00    -0.293 OA
HETATM    2  C   UNK N   1       3.554   0.869  -1.394  0.00  0.00     0.153 C 
HETATM    3  C   UNK N   1       3.754  -0.516  -0.907  0.00  0.00     0.047 C 
HETATM    4  C   UNK N   1       2.744  -1.230  -0.382  0.00  0.00    -0.013 C 
HETATM    5  C   UNK N   1       1.338  -0.667  -0.258  0.00  0.00    -0.022 C 
HETATM    6  C   UNK N   1       1.099   0.400  -1.386  0.00  0.00     0.009 C 
HETATM    7  C   UNK N   1       2.180   1.520  -1.340  0.00  0.00     0.060 C 
HETATM    8  C   UNK N   1       2.022   2.542  -2.481  0.00  0.00     0.018 C 
HETATM    9  C   UNK N   1      -0.360   0.921  -1.362  0.00  0.00     0.016 C 
HETATM   10  C   UNK N   1      -1.361  -0.252  -1.512  0.00  0.00     0.025 C 
HETATM   11  C   UNK N   1      -1.138  -1.321  -0.428  0.00  0.00     0.010 C 
HETATM   12  C   UNK N   1       0.318  -1.820  -0.465  0.00  0.00     0.014 C 
HETATM   13  C   UNK N   1       1.208  -0.096   1.180  0.00  0.00     0.020 C 
ENDROOT
BRANCH  10  14
HETATM   14  C   UNK N   1      -2.804   0.244  -1.511  0.00  0.00     0.010 C 
HETATM   15  C   UNK N   1      -3.280   0.956  -0.469  0.00  0.00     0.026 C 
BRANCH  14  16
HETATM   16  C   UNK N   1      -3.699  -0.069  -2.664  0.00  0.00     0.171 C 
HETATM   17  O   UNK N   1      -4.823   0.404  -2.722  0.00  0.00    -0.646 OA
BRANCH  16  18
HETATM   18  O   UNK N   1      -3.281  -0.913  -3.634  0.00  0.00    -0.773 OA
HETATM   19  H   UNK N   1      -3.868  -1.172  -4.358  0.00  0.00     0.167 HD
ENDBRANCH  16  18
ENDBRANCH  14  16
ENDBRANCH  10  14
TORSDOF 3
