REMARK  3 active torsions:
REMARK  status: ('A' for Active; 'I' for Inactive)
REMARK    1  A    between atoms: C_10  and  C_11 
REMARK    2  A    between atoms: C_11  and  C_12 
REMARK    3  A    between atoms: C_12  and  O_14 
ROOT
HETATM    1  O   UNK N   1       4.377   1.341  -2.066  0.00  0.00    -0.298 OA
HETATM    2  C   UNK N   1       3.570   1.010  -1.210  0.00  0.00     0.131 C 
HETATM    3  C   UNK N   1       2.199   1.658  -1.118  0.00  0.00     0.056 C 
HETATM    4  C   UNK N   1       1.135   0.521  -1.256  0.00  0.00     0.005 C 
HETATM    5  C   UNK N   1       1.379  -0.628  -0.203  0.00  0.00    -0.039 C 
HETATM    6  C   UNK N   1       2.822  -1.190  -0.395  0.00  0.00     0.017 C 
HETATM    7  C   UNK N   1       3.899  -0.103  -0.261  0.00  0.00     0.079 C 
HETATM    8  C   UNK N   1       0.371  -1.777  -0.494  0.00  0.00     0.010 C 
HETATM    9  C   UNK N   1      -1.090  -1.302  -0.447  0.00  0.00     0.010 C 
HETATM   10  C   UNK N   1      -1.317  -0.139  -1.443  0.00  0.00     0.025 C 
HETATM   11  C   UNK N   1      -0.333   1.024  -1.198  0.00  0.00     0.015 C 
HETATM   12  C   UNK N   1       1.207  -0.142   1.269  0.00  0.00     0.015 C 
HETATM   13  C   UNK N   1       2.036   2.762  -2.180  0.00  0.00     0.018 C 
ENDROOT
BRANCH  10  14
HETATM   14  C   UNK N   1      -2.759   0.371  -1.492  0.00  0.00     0.010 C 
HETATM   15  C   UNK N   1      -3.541   0.400  -0.392  0.00  0.00     0.026 C 
BRANCH  14  16
HETATM   16  C   UNK N   1      -3.299   0.888  -2.784  0.00  0.00     0.171 C 
HETATM   17  O   UNK N   1      -4.475   1.206  -2.884  0.00  0.00    -0.646 OA
BRANCH  16  18
HETATM   18  O   UNK N   1      -2.477   1.036  -3.847  0.00  0.00    -0.773 OA
HETATM   19  H   UNK N   1      -2.798   1.422  -4.675  0.00  0.00     0.167 HD
ENDBRANCH  16  18
ENDBRANCH  14  16
ENDBRANCH  10  14
TORSDOF 3
