REMARK  3 active torsions:
REMARK  status: ('A' for Active; 'I' for Inactive)
REMARK    1  A    between atoms: C_10  and  C_11 
REMARK    2  A    between atoms: C_11  and  C_12 
REMARK    3  A    between atoms: C_12  and  O_14 
ROOT
HETATM    1  O   UNK N   1       4.310   1.445  -2.133  0.00  0.00    -0.293 OA
HETATM    2  C   UNK N   1       3.448   1.026  -1.375  0.00  0.00     0.155 C 
HETATM    3  C   UNK N   1       2.049   1.538  -1.452  0.00  0.00    -0.013 C 
HETATM    4  C   UNK N   1       1.042   0.859  -0.813  0.00  0.00    -0.061 C 
HETATM    5  C   UNK N   1       1.305  -0.484  -0.096  0.00  0.00    -0.020 C 
HETATM    6  C   UNK N   1       2.712  -1.082  -0.432  0.00  0.00     0.021 C 
HETATM    7  C   UNK N   1       3.795  -0.024  -0.364  0.00  0.00     0.084 C 
HETATM    8  C   UNK N   1       0.267  -1.529  -0.604  0.00  0.00     0.014 C 
HETATM    9  C   UNK N   1      -1.183  -1.031  -0.560  0.00  0.00     0.011 C 
HETATM   10  C   UNK N   1      -1.325   0.279  -1.373  0.00  0.00     0.028 C 
HETATM   11  C   UNK N   1      -0.405   1.367  -0.796  0.00  0.00     0.045 C 
HETATM   12  C   UNK N   1       1.170  -0.267   1.431  0.00  0.00     0.020 C 
HETATM   13  C   UNK N   1       1.783   2.805  -2.236  0.00  0.00     0.052 C 
ENDROOT
BRANCH  10  14
HETATM   14  C   UNK N   1      -2.787   0.731  -1.457  0.00  0.00     0.010 C 
HETATM   15  C   UNK N   1      -3.515   0.884  -0.332  0.00  0.00     0.026 C 
BRANCH  14  16
HETATM   16  C   UNK N   1      -3.383   1.000  -2.810  0.00  0.00     0.171 C 
HETATM   17  O   UNK N   1      -2.650   1.082  -3.781  0.00  0.00    -0.646 OA
BRANCH  16  18
HETATM   18  O   UNK N   1      -4.715   1.160  -2.995  0.00  0.00    -0.773 OA
HETATM   19  H   UNK N   1      -5.372   1.015  -2.306  0.00  0.00     0.167 HD
ENDBRANCH  16  18
ENDBRANCH  14  16
ENDBRANCH  10  14
TORSDOF 3
