REMARK  8 active torsions:
REMARK  status: ('A' for Active; 'I' for Inactive)
REMARK    1  A    between atoms: C_2  and  O_3 
REMARK    2  A    between atoms: C_2  and  C_17 
REMARK    3  A    between atoms: O_3  and  C_4 
REMARK    4  A    between atoms: C_11  and  O_12 
REMARK    5  A    between atoms: O_12  and  C_13 
REMARK    6  A    between atoms: C_17  and  C_18 
REMARK    7  A    between atoms: C_17  and  C_21 
REMARK    8  A    between atoms: C_18  and  O_19 
ROOT
HETATM    1  C   UNK N   1      -1.149   1.281  -0.829  0.00  0.00     0.136 C 
HETATM    2  C   UNK N   1      -2.252   0.237  -1.077  0.00  0.00     0.071 C 
HETATM    3  C   UNK N   1      -3.667   0.852  -0.876  0.00  0.00     0.255 C 
HETATM    4  N   UNK N   1      -3.741   1.269   0.533  0.00  0.00     0.096 N 
HETATM    5  C   UNK N   1      -5.117   1.482   1.015  0.00  0.00     0.310 C 
HETATM    6  C   UNK N   1      -2.932   2.500   0.520  0.00  0.00     0.228 C 
HETATM    7  C   UNK N   1      -3.342   3.258  -0.760  0.00  0.00     0.070 C 
HETATM    8  C   UNK N   1      -3.909   2.156  -1.676  0.00  0.00     0.167 C 
HETATM    9  C   UNK N   1      -1.445   2.061   0.467  0.00  0.00     0.068 C 
ENDROOT
BRANCH   1  10
HETATM   10  O   UNK N   1       0.080   0.654  -0.763  0.00  0.00    -0.315 OA
BRANCH  10  11
HETATM   11  C   UNK N   1       1.285   1.283  -0.822  0.00  0.00     0.270 C 
HETATM   12  O   UNK N   1       1.360   2.465  -1.121  0.00  0.00    -0.264 OA
BRANCH  11  13
HETATM   13  C   UNK N   1       2.522   0.462  -0.552  0.00  0.00     0.142 C 
BRANCH  13  14
HETATM   14  C   UNK N   1       3.848   1.154  -0.940  0.00  0.00     0.183 C 
BRANCH  14  15
HETATM   15  O   UNK N   1       3.908   1.367  -2.326  0.00  0.00    -0.400 OA
HETATM   16  H   UNK N   1       3.485   2.245  -2.509  0.00  0.00     0.209 HD
ENDBRANCH  14  15
ENDBRANCH  13  14
BRANCH  13  17
HETATM   17  C   UNK N   1       2.501   0.028   0.902  0.00  0.00    -0.043 A 
HETATM   18  C   UNK N   1       2.086  -1.275   1.236  0.00  0.00     0.008 A 
HETATM   19  C   UNK N   1       2.036  -1.681   2.573  0.00  0.00     0.001 A 
HETATM   20  C   UNK N   1       2.415  -0.800   3.589  0.00  0.00     0.000 A 
HETATM   21  C   UNK N   1       2.833   0.494   3.271  0.00  0.00     0.001 A 
HETATM   22  C   UNK N   1       2.865   0.914   1.938  0.00  0.00     0.008 A 
ENDBRANCH  13  17
ENDBRANCH  11  13
ENDBRANCH  10  11
ENDBRANCH   1  10
BRANCH   8  23
HETATM   23  O   UNK N   1      -3.365   2.172  -2.948  0.00  0.00    -0.314 OA
BRANCH  23  24
HETATM   24  C   UNK N   1      -3.827   1.420  -3.981  0.00  0.00     0.255 C 
HETATM   25  O   UNK N   1      -4.821   0.719  -3.851  0.00  0.00    -0.266 OA
HETATM   26  C   UNK N   1      -3.122   1.474  -5.298  0.00  0.00     0.126 C 
ENDBRANCH  23  24
ENDBRANCH   8  23
TORSDOF 8
