REMARK  9 active torsions:
REMARK  status: ('A' for Active; 'I' for Inactive)
REMARK    1  A    between atoms: C_2  and  O_3 
REMARK    2  A    between atoms: C_2  and  C_19 
REMARK    3  A    between atoms: O_3  and  C_4 
REMARK    4  A    between atoms: C_11  and  O_12 
REMARK    5  A    between atoms: O_12  and  C_13 
REMARK    6  A    between atoms: C_13  and  C_15 
REMARK    7  A    between atoms: C_19  and  C_20 
REMARK    8  A    between atoms: C_19  and  C_23 
REMARK    9  A    between atoms: C_20  and  O_21 
ROOT
HETATM    1  C   UNK N   1      -0.586   1.098  -3.672  0.00  0.00     0.136 C 
HETATM    2  C   UNK N   1      -1.587  -0.069  -3.684  0.00  0.00     0.071 C 
HETATM    3  C   UNK N   1      -2.609   0.067  -4.849  0.00  0.00     0.255 C 
HETATM    4  N   UNK N   1      -1.829   0.008  -6.096  0.00  0.00     0.096 N 
HETATM    5  C   UNK N   1      -2.637  -0.304  -7.286  0.00  0.00     0.310 C 
HETATM    6  C   UNK N   1      -1.234   1.354  -6.132  0.00  0.00     0.228 C 
HETATM    7  C   UNK N   1      -2.360   2.324  -5.714  0.00  0.00     0.070 C 
HETATM    8  C   UNK N   1      -3.330   1.437  -4.909  0.00  0.00     0.167 C 
HETATM    9  C   UNK N   1      -0.068   1.353  -5.107  0.00  0.00     0.068 C 
ENDROOT
BRANCH   1  10
HETATM   10  O   UNK N   1       0.447   0.804  -2.798  0.00  0.00    -0.315 OA
BRANCH  10  11
HETATM   11  C   UNK N   1       1.453   1.656  -2.465  0.00  0.00     0.270 C 
HETATM   12  O   UNK N   1       1.421   2.826  -2.818  0.00  0.00    -0.264 OA
BRANCH  11  13
HETATM   13  C   UNK N   1       2.624   1.119  -1.665  0.00  0.00     0.142 C 
BRANCH  13  14
HETATM   14  C   UNK N   1       3.755   2.151  -1.494  0.00  0.00     0.183 C 
BRANCH  14  15
HETATM   15  O   UNK N   1       4.883   1.538  -0.928  0.00  0.00    -0.400 OA
HETATM   16  H   UNK N   1       5.675   2.045  -1.246  0.00  0.00     0.209 HD
ENDBRANCH  14  15
ENDBRANCH  13  14
BRANCH  13  17
HETATM   17  C   UNK N   1       2.185   0.566  -0.316  0.00  0.00    -0.043 A 
HETATM   18  C   UNK N   1       2.874  -0.524   0.248  0.00  0.00     0.008 A 
HETATM   19  C   UNK N   1       2.486  -1.043   1.487  0.00  0.00     0.001 A 
HETATM   20  C   UNK N   1       1.407  -0.483   2.176  0.00  0.00     0.000 A 
HETATM   21  C   UNK N   1       0.717   0.601   1.630  0.00  0.00     0.001 A 
HETATM   22  C   UNK N   1       1.102   1.128   0.394  0.00  0.00     0.008 A 
ENDBRANCH  13  17
ENDBRANCH  11  13
ENDBRANCH  10  11
ENDBRANCH   1  10
BRANCH   8  23
HETATM   23  O   UNK N   1      -3.661   1.985  -3.683  0.00  0.00    -0.313 OA
BRANCH  23  24
HETATM   24  C   UNK N   1      -4.534   1.425  -2.806  0.00  0.00     0.262 C 
HETATM   25  O   UNK N   1      -5.154   0.412  -3.101  0.00  0.00    -0.265 OA
BRANCH  24  26
HETATM   26  C   UNK N   1      -4.694   2.040  -1.440  0.00  0.00     0.077 C 
HETATM   27  C   UNK N   1      -4.163   1.073  -0.381  0.00  0.00     0.020 C 
HETATM   28  C   UNK N   1      -6.156   2.412  -1.161  0.00  0.00     0.020 C 
ENDBRANCH  24  26
ENDBRANCH  23  24
ENDBRANCH   8  23
TORSDOF 9
