REMARK  10 active torsions:
REMARK  status: ('A' for Active; 'I' for Inactive)
REMARK    1  A    between atoms: C_2  and  O_3 
REMARK    2  A    between atoms: O_3  and  C_4 
REMARK    3  A    between atoms: C_5  and  O_6 
REMARK    4  A    between atoms: O_6  and  C_7 
REMARK    5  A    between atoms: C_7  and  C_8 
REMARK    6  A    between atoms: C_13  and  O_14 
REMARK    7  A    between atoms: C_26  and  O_27 
REMARK    8  A    between atoms: O_27  and  C_28 
REMARK    9  A    between atoms: C_31  and  O_32 
REMARK   10  A    between atoms: O_32  and  C_33 
ROOT
HETATM    1  C   UNK N   1      -3.454   1.946  -3.739  0.00  0.00     0.219 C 
HETATM    2  C   UNK N   1      -2.159   2.480  -3.098  0.00  0.00     0.292 C 
HETATM    3  O   UNK N   1      -1.908   3.784  -3.595  0.00  0.00    -0.356 OA
HETATM    4  C   UNK N   1      -1.603   3.740  -4.972  0.00  0.00     0.206 C 
HETATM    5  C   UNK N   1      -2.855   3.333  -5.752  0.00  0.00     0.188 C 
HETATM    6  C   UNK N   1      -3.309   1.949  -5.274  0.00  0.00     0.198 C 
ENDROOT
BRANCH   2   7
HETATM    7  O   UNK N   1      -2.372   2.518  -1.692  0.00  0.00    -0.348 OA
BRANCH   7   8
HETATM    8  C   UNK N   1      -1.278   2.944  -0.870  0.00  0.00     0.060 C 
HETATM    9  C   UNK N   1      -0.939   4.442  -1.106  0.00  0.00     0.046 C 
HETATM   10  C   UNK N   1      -1.821   2.865   0.577  0.00  0.00     0.046 C 
BRANCH   8  11
HETATM   11  C   UNK N   1      -0.002   2.027  -1.055  0.00  0.00     0.020 C 
HETATM   12  C   UNK N   1       1.216   2.488  -0.214  0.00  0.00     0.017 C 
HETATM   13  C   UNK N   1       2.442   1.595  -0.494  0.00  0.00     0.025 C 
HETATM   14  C   UNK N   1       3.742   2.020   0.183  0.00  0.00    -0.056 C 
HETATM   15  C   UNK N   1       2.147   0.099  -0.156  0.00  0.00    -0.036 C 
HETATM   16  C   UNK N   1       3.827   3.041   1.057  0.00  0.00     0.017 C 
HETATM   17  C   UNK N   1       4.970   1.211  -0.177  0.00  0.00     0.146 C 
HETATM   18  C   UNK N   1       4.690  -0.271   0.139  0.00  0.00     0.037 C 
HETATM   19  C   UNK N   1       3.393  -0.756  -0.551  0.00  0.00     0.012 C 
HETATM   20  C   UNK N   1       0.933  -0.355  -1.015  0.00  0.00     0.010 C 
HETATM   21  C   UNK N   1       1.839  -0.111   1.358  0.00  0.00     0.016 C 
HETATM   22  C   UNK N   1      -0.310   0.525  -0.790  0.00  0.00     0.008 C 
BRANCH  17  23
HETATM   23  O   UNK N   1       5.223   1.376  -1.549  0.00  0.00    -0.391 OA
HETATM   24  H   UNK N   1       6.101   0.951  -1.734  0.00  0.00     0.210 HD
ENDBRANCH  17  23
ENDBRANCH   8  11
ENDBRANCH   7   8
ENDBRANCH   2   7
BRANCH   1  25
HETATM   25  O   UNK N   1      -3.686   0.657  -3.286  0.00  0.00    -0.309 OA
BRANCH  25  26
HETATM   26  C   UNK N   1      -4.910   0.071  -3.211  0.00  0.00     0.255 C 
HETATM   27  O   UNK N   1      -5.927   0.705  -3.446  0.00  0.00    -0.266 OA
HETATM   28  C   UNK N   1      -5.001  -1.371  -2.826  0.00  0.00     0.126 C 
ENDBRANCH  25  26
ENDBRANCH   1  25
BRANCH   6  29
HETATM   29  O   UNK N   1      -4.535   1.666  -5.850  0.00  0.00    -0.311 OA
BRANCH  29  30
HETATM   30  C   UNK N   1      -4.798   0.632  -6.689  0.00  0.00     0.255 C 
HETATM   31  O   UNK N   1      -3.925  -0.152  -7.020  0.00  0.00    -0.266 OA
HETATM   32  C   UNK N   1      -6.190   0.472  -7.206  0.00  0.00     0.126 C 
ENDBRANCH  29  30
ENDBRANCH   6  29
BRANCH   5  33
HETATM   33  O   UNK N   1      -2.581   3.278  -7.107  0.00  0.00    -0.311 OA
BRANCH  33  34
HETATM   34  C   UNK N   1      -2.658   4.343  -7.948  0.00  0.00     0.255 C 
HETATM   35  O   UNK N   1      -3.038   5.432  -7.552  0.00  0.00    -0.266 OA
HETATM   36  C   UNK N   1      -2.280   4.158  -9.382  0.00  0.00     0.126 C 
ENDBRANCH  33  34
ENDBRANCH   5  33
TORSDOF 10
