REMARK  4 active torsions:
REMARK  status: ('A' for Active; 'I' for Inactive)
REMARK    1  A    between atoms: C_2  and  O_3 
REMARK    2  A    between atoms: C_2  and  C_5 
REMARK    3  A    between atoms: C_5  and  C_7 
REMARK    4  A    between atoms: C_11  and  O_12 
ROOT
HETATM    1  C   UNK N   1      -0.996   0.337  -1.451  0.00  0.00     0.028 C 
HETATM    2  C   UNK N   1      -0.254   1.483  -0.722  0.00  0.00     0.045 C 
HETATM    3  C   UNK N   1       1.242   1.168  -0.609  0.00  0.00    -0.066 C 
HETATM    4  C   UNK N   1       2.232   2.035  -1.032  0.00  0.00    -0.052 C 
HETATM    5  C   UNK N   1       3.711   1.713  -0.850  0.00  0.00     0.149 C 
HETATM    6  C   UNK N   1       3.981   0.573   0.141  0.00  0.00     0.037 C 
HETATM    7  C   UNK N   1       3.076  -0.594  -0.189  0.00  0.00     0.016 C 
HETATM    8  C   UNK N   1       1.584  -0.207   0.015  0.00  0.00    -0.020 C 
HETATM    9  C   UNK N   1       0.744  -1.310  -0.693  0.00  0.00     0.014 C 
HETATM   10  C   UNK N   1      -0.761  -0.999  -0.727  0.00  0.00     0.011 C 
HETATM   11  C   UNK N   1       1.249  -0.185   1.530  0.00  0.00     0.020 C 
HETATM   12  C   UNK N   1       1.965   3.374  -1.700  0.00  0.00     0.046 C 
ENDROOT
BRANCH   1  13
HETATM   13  C   UNK N   1      -2.497   0.603  -1.621  0.00  0.00     0.010 C 
HETATM   14  C   UNK N   1      -3.241   0.985  -0.561  0.00  0.00     0.026 C 
BRANCH  13  15
HETATM   15  C   UNK N   1      -3.116   0.396  -2.978  0.00  0.00     0.171 C 
HETATM   16  O   UNK N   1      -2.442  -0.078  -3.875  0.00  0.00    -0.646 OA
BRANCH  15  17
HETATM   17  O   UNK N   1      -4.414   0.688  -3.239  0.00  0.00    -0.773 OA
HETATM   18  H   UNK N   1      -5.019   1.091  -2.608  0.00  0.00     0.167 HD
ENDBRANCH  15  17
ENDBRANCH  13  15
ENDBRANCH   1  13
BRANCH   5  19
HETATM   19  O   UNK N   1       4.239   1.398  -2.129  0.00  0.00    -0.386 OA
HETATM   20  C   UNK N   1       5.531   1.942  -2.292  0.00  0.00     0.202 C 
ENDBRANCH   5  19
TORSDOF 4
