REMARK  5 active torsions:
REMARK  status: ('A' for Active; 'I' for Inactive)
REMARK    1  A    between atoms: C_2  and  O_3 
REMARK    2  A    between atoms: C_2  and  C_5 
REMARK    3  A    between atoms: C_5  and  C_7 
REMARK    4  A    between atoms: C_11  and  O_12 
REMARK    5  A    between atoms: O_12  and  C_13 
ROOT
HETATM    1  C   UNK N   1       0.752   1.457  -0.125  0.00  0.00     0.028 C 
HETATM    2  C   UNK N   1      -0.530   0.635   0.119  0.00  0.00     0.045 C 
HETATM    3  C   UNK N   1      -1.757   1.502  -0.118  0.00  0.00    -0.066 C 
HETATM    4  C   UNK N   1      -2.749   1.116  -0.983  0.00  0.00    -0.051 C 
HETATM    5  C   UNK N   1      -3.997   1.951  -1.206  0.00  0.00     0.161 C 
HETATM    6  C   UNK N   1      -4.217   3.021  -0.126  0.00  0.00     0.038 C 
HETATM    7  C   UNK N   1      -2.920   3.777   0.112  0.00  0.00     0.016 C 
HETATM    8  C   UNK N   1      -1.811   2.830   0.658  0.00  0.00    -0.020 C 
HETATM    9  C   UNK N   1      -0.450   3.575   0.484  0.00  0.00     0.014 C 
HETATM   10  C   UNK N   1       0.778   2.694   0.789  0.00  0.00     0.011 C 
HETATM   11  C   UNK N   1      -2.058   2.523   2.157  0.00  0.00     0.020 C 
HETATM   12  C   UNK N   1      -2.652  -0.172  -1.773  0.00  0.00     0.046 C 
ENDROOT
BRANCH   1  13
HETATM   13  C   UNK N   1       1.965   0.561   0.035  0.00  0.00     0.010 C 
HETATM   14  C   UNK N   1       2.210  -0.099   1.180  0.00  0.00     0.026 C 
BRANCH  13  15
HETATM   15  C   UNK N   1       2.860   0.378  -1.131  0.00  0.00     0.171 C 
HETATM   16  O   UNK N   1       3.291   1.347  -1.725  0.00  0.00    -0.646 OA
BRANCH  15  17
HETATM   17  O   UNK N   1       3.107  -0.862  -1.608  0.00  0.00    -0.773 OA
HETATM   18  H   UNK N   1       2.599  -1.623  -1.296  0.00  0.00     0.167 HD
ENDBRANCH  15  17
ENDBRANCH  13  15
ENDBRANCH   1  13
BRANCH   5  19
HETATM   19  O   UNK N   1      -3.882   2.536  -2.458  0.00  0.00    -0.312 OA
BRANCH  19  20
HETATM   20  C   UNK N   1      -4.594   2.171  -3.558  0.00  0.00     0.255 C 
HETATM   21  O   UNK N   1      -5.399   1.250  -3.512  0.00  0.00    -0.266 OA
HETATM   22  C   UNK N   1      -4.348   2.875  -4.852  0.00  0.00     0.126 C 
ENDBRANCH  19  20
ENDBRANCH   5  19
TORSDOF 5
