REMARK  5 active torsions:
REMARK  status: ('A' for Active; 'I' for Inactive)
REMARK    1  A    between atoms: C_2  and  O_3 
REMARK    2  A    between atoms: C_2  and  C_5 
REMARK    3  A    between atoms: C_5  and  C_7 
REMARK    4  A    between atoms: C_10  and  O_11 
REMARK    5  A    between atoms: C_13  and  O_14 
ROOT
HETATM    1  C   UNK N   1      -1.479  -0.292  -1.474  0.00  0.00     0.025 C 
HETATM    2  C   UNK N   1      -0.414   0.829  -1.482  0.00  0.00     0.018 C 
HETATM    3  C   UNK N   1       1.022   0.247  -1.451  0.00  0.00     0.031 C 
HETATM    4  C   UNK N   1       2.154   1.344  -1.633  0.00  0.00     0.084 C 
HETATM    5  C   UNK N   1       3.548   0.803  -1.138  0.00  0.00     0.152 C 
HETATM    6  C   UNK N   1       3.655  -0.710  -1.342  0.00  0.00     0.035 C 
HETATM    7  C   UNK N   1       2.637  -1.464  -0.448  0.00  0.00     0.012 C 
HETATM    8  C   UNK N   1       1.249  -0.742  -0.260  0.00  0.00    -0.037 C 
HETATM    9  C   UNK N   1       0.129  -1.828  -0.284  0.00  0.00     0.010 C 
HETATM   10  C   UNK N   1      -1.287  -1.229  -0.267  0.00  0.00     0.010 C 
HETATM   11  C   UNK N   1       1.211  -0.032   1.126  0.00  0.00     0.015 C 
HETATM   12  C   UNK N   1       1.859   2.682  -0.901  0.00  0.00     0.049 C 
ENDROOT
BRANCH   1  13
HETATM   13  C   UNK N   1      -2.892   0.285  -1.509  0.00  0.00     0.010 C 
HETATM   14  C   UNK N   1      -3.315   1.119  -0.536  0.00  0.00     0.026 C 
BRANCH  13  15
HETATM   15  C   UNK N   1      -3.816  -0.084  -2.620  0.00  0.00     0.171 C 
HETATM   16  O   UNK N   1      -4.908   0.453  -2.723  0.00  0.00    -0.646 OA
BRANCH  15  17
HETATM   17  O   UNK N   1      -3.462  -1.046  -3.502  0.00  0.00    -0.773 OA
HETATM   18  H   UNK N   1      -4.070  -1.337  -4.195  0.00  0.00     0.167 HD
ENDBRANCH  15  17
ENDBRANCH  13  15
ENDBRANCH   1  13
BRANCH   4  19
HETATM   19  O   UNK N   1       2.201   1.597  -3.023  0.00  0.00    -0.387 OA
HETATM   20  H   UNK N   1       2.769   2.393  -3.195  0.00  0.00     0.210 HD
ENDBRANCH   4  19
BRANCH   5  21
HETATM   21  O   UNK N   1       4.614   1.496  -1.741  0.00  0.00    -0.393 OA
HETATM   22  H   UNK N   1       4.726   1.147  -2.664  0.00  0.00     0.210 HD
ENDBRANCH   5  21
TORSDOF 5
