REMARK  4 active torsions:
REMARK  status: ('A' for Active; 'I' for Inactive)
REMARK    1  A    between atoms: C_2  and  O_3 
REMARK    2  A    between atoms: C_2  and  C_5 
REMARK    3  A    between atoms: C_5  and  C_7 
REMARK    4  A    between atoms: C_11  and  O_12 
ROOT
HETATM    1  C   UNK N   1      -1.207   0.309  -1.784  0.00  0.00     0.028 C 
HETATM    2  C   UNK N   1      -0.095   1.326  -1.439  0.00  0.00     0.045 C 
HETATM    3  C   UNK N   1       1.255   0.617  -1.332  0.00  0.00    -0.066 C 
HETATM    4  C   UNK N   1       2.345   1.008  -2.072  0.00  0.00    -0.052 C 
HETATM    5  C   UNK N   1       3.723   0.375  -1.890  0.00  0.00     0.149 C 
HETATM    6  C   UNK N   1       3.825  -0.517  -0.640  0.00  0.00     0.037 C 
HETATM    7  C   UNK N   1       2.612  -1.415  -0.555  0.00  0.00     0.016 C 
HETATM    8  C   UNK N   1       1.316  -0.576  -0.363  0.00  0.00    -0.020 C 
HETATM    9  C   UNK N   1       0.128  -1.533  -0.680  0.00  0.00     0.014 C 
HETATM   10  C   UNK N   1      -1.236  -0.826  -0.741  0.00  0.00     0.011 C 
HETATM   11  C   UNK N   1       1.217  -0.060   1.096  0.00  0.00     0.020 C 
HETATM   12  C   UNK N   1       2.233   2.103  -3.112  0.00  0.00     0.046 C 
ENDROOT
BRANCH   1  13
HETATM   13  C   UNK N   1      -2.606   0.913  -1.932  0.00  0.00     0.010 C 
HETATM   14  C   UNK N   1      -2.992   2.003  -1.234  0.00  0.00     0.026 C 
BRANCH  13  15
HETATM   15  C   UNK N   1      -3.578   0.253  -2.854  0.00  0.00     0.171 C 
HETATM   16  O   UNK N   1      -4.706   0.701  -2.994  0.00  0.00    -0.646 OA
BRANCH  15  17
HETATM   17  O   UNK N   1      -3.211  -0.851  -3.542  0.00  0.00    -0.773 OA
HETATM   18  H   UNK N   1      -3.826  -1.293  -4.145  0.00  0.00     0.167 HD
ENDBRANCH  15  17
ENDBRANCH  13  15
ENDBRANCH   1  13
BRANCH   5  19
HETATM   19  O   UNK N   1       4.669   1.425  -1.755  0.00  0.00    -0.386 OA
HETATM   20  C   UNK N   1       5.925   1.057  -2.278  0.00  0.00     0.202 C 
ENDBRANCH   5  19
TORSDOF 4
