REMARK  7 active torsions:
REMARK  status: ('A' for Active; 'I' for Inactive)
REMARK    1  A    between atoms: C_6  and  C_7 
REMARK    2  A    between atoms: C_7  and  O_8 
REMARK    3  A    between atoms: O_8  and  C_9 
REMARK    4  A    between atoms: C_15  and  O_16 
REMARK    5  A    between atoms: C_19  and  O_20 
REMARK    6  A    between atoms: O_20  and  C_21 
REMARK    7  A    between atoms: C_24  and  O_25 
ROOT
HETATM    1  O   UNK N   1      -2.468   3.209  -0.965  0.00  0.00    -0.259 OA
HETATM    2  C   UNK N   1      -1.805   2.223  -1.234  0.00  0.00     0.292 A 
HETATM    3  O   UNK N   1      -0.502   2.091  -0.925  0.00  0.00    -0.307 OA
HETATM    4  C   UNK N   1      -0.025   0.858  -1.359  0.00  0.00     0.169 A 
HETATM    5  C   UNK N   1      -1.248   0.215  -1.958  0.00  0.00    -0.036 A 
HETATM    6  C   UNK N   1      -2.292   1.030  -1.875  0.00  0.00     0.046 A 
HETATM    7  C   UNK N   1      -1.157  -1.174  -2.512  0.00  0.00     0.038 C 
HETATM    8  C   UNK N   1      -0.615  -2.067  -1.384  0.00  0.00     0.012 C 
HETATM    9  C   UNK N   1       0.699  -1.518  -0.741  0.00  0.00     0.024 C 
HETATM   10  C   UNK N   1       1.920  -1.588  -1.700  0.00  0.00     0.125 C 
HETATM   11  C   UNK N   1       3.185  -1.050  -0.998  0.00  0.00     0.067 C 
HETATM   12  C   UNK N   1       2.982   0.395  -0.487  0.00  0.00     0.168 C 
HETATM   13  C   UNK N   1       1.769   0.499   0.492  0.00  0.00     0.087 C 
HETATM   14  C   UNK N   1       0.482  -0.056  -0.204  0.00  0.00     0.063 C 
HETATM   15  C   UNK N   1       2.033  -0.267   1.816  0.00  0.00     0.049 C 
ENDROOT
BRANCH   6  16
HETATM   16  C   UNK N   1      -3.696   0.787  -2.350  0.00  0.00     0.224 C 
BRANCH  16  17
HETATM   17  O   UNK N   1      -3.874   1.445  -3.549  0.00  0.00    -0.317 OA
BRANCH  17  18
HETATM   18  C   UNK N   1      -5.021   1.391  -4.270  0.00  0.00     0.255 C 
HETATM   19  O   UNK N   1      -6.015   0.834  -3.826  0.00  0.00    -0.266 OA
HETATM   20  C   UNK N   1      -5.054   2.003  -5.633  0.00  0.00     0.126 C 
ENDBRANCH  17  18
ENDBRANCH  16  17
ENDBRANCH   6  16
BRANCH  13  21
HETATM   21  O   UNK N   1       1.538   1.851   0.824  0.00  0.00    -0.387 OA
HETATM   22  H   UNK N   1       2.367   2.228   1.220  0.00  0.00     0.210 HD
ENDBRANCH  13  21
BRANCH  10  23
HETATM   23  O   UNK N   1       2.127  -2.922  -2.089  0.00  0.00    -0.395 OA
HETATM   24  H   UNK N   1       2.822  -2.914  -2.799  0.00  0.00     0.210 HD
ENDBRANCH  10  23
BRANCH  12  25
HETATM   25  O   UNK N   1       4.127   0.846   0.150  0.00  0.00    -0.313 OA
BRANCH  25  26
HETATM   26  C   UNK N   1       5.243   1.293  -0.482  0.00  0.00     0.255 C 
HETATM   27  O   UNK N   1       5.277   1.395  -1.700  0.00  0.00    -0.266 OA
HETATM   28  C   UNK N   1       6.428   1.695   0.334  0.00  0.00     0.126 C 
ENDBRANCH  25  26
ENDBRANCH  12  25
TORSDOF 7
