REMARK  6 active torsions:
REMARK  status: ('A' for Active; 'I' for Inactive)
REMARK    1  A    between atoms: C_6  and  C_7 
REMARK    2  A    between atoms: C_7  and  O_8 
REMARK    3  A    between atoms: O_8  and  C_9 
REMARK    4  A    between atoms: C_15  and  O_16 
REMARK    5  A    between atoms: C_19  and  O_20 
REMARK    6  A    between atoms: O_20  and  C_21 
ROOT
HETATM    1  O   UNK N   1      -3.010   0.774   0.941  0.00  0.00    -0.259 OA
HETATM    2  C   UNK N   1      -1.964   0.959   0.345  0.00  0.00     0.292 A 
HETATM    3  O   UNK N   1      -0.784   1.171   0.957  0.00  0.00    -0.307 OA
HETATM    4  C   UNK N   1       0.219   1.345   0.010  0.00  0.00     0.170 A 
HETATM    5  C   UNK N   1      -0.502   1.165  -1.296  0.00  0.00    -0.036 A 
HETATM    6  C   UNK N   1      -1.792   0.936  -1.085  0.00  0.00     0.046 A 
HETATM    7  C   UNK N   1       0.271   1.236  -2.579  0.00  0.00     0.038 C 
HETATM    8  C   UNK N   1       1.400   0.194  -2.480  0.00  0.00     0.012 C 
HETATM    9  C   UNK N   1       2.250   0.336  -1.177  0.00  0.00     0.026 C 
HETATM   10  C   UNK N   1       3.135   1.622  -1.160  0.00  0.00     0.125 C 
HETATM   11  C   UNK N   1       3.961   1.708   0.150  0.00  0.00     0.069 C 
HETATM   12  C   UNK N   1       3.047   1.691   1.395  0.00  0.00     0.163 C 
HETATM   13  C   UNK N   1       2.177   0.446   1.324  0.00  0.00    -0.053 C 
HETATM   14  C   UNK N   1       1.326   0.268   0.084  0.00  0.00     0.057 C 
HETATM   15  C   UNK N   1       2.169  -0.486   2.294  0.00  0.00     0.017 C 
ENDROOT
BRANCH   6  16
HETATM   16  C   UNK N   1      -2.867   0.706  -2.107  0.00  0.00     0.224 C 
BRANCH  16  17
HETATM   17  O   UNK N   1      -3.604   1.863  -2.238  0.00  0.00    -0.317 OA
BRANCH  17  18
HETATM   18  C   UNK N   1      -4.619   2.008  -3.125  0.00  0.00     0.255 C 
HETATM   19  O   UNK N   1      -5.021   1.056  -3.779  0.00  0.00    -0.266 OA
HETATM   20  C   UNK N   1      -5.230   3.358  -3.320  0.00  0.00     0.126 C 
ENDBRANCH  17  18
ENDBRANCH  16  17
ENDBRANCH   6  16
BRANCH  10  21
HETATM   21  O   UNK N   1       3.991   1.656  -2.275  0.00  0.00    -0.395 OA
HETATM   22  H   UNK N   1       4.578   0.856  -2.230  0.00  0.00     0.210 HD
ENDBRANCH  10  21
BRANCH  12  23
HETATM   23  O   UNK N   1       3.801   1.717   2.557  0.00  0.00    -0.312 OA
BRANCH  23  24
HETATM   24  C   UNK N   1       4.406   2.828   3.053  0.00  0.00     0.255 C 
HETATM   25  O   UNK N   1       4.229   3.923   2.537  0.00  0.00    -0.266 OA
HETATM   26  C   UNK N   1       5.267   2.708   4.268  0.00  0.00     0.126 C 
ENDBRANCH  23  24
ENDBRANCH  12  23
TORSDOF 6
