REMARK  1 active torsions:
REMARK  status: ('A' for Active; 'I' for Inactive)
REMARK    1  A    between atoms: C_16  and  O_17 
ROOT
HETATM    1  O   UNK N   1      -6.216   0.831  -3.756  0.00  0.00    -0.293 OA
HETATM    2  C   UNK N   1      -5.107   1.271  -3.490  0.00  0.00     0.150 A 
HETATM    3  C   UNK N   1      -4.324   2.073  -4.394  0.00  0.00     0.053 A 
HETATM    4  C   UNK N   1      -3.197   2.412  -3.795  0.00  0.00    -0.067 A 
HETATM    5  C   UNK N   1      -2.094   3.225  -4.400  0.00  0.00     0.035 C 
HETATM    6  C   UNK N   1      -0.792   2.410  -4.351  0.00  0.00     0.010 C 
HETATM    7  C   UNK N   1      -0.509   1.827  -2.919  0.00  0.00     0.004 C 
HETATM    8  C   UNK N   1      -1.740   0.938  -2.415  0.00  0.00    -0.028 C 
HETATM    9  C   UNK N   1      -3.063   1.852  -2.399  0.00  0.00    -0.006 A 
HETATM   10  C   UNK N   1      -4.425   1.086  -2.177  0.00  0.00     0.097 A 
HETATM   11  C   UNK N   1      -3.032   3.043  -1.394  0.00  0.00     0.021 C 
HETATM   12  C   UNK N   1      -1.435   0.424  -0.982  0.00  0.00     0.011 C 
HETATM   13  C   UNK N   1      -0.058  -0.246  -0.833  0.00  0.00     0.007 C 
HETATM   14  C   UNK N   1       1.075   0.752  -1.218  0.00  0.00     0.004 C 
HETATM   15  C   UNK N   1       2.525   0.335  -0.729  0.00  0.00    -0.017 C 
HETATM   16  C   UNK N   1       3.510   1.496  -1.095  0.00  0.00     0.126 C 
HETATM   17  C   UNK N   1       3.448   1.885  -2.583  0.00  0.00     0.033 C 
HETATM   18  C   UNK N   1       2.019   2.302  -2.988  0.00  0.00     0.012 C 
HETATM   19  C   UNK N   1       0.948   1.189  -2.738  0.00  0.00    -0.035 C 
HETATM   20  C   UNK N   1       1.218   0.037  -3.760  0.00  0.00     0.016 C 
HETATM   21  C   UNK N   1       3.013  -1.027  -1.287  0.00  0.00     0.018 C 
HETATM   22  C   UNK N   1       2.536   0.195   0.820  0.00  0.00     0.018 C 
HETATM   23  C   UNK N   1      -1.983  -0.298  -3.351  0.00  0.00     0.016 C 
ENDROOT
BRANCH  16  24
HETATM   24  O   UNK N   1       4.827   1.145  -0.745  0.00  0.00    -0.395 OA
HETATM   25  H   UNK N   1       5.390   1.954  -0.865  0.00  0.00     0.210 HD
ENDBRANCH  16  24
TORSDOF 1
