REMARK  8 active torsions:
REMARK  status: ('A' for Active; 'I' for Inactive)
REMARK    1  A    between atoms: O_1  and  C_2 
REMARK    2  A    between atoms: C_15  and  C_16 
REMARK    3  A    between atoms: C_16  and  C_17 
REMARK    4  A    between atoms: C_17  and  C_18 
REMARK    5  A    between atoms: C_18  and  O_19 
REMARK    6  A    between atoms: C_18  and  C_21 
REMARK    7  A    between atoms: C_21  and  C_22 
REMARK    8  A    between atoms: C_29  and  O_30 
ROOT
HETATM    1  C   UNK N   1       3.487   1.270  -0.706  0.00  0.00     0.124 C 
HETATM    2  C   UNK N   1       2.967  -0.193  -0.689  0.00  0.00     0.029 C 
HETATM    3  C   UNK N   1       1.844  -0.419   0.387  0.00  0.00    -0.014 C 
HETATM    4  C   UNK N   1       0.738   0.634   0.124  0.00  0.00    -0.070 C 
HETATM    5  C   UNK N   1      -0.566   0.296  -0.076  0.00  0.00    -0.022 C 
HETATM    6  C   UNK N   1      -1.666   1.311  -0.338  0.00  0.00     0.037 C 
HETATM    7  C   UNK N   1      -1.161   2.597  -1.060  0.00  0.00    -0.033 C 
HETATM    8  C   UNK N   1       0.003   3.084  -0.099  0.00  0.00     0.002 C 
HETATM    9  C   UNK N   1       1.197   2.098   0.057  0.00  0.00     0.022 C 
HETATM   10  C   UNK N   1       2.322   2.240  -0.996  0.00  0.00     0.041 C 
HETATM   11  C   UNK N   1       0.420   4.524  -0.392  0.00  0.00     0.006 C 
HETATM   12  C   UNK N   1      -0.751   5.485  -0.137  0.00  0.00     0.001 C 
HETATM   13  C   UNK N   1      -2.136   4.803  -0.114  0.00  0.00     0.006 C 
HETATM   14  C   UNK N   1      -2.290   3.746  -1.240  0.00  0.00    -0.002 C 
HETATM   15  C   UNK N   1      -0.645   2.227  -2.482  0.00  0.00     0.016 C 
HETATM   16  C   UNK N   1       1.352  -1.898   0.238  0.00  0.00     0.016 C 
HETATM   17  C   UNK N   1       2.494  -2.925   0.377  0.00  0.00     0.033 C 
HETATM   18  C   UNK N   1       3.604  -2.649  -0.645  0.00  0.00     0.118 C 
HETATM   19  C   UNK N   1       4.126  -1.206  -0.513  0.00  0.00     0.039 C 
HETATM   20  C   UNK N   1       2.341  -0.207   1.849  0.00  0.00     0.020 C 
ENDROOT
BRANCH  14  21
HETATM   21  C   UNK N   1      -3.797   3.247  -1.368  0.00  0.00    -0.012 C 
HETATM   22  C   UNK N   1      -4.797   4.433  -1.424  0.00  0.00     0.010 C 
BRANCH  21  23
HETATM   23  C   UNK N   1      -4.050   2.338  -2.616  0.00  0.00     0.036 C 
BRANCH  23  24
HETATM   24  C   UNK N   1      -5.496   1.801  -2.817  0.00  0.00     0.118 C 
BRANCH  24  25
HETATM   25  O   UNK N   1      -5.514   1.003  -3.974  0.00  0.00    -0.396 OA
HETATM   26  H   UNK N   1      -5.010   0.170  -3.776  0.00  0.00     0.210 HD
ENDBRANCH  24  25
BRANCH  24  27
HETATM   27  C   UNK N   1      -6.051   1.023  -1.590  0.00  0.00     0.035 C 
BRANCH  27  28
HETATM   28  C   UNK N   1      -7.563   0.679  -1.663  0.00  0.00    -0.020 C 
HETATM   29  C   UNK N   1      -8.002   0.003  -0.354  0.00  0.00     0.009 C 
HETATM   30  C   UNK N   1      -7.936  -0.228  -2.844  0.00  0.00     0.009 C 
ENDBRANCH  27  28
ENDBRANCH  24  27
ENDBRANCH  23  24
ENDBRANCH  21  23
ENDBRANCH  14  21
BRANCH   1  31
HETATM   31  O   UNK N   1       4.458   1.412  -1.711  0.00  0.00    -0.395 OA
HETATM   32  H   UNK N   1       4.888   2.297  -1.576  0.00  0.00     0.210 HD
ENDBRANCH   1  31
BRANCH  18  33
HETATM   33  O   UNK N   1       4.649  -3.565  -0.444  0.00  0.00    -0.396 OA
HETATM   34  H   UNK N   1       5.276  -3.460  -1.206  0.00  0.00     0.210 HD
ENDBRANCH  18  33
TORSDOF 8
