REMARK  5 active torsions:
REMARK  status: ('A' for Active; 'I' for Inactive)
REMARK    1  A    between atoms: C_6  and  C_7 
REMARK    2  A    between atoms: C_7  and  O_8 
REMARK    3  A    between atoms: C_13  and  O_14 
REMARK    4  A    between atoms: C_17  and  O_18 
REMARK    5  A    between atoms: O_18  and  C_19 
ROOT
HETATM    1  O   UNK N   1      -3.526   1.689  -1.132  0.00  0.00    -0.259 OA
HETATM    2  C   UNK N   1      -2.660   0.973  -1.600  0.00  0.00     0.292 A 
HETATM    3  O   UNK N   1      -1.363   1.055  -1.255  0.00  0.00    -0.307 OA
HETATM    4  C   UNK N   1      -0.625   0.110  -1.953  0.00  0.00     0.170 A 
HETATM    5  C   UNK N   1      -1.656  -0.618  -2.758  0.00  0.00    -0.036 A 
HETATM    6  C   UNK N   1      -2.858  -0.099  -2.551  0.00  0.00     0.045 A 
HETATM    7  C   UNK N   1      -1.237  -1.771  -3.620  0.00  0.00     0.038 C 
HETATM    8  C   UNK N   1      -0.476  -2.767  -2.718  0.00  0.00     0.012 C 
HETATM    9  C   UNK N   1       0.661  -2.098  -1.875  0.00  0.00     0.026 C 
HETATM   10  C   UNK N   1       1.887  -1.626  -2.724  0.00  0.00     0.125 C 
HETATM   11  C   UNK N   1       2.970  -0.950  -1.828  0.00  0.00     0.069 C 
HETATM   12  C   UNK N   1       2.364   0.249  -1.061  0.00  0.00     0.163 C 
HETATM   13  C   UNK N   1       1.183  -0.267  -0.258  0.00  0.00    -0.053 C 
HETATM   14  C   UNK N   1       0.069  -0.922  -1.035  0.00  0.00     0.057 C 
HETATM   15  C   UNK N   1       1.120  -0.181   1.084  0.00  0.00     0.017 C 
ENDROOT
BRANCH  12  16
HETATM   16  O   UNK N   1       3.254   0.919  -0.240  0.00  0.00    -0.312 OA
BRANCH  16  17
HETATM   17  C   UNK N   1       4.239   1.738  -0.683  0.00  0.00     0.255 C 
HETATM   18  O   UNK N   1       4.750   1.576  -1.781  0.00  0.00    -0.266 OA
HETATM   19  C   UNK N   1       4.624   2.912   0.158  0.00  0.00     0.126 C 
ENDBRANCH  16  17
ENDBRANCH  12  16
BRANCH  10  20
HETATM   20  O   UNK N   1       2.445  -2.699  -3.440  0.00  0.00    -0.395 OA
HETATM   21  H   UNK N   1       2.754  -3.374  -2.780  0.00  0.00     0.210 HD
ENDBRANCH  10  20
BRANCH   6  22
HETATM   22  C   UNK N   1      -4.148  -0.544  -3.185  0.00  0.00     0.209 C 
BRANCH  22  23
HETATM   23  O   UNK N   1      -5.186   0.353  -2.901  0.00  0.00    -0.396 OA
HETATM   24  H   UNK N   1      -5.042   1.139  -3.495  0.00  0.00     0.209 HD
ENDBRANCH  22  23
ENDBRANCH   6  22
TORSDOF 5
