REMARK  14 active torsions:
REMARK  status: ('A' for Active; 'I' for Inactive)
REMARK    1  A    between atoms: C_2  and  O_3 
REMARK    2  A    between atoms: O_3  and  C_4 
REMARK    3  A    between atoms: C_4  and  C_5 
REMARK    4  A    between atoms: C_4  and  C_18 
REMARK    5  A    between atoms: C_5  and  O_6 
REMARK    6  A    between atoms: C_5  and  C_8 
REMARK    7  A    between atoms: C_10  and  O_11 
REMARK    8  A    between atoms: C_13  and  O_14 
REMARK    9  A    between atoms: C_18  and  O_19 
REMARK   10  A    between atoms: C_21  and  O_22 
REMARK   11  A    between atoms: C_24  and  O_25 
REMARK   12  A    between atoms: C_27  and  O_28 
REMARK   13  A    between atoms: C_30  and  C_31 
REMARK   14  A    between atoms: C_31  and  O_32 
ROOT
HETATM    1  C   UNK N   1       1.459   1.404  -0.982  0.00  0.00     0.181 C 
ENDROOT
BRANCH   1   2
HETATM    2  O   UNK N   1       0.758   2.222  -1.921  0.00  0.00    -0.348 OA
BRANCH   2   3
HETATM    3  C   UNK N   1      -0.613   1.878  -2.112  0.00  0.00     0.292 C 
HETATM    4  O   UNK N   1      -1.174   2.854  -2.995  0.00  0.00    -0.348 OA
HETATM    5  C   UNK N   1      -2.393   2.478  -3.653  0.00  0.00     0.179 C 
HETATM    6  C   UNK N   1      -3.168   1.369  -2.903  0.00  0.00     0.180 C 
HETATM    7  C   UNK N   1      -2.297   0.105  -2.740  0.00  0.00     0.183 C 
HETATM    8  C   UNK N   1      -0.794   0.452  -2.701  0.00  0.00     0.204 C 
BRANCH   5   9
HETATM    9  C   UNK N   1      -3.258   3.739  -3.807  0.00  0.00     0.198 C 
BRANCH   9  10
HETATM   10  O   UNK N   1      -3.569   4.270  -2.548  0.00  0.00    -0.398 OA
HETATM   11  H   UNK N   1      -4.151   5.056  -2.714  0.00  0.00     0.209 HD
ENDBRANCH   9  10
ENDBRANCH   5   9
BRANCH   6  12
HETATM   12  O   UNK N   1      -4.371   1.052  -3.555  0.00  0.00    -0.390 OA
HETATM   13  H   UNK N   1      -4.903   0.498  -2.926  0.00  0.00     0.210 HD
ENDBRANCH   6  12
BRANCH   7  14
HETATM   14  O   UNK N   1      -2.661  -0.531  -1.539  0.00  0.00    -0.390 OA
HETATM   15  H   UNK N   1      -3.506  -1.021  -1.709  0.00  0.00     0.210 HD
ENDBRANCH   7  14
BRANCH   8  16
HETATM   16  O   UNK N   1      -0.266   0.435  -4.004  0.00  0.00    -0.388 OA
HETATM   17  H   UNK N   1       0.723   0.460  -3.913  0.00  0.00     0.210 HD
ENDBRANCH   8  16
ENDBRANCH   2   3
ENDBRANCH   1   2
BRANCH   1  18
HETATM   18  C   UNK N   1       0.920   1.561   0.470  0.00  0.00     0.182 C 
BRANCH  18  19
HETATM   19  O   UNK N   1       1.054   2.895   0.890  0.00  0.00    -0.388 OA
HETATM   20  H   UNK N   1       0.541   2.984   1.736  0.00  0.00     0.210 HD
ENDBRANCH  18  19
BRANCH  18  21
HETATM   21  C   UNK N   1       1.588   0.599   1.430  0.00  0.00    -0.024 A 
HETATM   22  C   UNK N   1       2.690   0.992   2.201  0.00  0.00     0.049 A 
HETATM   23  C   UNK N   1       3.282   0.097   3.099  0.00  0.00     0.102 A 
HETATM   24  C   UNK N   1       2.765  -1.200   3.250  0.00  0.00     0.101 A 
HETATM   25  C   UNK N   1       1.661  -1.597   2.470  0.00  0.00     0.040 A 
HETATM   26  C   UNK N   1       1.084  -0.705   1.565  0.00  0.00     0.013 A 
BRANCH  23  27
HETATM   27  O   UNK N   1       4.353   0.487   3.818  0.00  0.00    -0.353 OA
HETATM   28  C   UNK N   1       5.624   0.397   3.296  0.00  0.00     0.210 C 
ENDBRANCH  23  27
BRANCH  24  29
HETATM   29  O   UNK N   1       3.352  -2.034   4.151  0.00  0.00    -0.353 OA
HETATM   30  C   UNK N   1       2.937  -3.319   4.428  0.00  0.00     0.210 C 
ENDBRANCH  24  29
ENDBRANCH  18  21
ENDBRANCH   1  18
BRANCH   1  31
HETATM   31  C   UNK N   1       2.951   1.778  -1.063  0.00  0.00     0.199 C 
BRANCH  31  32
HETATM   32  O   UNK N   1       3.413   1.606  -2.375  0.00  0.00    -0.398 OA
HETATM   33  H   UNK N   1       4.387   1.796  -2.351  0.00  0.00     0.209 HD
ENDBRANCH  31  32
ENDBRANCH   1  31
TORSDOF 14
