REMARK  11 active torsions:
REMARK  status: ('A' for Active; 'I' for Inactive)
REMARK    1  A    between atoms: C_6  and  C_7 
REMARK    2  A    between atoms: C_7  and  O_8 
REMARK    3  A    between atoms: O_8  and  C_9 
REMARK    4  A    between atoms: C_11  and  C_21 
REMARK    5  A    between atoms: C_12  and  O_13 
REMARK    6  A    between atoms: C_15  and  O_16 
REMARK    7  A    between atoms: C_18  and  O_19 
REMARK    8  A    between atoms: C_21  and  O_22 
REMARK    9  A    between atoms: C_24  and  C_25 
REMARK   10  A    between atoms: C_25  and  C_26 
REMARK   11  A    between atoms: C_26  and  O_27 
ROOT
HETATM    1  C   UNK N   1      -1.690   0.019  -1.681  0.00  0.00     0.291 C 
HETATM    2  O   UNK N   1      -2.322  -0.663  -0.607  0.00  0.00    -0.348 OA
HETATM    3  C   UNK N   1      -3.429   0.067  -0.096  0.00  0.00     0.179 C 
HETATM    4  C   UNK N   1      -4.515   0.254  -1.183  0.00  0.00     0.180 C 
HETATM    5  C   UNK N   1      -3.904   0.972  -2.401  0.00  0.00     0.183 C 
HETATM    6  C   UNK N   1      -2.661   0.197  -2.862  0.00  0.00     0.204 C 
ENDROOT
BRANCH   1   7
HETATM    7  O   UNK N   1      -1.149   1.272  -1.285  0.00  0.00    -0.358 OA
BRANCH   7   8
HETATM    8  C   UNK N   1      -0.157   1.150  -0.277  0.00  0.00     0.181 C 
BRANCH   8   9
HETATM    9  C   UNK N   1       1.102   0.339  -0.695  0.00  0.00     0.050 A 
HETATM   10  C   UNK N   1       2.123   0.299   0.423  0.00  0.00    -0.073 A 
HETATM   11  C   UNK N   1       3.317   0.705   0.039  0.00  0.00     0.053 A 
HETATM   12  C   UNK N   1       1.827  -0.201   1.809  0.00  0.00     0.044 C 
HETATM   13  C   UNK N   1       3.285   1.046  -1.357  0.00  0.00     0.154 A 
HETATM   14  O   UNK N   1       4.275   1.377  -1.987  0.00  0.00    -0.293 OA
HETATM   15  C   UNK N   1       1.915   0.864  -1.945  0.00  0.00     0.072 A 
BRANCH  15  16
HETATM   16  C   UNK N   1       1.375   2.150  -2.629  0.00  0.00     0.039 C 
BRANCH  16  17
HETATM   17  C   UNK N   1       2.169   2.579  -3.870  0.00  0.00     0.165 C 
BRANCH  17  18
HETATM   18  O   UNK N   1       2.177   1.542  -4.814  0.00  0.00    -0.401 OA
HETATM   19  H   UNK N   1       2.720   1.867  -5.578  0.00  0.00     0.209 HD
ENDBRANCH  17  18
ENDBRANCH  16  17
ENDBRANCH  15  16
ENDBRANCH   8   9
ENDBRANCH   7   8
ENDBRANCH   1   7
BRANCH   6  20
HETATM   20  O   UNK N   1      -2.036   0.887  -3.915  0.00  0.00    -0.388 OA
HETATM   21  H   UNK N   1      -1.311   0.302  -4.257  0.00  0.00     0.210 HD
ENDBRANCH   6  20
BRANCH   3  22
HETATM   22  C   UNK N   1      -3.990  -0.710   1.102  0.00  0.00     0.198 C 
BRANCH  22  23
HETATM   23  O   UNK N   1      -2.993  -0.856   2.075  0.00  0.00    -0.398 OA
HETATM   24  H   UNK N   1      -3.386  -1.421   2.791  0.00  0.00     0.209 HD
ENDBRANCH  22  23
ENDBRANCH   3  22
BRANCH   5  25
HETATM   25  O   UNK N   1      -4.859   1.028  -3.431  0.00  0.00    -0.390 OA
HETATM   26  H   UNK N   1      -4.469   1.566  -4.168  0.00  0.00     0.210 HD
ENDBRANCH   5  25
BRANCH   4  27
HETATM   27  O   UNK N   1      -5.579   1.009  -0.660  0.00  0.00    -0.390 OA
HETATM   28  H   UNK N   1      -6.315   0.979  -1.325  0.00  0.00     0.210 HD
ENDBRANCH   4  27
TORSDOF 11
