REMARK  8 active torsions:
REMARK  status: ('A' for Active; 'I' for Inactive)
REMARK    1  A    between atoms: C_2  and  O_3 
REMARK    2  A    between atoms: C_2  and  C_25 
REMARK    3  A    between atoms: O_3  and  C_4 
REMARK    4  A    between atoms: C_6  and  O_7 
REMARK    5  A    between atoms: C_6  and  C_9 
REMARK    6  A    between atoms: C_15  and  O_16 
REMARK    7  A    between atoms: O_16  and  C_17 
REMARK    8  A    between atoms: C_28  and  O_29 
ROOT
HETATM    1  C   UNK N   1       1.748   2.362  -0.193  0.00  0.00     0.144 C 
HETATM    2  C   UNK N   1       2.866   1.530  -0.943  0.00  0.00     0.061 C 
HETATM    3  C   UNK N   1       4.353   2.042  -0.817  0.00  0.00     0.068 C 
HETATM    4  C   UNK N   1       4.781   1.360   0.485  0.00  0.00     0.040 C 
HETATM    5  C   UNK N   1       4.248  -0.066   0.356  0.00  0.00     0.015 C 
HETATM    6  C   UNK N   1       2.968   0.017  -0.537  0.00  0.00    -0.005 C 
HETATM    7  C   UNK N   1       1.729  -0.625   0.163  0.00  0.00     0.163 C 
HETATM    8  C   UNK N   1       1.387  -0.170   1.565  0.00  0.00     0.008 C 
HETATM    9  C   UNK N   1       1.365   1.084   2.078  0.00  0.00    -0.083 C 
HETATM   10  C   UNK N   1       1.675   2.371   1.338  0.00  0.00     0.066 C 
HETATM   11  C   UNK N   1       1.013   1.242   3.540  0.00  0.00     0.043 C 
HETATM   12  C   UNK N   1       3.212  -0.838  -1.824  0.00  0.00     0.019 C 
ENDROOT
BRANCH   1  13
HETATM   13  O   UNK N   1       0.479   2.042  -0.652  0.00  0.00    -0.311 OA
BRANCH  13  14
HETATM   14  C   UNK N   1      -0.010   2.390  -1.875  0.00  0.00     0.293 C 
HETATM   15  O   UNK N   1       0.684   3.009  -2.668  0.00  0.00    -0.259 OA
BRANCH  14  16
HETATM   16  C   UNK N   1      -1.390   2.016  -2.247  0.00  0.00     0.039 A 
HETATM   17  C   UNK N   1      -2.253   1.437  -1.304  0.00  0.00     0.020 A 
HETATM   18  C   UNK N   1      -3.547   1.056  -1.673  0.00  0.00     0.038 A 
HETATM   19  C   UNK N   1      -3.994   1.239  -2.987  0.00  0.00     0.068 A 
HETATM   20  C   UNK N   1      -3.133   1.837  -3.929  0.00  0.00     0.038 A 
HETATM   21  C   UNK N   1      -1.846   2.226  -3.558  0.00  0.00     0.020 A 
BRANCH  19  22
HETATM   22  O   UNK N   1      -5.245   0.820  -3.314  0.00  0.00    -0.356 OA
HETATM   23  C   UNK N   1      -5.776   0.846  -4.587  0.00  0.00     0.210 C 
ENDBRANCH  19  22
ENDBRANCH  14  16
ENDBRANCH  13  14
ENDBRANCH   1  13
BRANCH   3  24
HETATM   24  O   UNK N   1       5.152   1.494  -1.844  0.00  0.00    -0.389 OA
HETATM   25  H   UNK N   1       4.727   1.697  -2.717  0.00  0.00     0.210 HD
ENDBRANCH   3  24
BRANCH   3  26
HETATM   26  C   UNK N   1       4.565   3.599  -0.807  0.00  0.00     0.012 C 
HETATM   27  C   UNK N   1       6.047   3.972  -0.617  0.00  0.00     0.012 C 
HETATM   28  C   UNK N   1       4.064   4.277  -2.101  0.00  0.00     0.012 C 
ENDBRANCH   3  26
BRANCH   7  29
HETATM   29  O   UNK N   1       0.599  -0.636  -0.648  0.00  0.00    -0.312 OA
BRANCH  29  30
HETATM   30  C   UNK N   1       0.041  -1.775  -1.163  0.00  0.00     0.255 C 
HETATM   31  O   UNK N   1       0.512  -2.877  -0.913  0.00  0.00    -0.266 OA
HETATM   32  C   UNK N   1      -1.151  -1.686  -2.059  0.00  0.00     0.126 C 
ENDBRANCH  29  30
ENDBRANCH   7  29
TORSDOF 8
