REMARK  7 active torsions:
REMARK  status: ('A' for Active; 'I' for Inactive)
REMARK    1  A    between atoms: C_2  and  O_3 
REMARK    2  A    between atoms: C_2  and  C_23 
REMARK    3  A    between atoms: O_3  and  C_4 
REMARK    4  A    between atoms: C_6  and  O_7 
REMARK    5  A    between atoms: C_6  and  C_9 
REMARK    6  A    between atoms: C_17  and  O_18 
REMARK    7  A    between atoms: C_26  and  O_27 
ROOT
HETATM    1  C   UNK N   1       1.572   0.008  -0.995  0.00  0.00     0.143 C 
HETATM    2  C   UNK N   1       1.462  -0.954   0.219  0.00  0.00     0.062 C 
HETATM    3  C   UNK N   1       0.884  -2.385  -0.051  0.00  0.00     0.068 C 
HETATM    4  C   UNK N   1       1.294  -3.099   1.257  0.00  0.00     0.040 C 
HETATM    5  C   UNK N   1       2.739  -2.682   1.411  0.00  0.00     0.016 C 
HETATM    6  C   UNK N   1       2.755  -1.161   1.102  0.00  0.00    -0.018 C 
HETATM    7  C   UNK N   1       4.129  -0.838   0.521  0.00  0.00    -0.018 C 
HETATM    8  C   UNK N   1       4.529   0.252  -0.164  0.00  0.00     0.007 C 
HETATM    9  C   UNK N   1       3.718   1.420  -0.710  0.00  0.00     0.074 C 
HETATM   10  C   UNK N   1       2.179   1.355  -0.565  0.00  0.00     0.074 C 
HETATM   11  C   UNK N   1       4.218   2.708  -0.040  0.00  0.00     0.050 C 
HETATM   12  C   UNK N   1       2.628  -0.387   2.441  0.00  0.00     0.020 C 
ENDROOT
BRANCH   1  13
HETATM   13  O   UNK N   1       0.307   0.265  -1.494  0.00  0.00    -0.311 OA
BRANCH  13  14
HETATM   14  C   UNK N   1      -0.142  -0.131  -2.718  0.00  0.00     0.293 C 
HETATM   15  O   UNK N   1       0.539  -0.859  -3.427  0.00  0.00    -0.259 OA
BRANCH  14  16
HETATM   16  C   UNK N   1      -1.530   0.192  -3.107  0.00  0.00     0.039 A 
HETATM   17  C   UNK N   1      -2.174  -0.540  -4.119  0.00  0.00     0.020 A 
HETATM   18  C   UNK N   1      -3.503  -0.264  -4.448  0.00  0.00     0.037 A 
HETATM   19  C   UNK N   1      -4.195   0.760  -3.785  0.00  0.00     0.065 A 
HETATM   20  C   UNK N   1      -3.550   1.503  -2.790  0.00  0.00     0.037 A 
HETATM   21  C   UNK N   1      -2.228   1.214  -2.444  0.00  0.00     0.020 A 
BRANCH  19  22
HETATM   22  O   UNK N   1      -5.478   1.033  -4.093  0.00  0.00    -0.361 OA
HETATM   23  H   UNK N   1      -5.959   0.525  -4.762  0.00  0.00     0.217 HD
ENDBRANCH  19  22
ENDBRANCH  14  16
ENDBRANCH  13  14
ENDBRANCH   1  13
BRANCH   3  24
HETATM   24  O   UNK N   1       1.591  -2.916  -1.155  0.00  0.00    -0.389 OA
HETATM   25  H   UNK N   1       1.591  -3.906  -1.094  0.00  0.00     0.210 HD
ENDBRANCH   3  24
BRANCH   3  26
HETATM   26  C   UNK N   1      -0.669  -2.487  -0.338  0.00  0.00     0.012 C 
HETATM   27  C   UNK N   1      -1.122  -3.937  -0.593  0.00  0.00     0.012 C 
HETATM   28  C   UNK N   1      -1.571  -1.878   0.755  0.00  0.00     0.012 C 
ENDBRANCH   3  26
BRANCH   9  29
HETATM   29  O   UNK N   1       4.019   1.542  -2.085  0.00  0.00    -0.386 OA
HETATM   30  H   UNK N   1       3.907   0.662  -2.529  0.00  0.00     0.211 HD
ENDBRANCH   9  29
TORSDOF 7
