REMARK  8 active torsions:
REMARK  status: ('A' for Active; 'I' for Inactive)
REMARK    1  A    between atoms: C_2  and  O_3 
REMARK    2  A    between atoms: C_2  and  C_25 
REMARK    3  A    between atoms: O_3  and  C_4 
REMARK    4  A    between atoms: C_6  and  O_7 
REMARK    5  A    between atoms: C_6  and  C_9 
REMARK    6  A    between atoms: C_15  and  O_16 
REMARK    7  A    between atoms: O_16  and  C_17 
REMARK    8  A    between atoms: C_28  and  O_29 
ROOT
HETATM    1  C   UNK N   1       2.096   1.881  -0.781  0.00  0.00     0.144 C 
HETATM    2  C   UNK N   1       3.430   1.303  -1.385  0.00  0.00     0.061 C 
HETATM    3  C   UNK N   1       4.009   1.984  -2.683  0.00  0.00     0.068 C 
HETATM    4  C   UNK N   1       3.419   1.061  -3.764  0.00  0.00     0.040 C 
HETATM    5  C   UNK N   1       3.808  -0.311  -3.226  0.00  0.00     0.015 C 
HETATM    6  C   UNK N   1       3.424  -0.250  -1.723  0.00  0.00    -0.005 C 
HETATM    7  C   UNK N   1       2.067  -1.021  -1.558  0.00  0.00     0.163 C 
HETATM    8  C   UNK N   1       1.540  -1.124  -0.146  0.00  0.00     0.008 C 
HETATM    9  C   UNK N   1       1.422  -0.143   0.785  0.00  0.00    -0.083 C 
HETATM   10  C   UNK N   1       1.796   1.323   0.617  0.00  0.00     0.066 C 
HETATM   11  C   UNK N   1       0.889  -0.525   2.146  0.00  0.00     0.043 C 
HETATM   12  C   UNK N   1       4.503  -0.982  -0.888  0.00  0.00     0.019 C 
ENDROOT
BRANCH   1  13
HETATM   13  O   UNK N   1       0.960   1.666  -1.528  0.00  0.00    -0.311 OA
BRANCH  13  14
HETATM   14  C   UNK N   1       0.080   2.592  -1.992  0.00  0.00     0.293 C 
HETATM   15  O   UNK N   1       0.414   3.752  -2.168  0.00  0.00    -0.259 OA
BRANCH  14  16
HETATM   16  C   UNK N   1      -1.304   2.163  -2.270  0.00  0.00     0.039 A 
HETATM   17  C   UNK N   1      -2.135   2.912  -3.119  0.00  0.00     0.020 A 
HETATM   18  C   UNK N   1      -3.433   2.471  -3.393  0.00  0.00     0.037 A 
HETATM   19  C   UNK N   1      -3.921   1.296  -2.802  0.00  0.00     0.065 A 
HETATM   20  C   UNK N   1      -3.105   0.566  -1.932  0.00  0.00     0.037 A 
HETATM   21  C   UNK N   1      -1.801   0.992  -1.673  0.00  0.00     0.020 A 
BRANCH  19  22
HETATM   22  O   UNK N   1      -5.168   0.858  -3.067  0.00  0.00    -0.361 OA
HETATM   23  H   UNK N   1      -5.750   1.324  -3.683  0.00  0.00     0.217 HD
ENDBRANCH  19  22
ENDBRANCH  14  16
ENDBRANCH  13  14
ENDBRANCH   1  13
BRANCH   3  24
HETATM   24  O   UNK N   1       5.418   1.829  -2.647  0.00  0.00    -0.389 OA
HETATM   25  H   UNK N   1       5.775   1.892  -3.571  0.00  0.00     0.210 HD
ENDBRANCH   3  24
BRANCH   3  26
HETATM   26  C   UNK N   1       3.707   3.510  -2.887  0.00  0.00     0.012 C 
HETATM   27  C   UNK N   1       4.366   4.384  -1.800  0.00  0.00     0.012 C 
HETATM   28  C   UNK N   1       4.165   4.032  -4.264  0.00  0.00     0.012 C 
ENDBRANCH   3  26
BRANCH   7  29
HETATM   29  O   UNK N   1       1.073  -0.605  -2.440  0.00  0.00    -0.312 OA
BRANCH  29  30
HETATM   30  C   UNK N   1       0.534  -1.377  -3.432  0.00  0.00     0.255 C 
HETATM   31  O   UNK N   1       0.875  -2.542  -3.579  0.00  0.00    -0.266 OA
HETATM   32  C   UNK N   1      -0.477  -0.793  -4.367  0.00  0.00     0.126 C 
ENDBRANCH  29  30
ENDBRANCH   7  29
TORSDOF 8
