REMARK  8 active torsions:
REMARK  status: ('A' for Active; 'I' for Inactive)
REMARK    1  A    between atoms: C_2  and  O_3 
REMARK    2  A    between atoms: C_2  and  C_23 
REMARK    3  A    between atoms: O_3  and  C_4 
REMARK    4  A    between atoms: C_6  and  O_7 
REMARK    5  A    between atoms: C_6  and  C_9 
REMARK    6  A    between atoms: C_17  and  O_18 
REMARK    7  A    between atoms: C_25  and  O_26 
REMARK    8  A    between atoms: C_28  and  O_29 
ROOT
HETATM    1  C   UNK N   1       1.324   0.414  -0.751  0.00  0.00     0.143 C 
HETATM    2  C   UNK N   1       1.216  -0.650   0.377  0.00  0.00     0.062 C 
HETATM    3  C   UNK N   1       0.417  -1.966   0.078  0.00  0.00     0.068 C 
HETATM    4  C   UNK N   1       0.819  -2.811   1.301  0.00  0.00     0.040 C 
HETATM    5  C   UNK N   1       2.319  -2.617   1.347  0.00  0.00     0.016 C 
HETATM    6  C   UNK N   1       2.543  -1.100   1.103  0.00  0.00    -0.018 C 
HETATM    7  C   UNK N   1       3.873  -0.957   0.373  0.00  0.00    -0.018 C 
HETATM    8  C   UNK N   1       4.355   0.088  -0.328  0.00  0.00     0.007 C 
HETATM    9  C   UNK N   1       3.693   1.400  -0.726  0.00  0.00     0.074 C 
HETATM   10  C   UNK N   1       2.216   1.590  -0.326  0.00  0.00     0.074 C 
HETATM   11  C   UNK N   1       4.502   2.577  -0.150  0.00  0.00     0.050 C 
HETATM   12  C   UNK N   1       2.680  -0.404   2.484  0.00  0.00     0.020 C 
ENDROOT
BRANCH   1  13
HETATM   13  O   UNK N   1       0.069   0.935  -0.998  0.00  0.00    -0.311 OA
BRANCH  13  14
HETATM   14  C   UNK N   1      -0.622   0.803  -2.160  0.00  0.00     0.293 C 
HETATM   15  O   UNK N   1      -0.213   0.073  -3.051  0.00  0.00    -0.259 OA
BRANCH  14  16
HETATM   16  C   UNK N   1      -1.944   1.444  -2.273  0.00  0.00     0.042 A 
HETATM   17  C   UNK N   1      -2.880   0.966  -3.200  0.00  0.00     0.057 A 
HETATM   18  C   UNK N   1      -4.166   1.537  -3.275  0.00  0.00     0.102 A 
HETATM   19  C   UNK N   1      -4.488   2.620  -2.433  0.00  0.00     0.099 A 
HETATM   20  C   UNK N   1      -3.542   3.104  -1.523  0.00  0.00     0.040 A 
HETATM   21  C   UNK N   1      -2.284   2.512  -1.431  0.00  0.00     0.020 A 
BRANCH  18  22
HETATM   22  O   UNK N   1      -5.111   1.053  -4.127  0.00  0.00    -0.353 OA
HETATM   23  C   UNK N   1      -4.956  -0.061  -4.930  0.00  0.00     0.210 C 
ENDBRANCH  18  22
BRANCH  19  24
HETATM   24  O   UNK N   1      -5.707   3.199  -2.477  0.00  0.00    -0.358 OA
HETATM   25  H   UNK N   1      -6.402   2.896  -3.078  0.00  0.00     0.218 HD
ENDBRANCH  19  24
ENDBRANCH  14  16
ENDBRANCH  13  14
ENDBRANCH   1  13
BRANCH   3  26
HETATM   26  O   UNK N   1       0.949  -2.586  -1.073  0.00  0.00    -0.389 OA
HETATM   27  H   UNK N   1       0.657  -2.069  -1.867  0.00  0.00     0.210 HD
ENDBRANCH   3  26
BRANCH   3  28
HETATM   28  C   UNK N   1      -1.154  -1.857  -0.073  0.00  0.00     0.012 C 
HETATM   29  C   UNK N   1      -1.796  -3.238  -0.308  0.00  0.00     0.012 C 
HETATM   30  C   UNK N   1      -1.874  -1.169   1.104  0.00  0.00     0.012 C 
ENDBRANCH   3  28
BRANCH   9  31
HETATM   31  O   UNK N   1       3.727   1.467  -2.137  0.00  0.00    -0.386 OA
HETATM   32  H   UNK N   1       4.673   1.488  -2.438  0.00  0.00     0.211 HD
ENDBRANCH   9  31
TORSDOF 8
