REMARK  7 active torsions:
REMARK  status: ('A' for Active; 'I' for Inactive)
REMARK    1  A    between atoms: C_2  and  O_3 
REMARK    2  A    between atoms: C_2  and  C_23 
REMARK    3  A    between atoms: O_3  and  C_4 
REMARK    4  A    between atoms: C_6  and  O_7 
REMARK    5  A    between atoms: C_6  and  C_9 
REMARK    6  A    between atoms: C_16  and  O_17 
REMARK    7  A    between atoms: C_26  and  O_27 
ROOT
HETATM    1  C   UNK N   1       1.398   1.476  -2.077  0.00  0.00     0.163 C 
HETATM    2  C   UNK N   1       1.533   1.673  -0.548  0.00  0.00     0.062 C 
HETATM    3  C   UNK N   1       2.985   1.517   0.040  0.00  0.00     0.068 C 
HETATM    4  C   UNK N   1       3.331   2.985   0.366  0.00  0.00     0.039 C 
HETATM    5  C   UNK N   1       2.055   3.544   0.967  0.00  0.00     0.012 C 
HETATM    6  C   UNK N   1       0.940   3.007   0.044  0.00  0.00    -0.032 C 
HETATM    7  C   UNK N   1       0.495   4.056  -1.025  0.00  0.00     0.046 C 
HETATM    8  C   UNK N   1       1.523   4.661  -1.993  0.00  0.00     0.147 C 
HETATM    9  C   UNK N   1       2.291   3.735  -2.929  0.00  0.00    -0.057 C 
HETATM   10  C   UNK N   1       2.233   2.381  -2.945  0.00  0.00     0.011 C 
HETATM   11  C   UNK N   1       3.236   4.408  -3.900  0.00  0.00     0.046 C 
HETATM   12  C   UNK N   1      -0.323   2.721   0.896  0.00  0.00     0.016 C 
ENDROOT
BRANCH   1  13
HETATM   13  O   UNK N   1       0.069   1.504  -2.457  0.00  0.00    -0.308 OA
BRANCH  13  14
HETATM   14  C   UNK N   1      -0.725   0.395  -2.519  0.00  0.00     0.294 C 
HETATM   15  O   UNK N   1      -0.287  -0.703  -2.205  0.00  0.00    -0.259 OA
BRANCH  14  16
HETATM   16  C   UNK N   1      -2.131   0.531  -2.947  0.00  0.00     0.039 A 
HETATM   17  C   UNK N   1      -2.974  -0.595  -3.004  0.00  0.00     0.020 A 
HETATM   18  C   UNK N   1      -4.304  -0.455  -3.410  0.00  0.00     0.037 A 
HETATM   19  C   UNK N   1      -4.803   0.807  -3.762  0.00  0.00     0.065 A 
HETATM   20  C   UNK N   1      -3.966   1.926  -3.706  0.00  0.00     0.037 A 
HETATM   21  C   UNK N   1      -2.637   1.790  -3.302  0.00  0.00     0.020 A 
BRANCH  19  22
HETATM   22  O   UNK N   1      -6.084   0.955  -4.155  0.00  0.00    -0.361 OA
HETATM   23  H   UNK N   1      -6.689   0.202  -4.204  0.00  0.00     0.217 HD
ENDBRANCH  19  22
ENDBRANCH  14  16
ENDBRANCH  13  14
ENDBRANCH   1  13
BRANCH   3  24
HETATM   24  O   UNK N   1       3.942   1.059  -0.891  0.00  0.00    -0.389 OA
HETATM   25  H   UNK N   1       3.660   0.177  -1.236  0.00  0.00     0.210 HD
ENDBRANCH   3  24
BRANCH   3  26
HETATM   26  C   UNK N   1       2.981   0.568   1.313  0.00  0.00     0.012 C 
HETATM   27  C   UNK N   1       2.609  -0.901   0.975  0.00  0.00     0.012 C 
HETATM   28  C   UNK N   1       4.344   0.541   2.025  0.00  0.00     0.012 C 
ENDBRANCH   3  26
BRANCH   8  29
HETATM   29  O   UNK N   1       0.851   5.610  -2.783  0.00  0.00    -0.391 OA
HETATM   30  H   UNK N   1       0.744   6.430  -2.231  0.00  0.00     0.210 HD
ENDBRANCH   8  29
TORSDOF 7
