REMARK  8 active torsions:
REMARK  status: ('A' for Active; 'I' for Inactive)
REMARK    1  A    between atoms: C_2  and  O_3 
REMARK    2  A    between atoms: C_2  and  C_23 
REMARK    3  A    between atoms: O_3  and  C_4 
REMARK    4  A    between atoms: C_6  and  O_7 
REMARK    5  A    between atoms: C_6  and  C_9 
REMARK    6  A    between atoms: C_16  and  O_17 
REMARK    7  A    between atoms: C_25  and  O_26 
REMARK    8  A    between atoms: C_28  and  O_29 
ROOT
HETATM    1  C   UNK N   1       0.487   0.595  -1.482  0.00  0.00     0.163 C 
HETATM    2  C   UNK N   1       0.787  -0.126  -0.137  0.00  0.00     0.062 C 
HETATM    3  C   UNK N   1      -0.152  -1.349   0.200  0.00  0.00     0.068 C 
HETATM    4  C   UNK N   1       0.731  -2.168   1.155  0.00  0.00     0.039 C 
HETATM    5  C   UNK N   1       2.063  -2.154   0.427  0.00  0.00     0.012 C 
HETATM    6  C   UNK N   1       2.258  -0.672   0.033  0.00  0.00    -0.032 C 
HETATM    7  C   UNK N   1       3.130  -0.614  -1.260  0.00  0.00     0.046 C 
HETATM    8  C   UNK N   1       3.649   0.777  -1.684  0.00  0.00     0.147 C 
HETATM    9  C   UNK N   1       2.654   1.924  -1.836  0.00  0.00    -0.057 C 
HETATM   10  C   UNK N   1       1.310   1.836  -1.714  0.00  0.00     0.011 C 
HETATM   11  C   UNK N   1       3.238   3.282  -2.166  0.00  0.00     0.046 C 
HETATM   12  C   UNK N   1       2.953   0.052   1.221  0.00  0.00     0.016 C 
ENDROOT
BRANCH   1  13
HETATM   13  O   UNK N   1      -0.832   1.014  -1.506  0.00  0.00    -0.308 OA
BRANCH  13  14
HETATM   14  C   UNK N   1      -1.711   0.762  -2.514  0.00  0.00     0.294 C 
HETATM   15  O   UNK N   1      -1.365   0.124  -3.498  0.00  0.00    -0.259 OA
BRANCH  14  16
HETATM   16  C   UNK N   1      -3.098   1.261  -2.406  0.00  0.00     0.042 A 
HETATM   17  C   UNK N   1      -4.062   0.876  -3.351  0.00  0.00     0.057 A 
HETATM   18  C   UNK N   1      -5.396   1.314  -3.233  0.00  0.00     0.102 A 
HETATM   19  C   UNK N   1      -5.750   2.164  -2.166  0.00  0.00     0.099 A 
HETATM   20  C   UNK N   1      -4.781   2.561  -1.238  0.00  0.00     0.040 A 
HETATM   21  C   UNK N   1      -3.467   2.108  -1.351  0.00  0.00     0.020 A 
BRANCH  18  22
HETATM   22  O   UNK N   1      -6.355   0.922  -4.117  0.00  0.00    -0.353 OA
HETATM   23  C   UNK N   1      -6.155   0.052  -5.170  0.00  0.00     0.210 C 
ENDBRANCH  18  22
BRANCH  19  24
HETATM   24  O   UNK N   1      -7.018   2.600  -2.014  0.00  0.00    -0.358 OA
HETATM   25  H   UNK N   1      -7.730   2.342  -2.616  0.00  0.00     0.218 HD
ENDBRANCH  19  24
ENDBRANCH  14  16
ENDBRANCH  13  14
ENDBRANCH   1  13
BRANCH   3  26
HETATM   26  O   UNK N   1      -0.330  -2.141  -0.959  0.00  0.00    -0.389 OA
HETATM   27  H   UNK N   1      -1.009  -1.710  -1.538  0.00  0.00     0.210 HD
ENDBRANCH   3  26
BRANCH   3  28
HETATM   28  C   UNK N   1      -1.567  -1.008   0.820  0.00  0.00     0.012 C 
HETATM   29  C   UNK N   1      -2.369  -2.289   1.126  0.00  0.00     0.012 C 
HETATM   30  C   UNK N   1      -1.524  -0.148   2.101  0.00  0.00     0.012 C 
ENDBRANCH   3  28
BRANCH   8  31
HETATM   31  O   UNK N   1       4.646   1.168  -0.771  0.00  0.00    -0.391 OA
HETATM   32  H   UNK N   1       5.379   1.598  -1.286  0.00  0.00     0.210 HD
ENDBRANCH   8  31
TORSDOF 8
