REMARK  8 active torsions:
REMARK  status: ('A' for Active; 'I' for Inactive)
REMARK    1  A    between atoms: C_2  and  O_3 
REMARK    2  A    between atoms: C_2  and  C_25 
REMARK    3  A    between atoms: O_3  and  C_4 
REMARK    4  A    between atoms: C_5  and  O_6 
REMARK    5  A    between atoms: C_9  and  O_10 
REMARK    6  A    between atoms: C_13  and  O_14 
REMARK    7  A    between atoms: C_13  and  C_16 
REMARK    8  A    between atoms: C_28  and  O_29 
ROOT
HETATM    1  C   UNK N   1       0.897   0.484  -1.777  0.00  0.00     0.167 C 
HETATM    2  C   UNK N   1       1.503   1.911  -1.602  0.00  0.00     0.083 C 
HETATM    3  C   UNK N   1       3.040   1.892  -1.832  0.00  0.00     0.072 C 
HETATM    4  C   UNK N   1       3.965   1.118  -0.886  0.00  0.00     0.129 C 
HETATM    5  C   UNK N   1       3.625  -0.396  -0.745  0.00  0.00     0.057 C 
HETATM    6  C   UNK N   1       4.783  -1.294  -0.153  0.00  0.00     0.067 C 
HETATM    7  C   UNK N   1       4.029  -2.451   0.576  0.00  0.00     0.039 C 
HETATM    8  C   UNK N   1       2.565  -2.264   0.231  0.00  0.00     0.012 C 
HETATM    9  C   UNK N   1       2.376  -0.737   0.114  0.00  0.00    -0.033 C 
HETATM   10  C   UNK N   1       0.989  -0.449  -0.551  0.00  0.00     0.045 C 
HETATM   11  C   UNK N   1       2.410  -0.076   1.527  0.00  0.00     0.016 C 
HETATM   12  C   UNK N   1       0.923   2.854  -2.694  0.00  0.00     0.049 C 
ENDROOT
BRANCH   1  13
HETATM   13  O   UNK N   1      -0.454   0.582  -2.080  0.00  0.00    -0.309 OA
BRANCH  13  14
HETATM   14  C   UNK N   1      -0.992   0.392  -3.320  0.00  0.00     0.293 C 
HETATM   15  O   UNK N   1      -0.272   0.188  -4.287  0.00  0.00    -0.259 OA
BRANCH  14  16
HETATM   16  C   UNK N   1      -2.453   0.519  -3.500  0.00  0.00     0.039 A 
HETATM   17  C   UNK N   1      -3.017   0.538  -4.789  0.00  0.00     0.020 A 
HETATM   18  C   UNK N   1      -4.399   0.673  -4.950  0.00  0.00     0.037 A 
HETATM   19  C   UNK N   1      -5.231   0.779  -3.826  0.00  0.00     0.065 A 
HETATM   20  C   UNK N   1      -4.674   0.756  -2.544  0.00  0.00     0.037 A 
HETATM   21  C   UNK N   1      -3.293   0.632  -2.380  0.00  0.00     0.020 A 
BRANCH  19  22
HETATM   22  O   UNK N   1      -6.566   0.905  -3.969  0.00  0.00    -0.361 OA
HETATM   23  H   UNK N   1      -6.983   0.926  -4.842  0.00  0.00     0.217 HD
ENDBRANCH  19  22
ENDBRANCH  14  16
ENDBRANCH  13  14
ENDBRANCH   1  13
BRANCH   2  24
HETATM   24  O   UNK N   1       1.163   2.424  -0.337  0.00  0.00    -0.388 OA
HETATM   25  H   UNK N   1       1.582   3.320  -0.248  0.00  0.00     0.210 HD
ENDBRANCH   2  24
BRANCH   4  26
HETATM   26  O   UNK N   1       5.258   1.261  -1.423  0.00  0.00    -0.395 OA
HETATM   27  H   UNK N   1       5.873   1.514  -0.685  0.00  0.00     0.210 HD
ENDBRANCH   4  26
BRANCH   6  28
HETATM   28  O   UNK N   1       5.483  -0.527   0.808  0.00  0.00    -0.389 OA
HETATM   29  H   UNK N   1       5.996  -1.133   1.403  0.00  0.00     0.210 HD
ENDBRANCH   6  28
BRANCH   6  30
HETATM   30  C   UNK N   1       5.801  -1.793  -1.261  0.00  0.00     0.012 C 
HETATM   31  C   UNK N   1       6.957  -2.619  -0.662  0.00  0.00     0.012 C 
HETATM   32  C   UNK N   1       5.161  -2.624  -2.398  0.00  0.00     0.012 C 
ENDBRANCH   6  30
TORSDOF 8
