REMARK  7 active torsions:
REMARK  status: ('A' for Active; 'I' for Inactive)
REMARK    1  A    between atoms: C_5  and  O_6 
REMARK    2  A    between atoms: O_6  and  C_7 
REMARK    3  A    between atoms: C_7  and  C_9 
REMARK    4  A    between atoms: C_11  and  O_12 
REMARK    5  A    between atoms: C_14  and  O_15 
REMARK    6  A    between atoms: C_20  and  O_21 
REMARK    7  A    between atoms: C_20  and  C_23 
ROOT
HETATM    1  O   UNK N   1      -5.142   0.390  -3.052  0.00  0.00    -0.293 OA
HETATM    2  C   UNK N   1      -4.058   0.681  -2.567  0.00  0.00     0.155 C 
HETATM    3  C   UNK N   1      -2.904   0.903  -3.491  0.00  0.00    -0.018 C 
HETATM    4  C   UNK N   1      -1.659   1.251  -3.091  0.00  0.00     0.016 C 
HETATM    5  C   UNK N   1      -1.221   1.521  -1.668  0.00  0.00     0.163 C 
HETATM    6  C   UNK N   1      -1.368   0.283  -0.738  0.00  0.00     0.062 C 
HETATM    7  C   UNK N   1      -0.761   0.479   0.703  0.00  0.00     0.068 C 
HETATM    8  C   UNK N   1      -1.569  -0.551   1.518  0.00  0.00     0.039 C 
HETATM    9  C   UNK N   1      -2.981  -0.291   1.033  0.00  0.00     0.013 C 
HETATM   10  C   UNK N   1      -2.845  -0.224  -0.504  0.00  0.00    -0.028 C 
HETATM   11  C   UNK N   1      -3.950   0.715  -1.062  0.00  0.00     0.093 C 
HETATM   12  C   UNK N   1      -3.011  -1.657  -1.087  0.00  0.00     0.016 C 
HETATM   13  C   UNK N   1      -3.151   0.693  -4.968  0.00  0.00     0.052 C 
ENDROOT
BRANCH   5  14
HETATM   14  O   UNK N   1       0.104   1.900  -1.697  0.00  0.00    -0.308 OA
BRANCH  14  15
HETATM   15  C   UNK N   1       0.546   3.155  -1.981  0.00  0.00     0.294 C 
HETATM   16  O   UNK N   1      -0.245   4.070  -2.160  0.00  0.00    -0.259 OA
BRANCH  15  17
HETATM   17  C   UNK N   1       2.003   3.403  -2.041  0.00  0.00     0.042 A 
HETATM   18  C   UNK N   1       2.890   2.329  -1.893  0.00  0.00     0.057 A 
HETATM   19  C   UNK N   1       4.282   2.530  -1.940  0.00  0.00     0.102 A 
HETATM   20  C   UNK N   1       4.779   3.833  -2.141  0.00  0.00     0.099 A 
HETATM   21  C   UNK N   1       3.892   4.905  -2.291  0.00  0.00     0.040 A 
HETATM   22  C   UNK N   1       2.511   4.696  -2.243  0.00  0.00     0.020 A 
BRANCH  19  23
HETATM   23  O   UNK N   1       5.154   1.495  -1.797  0.00  0.00    -0.353 OA
HETATM   24  C   UNK N   1       4.792   0.179  -1.579  0.00  0.00     0.210 C 
ENDBRANCH  19  23
BRANCH  20  25
HETATM   25  O   UNK N   1       6.107   4.069  -2.191  0.00  0.00    -0.358 OA
HETATM   26  H   UNK N   1       6.762   3.364  -2.093  0.00  0.00     0.218 HD
ENDBRANCH  20  25
ENDBRANCH  15  17
ENDBRANCH  14  15
ENDBRANCH   5  14
BRANCH   7  27
HETATM   27  O   UNK N   1      -1.092   1.789   1.125  0.00  0.00    -0.389 OA
HETATM   28  H   UNK N   1      -1.071   1.831   2.115  0.00  0.00     0.210 HD
ENDBRANCH   7  27
BRANCH   7  29
HETATM   29  C   UNK N   1       0.805   0.286   0.827  0.00  0.00     0.012 C 
HETATM   30  C   UNK N   1       1.307   0.485   2.271  0.00  0.00     0.012 C 
HETATM   31  C   UNK N   1       1.323  -1.082   0.330  0.00  0.00     0.012 C 
ENDBRANCH   7  29
TORSDOF 7
