REMARK  4 active torsions:
REMARK  status: ('A' for Active; 'I' for Inactive)
REMARK    1  A    between atoms: C_8  and  O_10 
REMARK    2  A    between atoms: O_10  and  C_11 
REMARK    3  A    between atoms: C_11  and  C_12 
REMARK    4  A    between atoms: C_22  and  O_23 
ROOT
HETATM    1  C   UNK N   1      -2.624  -0.081   1.084  0.00  0.00     0.025 C 
HETATM    2  C   UNK N   1      -3.686  -0.347  -0.079  0.00  0.00    -0.029 C 
HETATM    3  C   UNK N   1      -4.696   0.904  -0.149  0.00  0.00    -0.024 C 
HETATM    4  C   UNK N   1      -5.771   0.641  -1.283  0.00  0.00     0.060 C 
HETATM    5  C   UNK N   1      -5.023   0.404  -2.592  0.00  0.00     0.131 C 
HETATM    6  O   UNK N   1      -5.229   1.102  -3.574  0.00  0.00    -0.298 OA
HETATM    7  C   UNK N   1      -3.960  -0.657  -2.645  0.00  0.00     0.079 C 
HETATM    8  C   UNK N   1      -2.969  -0.479  -1.474  0.00  0.00     0.018 C 
HETATM    9  C   UNK N   1      -6.835   1.752  -1.448  0.00  0.00     0.018 C 
HETATM   10  C   UNK N   1      -5.368   1.076   1.256  0.00  0.00     0.042 C 
HETATM   11  C   UNK N   1      -4.338   1.353   2.382  0.00  0.00     0.123 C 
HETATM   12  C   UNK N   1      -3.254   0.245   2.494  0.00  0.00     0.017 C 
HETATM   13  C   UNK N   1      -3.724  -0.961   3.348  0.00  0.00     0.013 C 
HETATM   14  C   UNK N   1      -3.963   2.254  -0.510  0.00  0.00     0.017 C 
HETATM   15  C   UNK N   1      -4.430  -1.707   0.167  0.00  0.00     0.016 C 
ENDROOT
BRANCH   1  16
HETATM   16  C   UNK N   1      -1.514  -1.155   1.192  0.00  0.00     0.181 C 
BRANCH  16  17
HETATM   17  O   UNK N   1      -0.591  -0.814   2.168  0.00  0.00    -0.351 OA
BRANCH  17  18
HETATM   18  C   UNK N   1       0.714  -0.504   1.951  0.00  0.00     0.071 A 
HETATM   19  C   UNK N   1       1.634  -0.744   2.979  0.00  0.00     0.038 A 
HETATM   20  C   UNK N   1       2.994  -0.481   2.792  0.00  0.00     0.017 A 
HETATM   21  C   UNK N   1       3.444   0.038   1.572  0.00  0.00    -0.002 A 
HETATM   22  C   UNK N   1       2.523   0.310   0.538  0.00  0.00     0.092 A 
HETATM   23  C   UNK N   1       4.799   0.293   1.344  0.00  0.00     0.020 A 
HETATM   24  O   UNK N   1       2.944   0.810  -0.621  0.00  0.00    -0.275 OA
HETATM   25  C   UNK N   1       1.165   0.042   0.730  0.00  0.00     0.075 A 
HETATM   26  C   UNK N   1       4.228   1.065  -0.865  0.00  0.00     0.288 A 
HETATM   27  O   UNK N   1       4.560   1.519  -1.943  0.00  0.00    -0.260 OA
HETATM   28  C   UNK N   1       5.197   0.809   0.113  0.00  0.00     0.083 A 
ENDBRANCH  17  18
ENDBRANCH  16  17
ENDBRANCH   1  16
BRANCH  11  29
HETATM   29  O   UNK N   1      -4.988   1.521   3.618  0.00  0.00    -0.395 OA
HETATM   30  H   UNK N   1      -5.604   2.295   3.527  0.00  0.00     0.210 HD
ENDBRANCH  11  29
TORSDOF 4
