REMARK  3 active torsions:
REMARK  status: ('A' for Active; 'I' for Inactive)
REMARK    1  A    between atoms: C_4  and  O_5 
REMARK    2  A    between atoms: C_16  and  C_17 
REMARK    3  A    between atoms: C_20  and  O_21 
ROOT
HETATM    1  O   UNK N   1       1.326   1.201  -1.606  0.00  0.00    -0.286 OA
HETATM    2  C   UNK N   1       1.278   0.611  -0.541  0.00  0.00     0.200 A 
HETATM    3  C   UNK N   1       2.429   0.496   0.272  0.00  0.00     0.085 A 
HETATM    4  C   UNK N   1       3.701   1.036  -0.102  0.00  0.00     0.121 A 
HETATM    5  C   UNK N   1       4.764   0.863   0.806  0.00  0.00     0.139 A 
HETATM    6  O   UNK N   1       6.034   1.262   0.699  0.00  0.00    -0.320 OA
HETATM    7  C   UNK N   1       6.727   0.866   1.847  0.00  0.00     0.352 A 
HETATM    8  O   UNK N   1       5.774   0.209   2.627  0.00  0.00    -0.323 OA
HETATM    9  C   UNK N   1       4.613   0.223   1.973  0.00  0.00     0.110 A 
HETATM   10  C   UNK N   1       3.407  -0.331   2.371  0.00  0.00     0.078 A 
HETATM   11  C   UNK N   1       2.305  -0.205   1.510  0.00  0.00     0.094 A 
HETATM   12  O   UNK N   1       1.151  -0.761   1.858  0.00  0.00    -0.321 OA
HETATM   13  C   UNK N   1       0.069  -0.702   1.093  0.00  0.00     0.159 A 
HETATM   14  C   UNK N   1       0.075  -0.002  -0.124  0.00  0.00     0.048 A 
ENDROOT
BRANCH  14  15
HETATM   15  C   UNK N   1      -1.175   0.059  -0.935  0.00  0.00    -0.020 A 
HETATM   16  C   UNK N   1      -1.582   1.252  -1.560  0.00  0.00     0.015 A 
HETATM   17  C   UNK N   1      -2.775   1.297  -2.290  0.00  0.00     0.037 A 
HETATM   18  C   UNK N   1      -3.565   0.151  -2.436  0.00  0.00     0.068 A 
HETATM   19  C   UNK N   1      -3.153  -1.049  -1.824  0.00  0.00     0.037 A 
HETATM   20  C   UNK N   1      -1.979  -1.087  -1.069  0.00  0.00     0.015 A 
BRANCH  18  21
HETATM   21  O   UNK N   1      -4.709   0.236  -3.166  0.00  0.00    -0.356 OA
HETATM   22  C   UNK N   1      -5.542  -0.824  -3.463  0.00  0.00     0.210 C 
ENDBRANCH  18  21
ENDBRANCH  14  15
BRANCH   4  23
HETATM   23  O   UNK N   1       3.856   1.664  -1.300  0.00  0.00    -0.352 OA
HETATM   24  C   UNK N   1       5.048   2.137  -1.812  0.00  0.00     0.210 C 
ENDBRANCH   4  23
TORSDOF 3
