REMARK  4 active torsions:
REMARK  status: ('A' for Active; 'I' for Inactive)
REMARK    1  A    between atoms: C_4  and  O_5 
REMARK    2  A    between atoms: C_16  and  C_17 
REMARK    3  A    between atoms: C_19  and  O_20 
REMARK    4  A    between atoms: C_22  and  O_23 
ROOT
HETATM    1  O   UNK N   1       1.377   0.915  -1.722  0.00  0.00    -0.286 OA
HETATM    2  C   UNK N   1       1.300   0.482  -0.585  0.00  0.00     0.200 A 
HETATM    3  C   UNK N   1       2.459   0.338   0.215  0.00  0.00     0.085 A 
HETATM    4  C   UNK N   1       3.773   0.657  -0.254  0.00  0.00     0.121 A 
HETATM    5  C   UNK N   1       4.841   0.461   0.646  0.00  0.00     0.139 A 
HETATM    6  O   UNK N   1       6.148   0.665   0.457  0.00  0.00    -0.320 OA
HETATM    7  C   UNK N   1       6.829   0.323   1.628  0.00  0.00     0.352 A 
HETATM    8  O   UNK N   1       5.829  -0.087   2.512  0.00  0.00    -0.323 OA
HETATM    9  C   UNK N   1       4.655   0.003   1.890  0.00  0.00     0.110 A 
HETATM   10  C   UNK N   1       3.404  -0.329   2.385  0.00  0.00     0.078 A 
HETATM   11  C   UNK N   1       2.295  -0.174   1.539  0.00  0.00     0.094 A 
HETATM   12  O   UNK N   1       1.097  -0.535   1.980  0.00  0.00    -0.321 OA
HETATM   13  C   UNK N   1       0.006  -0.454   1.232  0.00  0.00     0.159 A 
HETATM   14  C   UNK N   1       0.054   0.069  -0.068  0.00  0.00     0.048 A 
ENDROOT
BRANCH  14  15
HETATM   15  C   UNK N   1      -1.200   0.134  -0.867  0.00  0.00    -0.017 A 
HETATM   16  C   UNK N   1      -1.560   1.291  -1.579  0.00  0.00     0.052 A 
HETATM   17  C   UNK N   1      -2.764   1.333  -2.304  0.00  0.00     0.099 A 
HETATM   18  C   UNK N   1      -3.596   0.202  -2.359  0.00  0.00     0.101 A 
HETATM   19  C   UNK N   1      -3.224  -0.959  -1.654  0.00  0.00     0.040 A 
HETATM   20  C   UNK N   1      -2.051  -0.983  -0.903  0.00  0.00     0.015 A 
BRANCH  17  21
HETATM   21  O   UNK N   1      -3.133   2.460  -2.948  0.00  0.00    -0.358 OA
HETATM   22  H   UNK N   1      -2.610   3.273  -2.896  0.00  0.00     0.218 HD
ENDBRANCH  17  21
BRANCH  18  23
HETATM   23  O   UNK N   1      -4.741   0.263  -3.093  0.00  0.00    -0.353 OA
HETATM   24  C   UNK N   1      -5.604  -0.794  -3.304  0.00  0.00     0.210 C 
ENDBRANCH  18  23
ENDBRANCH  14  15
BRANCH   4  25
HETATM   25  O   UNK N   1       3.961   1.098  -1.528  0.00  0.00    -0.352 OA
HETATM   26  C   UNK N   1       5.184   1.332  -2.126  0.00  0.00     0.210 C 
ENDBRANCH   4  25
TORSDOF 4
