REMARK  5 active torsions:
REMARK  status: ('A' for Active; 'I' for Inactive)
REMARK    1  A    between atoms: C_5  and  C_7 
REMARK    2  A    between atoms: C_9  and  O_10 
REMARK    3  A    between atoms: C_14  and  C_15 
REMARK    4  A    between atoms: C_19  and  O_20 
REMARK    5  A    between atoms: C_22  and  O_23 
ROOT
HETATM    1  C   UNK N   1      -3.259   3.329  -0.377  0.00  0.00     0.028 C 
HETATM    2  C   UNK N   1      -1.711   3.139  -0.470  0.00  0.00    -0.005 C 
HETATM    3  C   UNK N   1      -1.484   1.823   0.322  0.00  0.00     0.070 C 
HETATM    4  C   UNK N   1       0.039   1.567   0.541  0.00  0.00     0.030 C 
HETATM    5  C   UNK N   1       0.783   1.503  -0.822  0.00  0.00     0.012 C 
HETATM    6  C   UNK N   1       2.345   1.362  -0.594  0.00  0.00     0.043 C 
HETATM    7  C   UNK N   1       2.669   0.326   0.491  0.00  0.00    -0.065 C 
HETATM    8  C   UNK N   1       4.104  -0.150   0.613  0.00  0.00     0.069 C 
HETATM    9  C   UNK N   1       4.584  -0.684  -0.742  0.00  0.00     0.151 C 
HETATM   10  C   UNK N   1       4.464   0.424  -1.815  0.00  0.00     0.148 C 
HETATM   11  C   UNK N   1       2.987   0.873  -1.936  0.00  0.00     0.056 C 
HETATM   12  C   UNK N   1       1.733  -0.176   1.327  0.00  0.00    -0.022 C 
HETATM   13  C   UNK N   1       0.293   0.262   1.328  0.00  0.00     0.035 C 
HETATM   14  C   UNK N   1       0.431   2.696  -1.776  0.00  0.00     0.007 C 
HETATM   15  C   UNK N   1      -1.088   2.966  -1.883  0.00  0.00     0.013 C 
HETATM   16  C   UNK N   1      -2.345   2.081   1.571  0.00  0.00     0.040 C 
HETATM   17  C   UNK N   1      -3.651   2.637   0.971  0.00  0.00     0.013 C 
HETATM   18  C   UNK N   1      -1.081   4.422   0.197  0.00  0.00     0.019 C 
ENDROOT
BRANCH   1  19
HETATM   19  C   UNK N   1      -4.071   2.849  -1.580  0.00  0.00    -0.045 A 
HETATM   20  C   UNK N   1      -4.472   3.771  -2.720  0.00  0.00     0.213 A 
HETATM   21  O   UNK N   1      -5.203   2.939  -3.555  0.00  0.00    -0.314 OA
HETATM   22  C   UNK N   1      -5.262   1.700  -3.045  0.00  0.00     0.283 A 
HETATM   23  O   UNK N   1      -5.863   0.780  -3.569  0.00  0.00    -0.260 OA
HETATM   24  C   UNK N   1      -4.547   1.627  -1.804  0.00  0.00     0.087 A 
ENDBRANCH   1  19
BRANCH   3  25
HETATM   25  O   UNK N   1      -2.029   0.746  -0.419  0.00  0.00    -0.389 OA
HETATM   26  H   UNK N   1      -2.273   0.011   0.201  0.00  0.00     0.210 HD
ENDBRANCH   3  25
BRANCH   6  27
HETATM   27  C   UNK N   1       2.973   2.685  -0.163  0.00  0.00     0.245 C 
HETATM   28  O   UNK N   1       2.679   3.206   0.902  0.00  0.00    -0.306 OA
ENDBRANCH   6  27
BRANCH  10  29
HETATM   29  O   UNK N   1       5.290   1.516  -1.501  0.00  0.00    -0.393 OA
HETATM   30  H   UNK N   1       6.228   1.226  -1.645  0.00  0.00     0.210 HD
ENDBRANCH  10  29
BRANCH   9  31
HETATM   31  O   UNK N   1       5.913  -1.117  -0.626  0.00  0.00    -0.393 OA
HETATM   32  H   UNK N   1       6.132  -1.593  -1.469  0.00  0.00     0.210 HD
ENDBRANCH   9  31
TORSDOF 5
