REMARK  11 active torsions:
REMARK  status: ('A' for Active; 'I' for Inactive)
REMARK    1  A    between atoms: C_2  and  O_3 
REMARK    2  A    between atoms: C_2  and  C_20 
REMARK    3  A    between atoms: O_3  and  C_4 
REMARK    4  A    between atoms: C_5  and  O_6 
REMARK    5  A    between atoms: C_8  and  O_9 
REMARK    6  A    between atoms: C_12  and  O_13 
REMARK    7  A    between atoms: C_12  and  C_15 
REMARK    8  A    between atoms: C_15  and  O_17 
REMARK    9  A    between atoms: C_21  and  C_22 
REMARK   10  A    between atoms: C_24  and  O_25 
REMARK   11  A    between atoms: C_27  and  O_28 
ROOT
HETATM    1  C   UNK N   1      -3.591   0.855  -0.326  0.00  0.00     0.166 C 
HETATM    2  C   UNK N   1      -4.151   1.319  -1.687  0.00  0.00     0.176 C 
HETATM    3  C   UNK N   1      -5.042   0.227  -2.330  0.00  0.00     0.152 C 
HETATM    4  C   UNK N   1      -6.193  -0.124  -1.370  0.00  0.00     0.083 C 
HETATM    5  C   UNK N   1      -5.709  -0.617   0.025  0.00  0.00     0.147 C 
HETATM    6  C   UNK N   1      -4.752   0.462   0.614  0.00  0.00     0.084 C 
ENDROOT
BRANCH   1   7
HETATM    7  O   UNK N   1      -2.740  -0.221  -0.514  0.00  0.00    -0.310 OA
BRANCH   7   8
HETATM    8  C   UNK N   1      -1.423  -0.257  -0.187  0.00  0.00     0.283 C 
HETATM    9  O   UNK N   1      -0.892   0.708   0.338  0.00  0.00    -0.260 OA
BRANCH   8  10
HETATM   10  C   UNK N   1      -0.638  -1.451  -0.597  0.00  0.00     0.083 C 
HETATM   11  C   UNK N   1       0.701  -1.606  -0.504  0.00  0.00     0.017 C 
BRANCH  11  12
HETATM   12  C   UNK N   1       1.647  -0.648   0.111  0.00  0.00    -0.033 A 
HETATM   13  C   UNK N   1       2.776  -0.260  -0.621  0.00  0.00     0.050 A 
HETATM   14  C   UNK N   1       3.683   0.662  -0.095  0.00  0.00     0.099 A 
HETATM   15  C   UNK N   1       3.491   1.175   1.202  0.00  0.00     0.098 A 
HETATM   16  C   UNK N   1       2.380   0.758   1.953  0.00  0.00     0.040 A 
HETATM   17  C   UNK N   1       1.460  -0.142   1.410  0.00  0.00     0.014 A 
BRANCH  14  18
HETATM   18  O   UNK N   1       4.733   1.054  -0.850  0.00  0.00    -0.358 OA
HETATM   19  H   UNK N   1       5.369   1.717  -0.548  0.00  0.00     0.218 HD
ENDBRANCH  14  18
BRANCH  15  20
HETATM   20  O   UNK N   1       4.370   2.057   1.719  0.00  0.00    -0.358 OA
HETATM   21  H   UNK N   1       4.264   2.421   2.609  0.00  0.00     0.218 HD
ENDBRANCH  15  20
ENDBRANCH  11  12
ENDBRANCH   8  10
ENDBRANCH   7   8
ENDBRANCH   1   7
BRANCH   2  22
HETATM   22  O   UNK N   1      -3.109   1.713  -2.547  0.00  0.00    -0.390 OA
HETATM   23  H   UNK N   1      -2.609   0.898  -2.817  0.00  0.00     0.210 HD
ENDBRANCH   2  22
BRANCH   3  24
HETATM   24  O   UNK N   1      -5.596   0.701  -3.531  0.00  0.00    -0.393 OA
HETATM   25  H   UNK N   1      -4.862   0.746  -4.197  0.00  0.00     0.210 HD
ENDBRANCH   3  24
BRANCH   5  26
HETATM   26  O   UNK N   1      -6.816  -0.705   0.892  0.00  0.00    -0.379 OA
HETATM   27  H   UNK N   1      -7.505  -1.280   0.467  0.00  0.00     0.211 HD
ENDBRANCH   5  26
BRANCH   5  28
HETATM   28  C   UNK N   1      -5.086  -2.010  -0.055  0.00  0.00     0.176 C 
HETATM   29  O   UNK N   1      -3.974  -2.236   0.396  0.00  0.00    -0.648 OA
BRANCH  28  30
HETATM   30  O   UNK N   1      -5.810  -3.030  -0.566  0.00  0.00    -0.774 OA
HETATM   31  H   UNK N   1      -5.455  -3.930  -0.593  0.00  0.00     0.167 HD
ENDBRANCH  28  30
ENDBRANCH   5  28
TORSDOF 11
