REMARK  11 active torsions:
REMARK  status: ('A' for Active; 'I' for Inactive)
REMARK    1  A    between atoms: C_2  and  O_3 
REMARK    2  A    between atoms: C_2  and  C_20 
REMARK    3  A    between atoms: O_3  and  C_4 
REMARK    4  A    between atoms: C_5  and  O_6 
REMARK    5  A    between atoms: C_8  and  O_9 
REMARK    6  A    between atoms: C_12  and  O_13 
REMARK    7  A    between atoms: C_12  and  C_15 
REMARK    8  A    between atoms: C_15  and  O_17 
REMARK    9  A    between atoms: C_21  and  C_22 
REMARK   10  A    between atoms: C_24  and  O_25 
REMARK   11  A    between atoms: C_27  and  O_28 
ROOT
HETATM    1  C   UNK N   1      -3.678   1.231   0.323  0.00  0.00     0.166 C 
HETATM    2  C   UNK N   1      -4.441   2.424   0.936  0.00  0.00     0.176 C 
HETATM    3  C   UNK N   1      -5.422   3.041  -0.088  0.00  0.00     0.152 C 
HETATM    4  C   UNK N   1      -6.405   1.959  -0.581  0.00  0.00     0.083 C 
HETATM    5  C   UNK N   1      -5.689   0.746  -1.232  0.00  0.00     0.147 C 
HETATM    6  C   UNK N   1      -4.671   0.177  -0.203  0.00  0.00     0.084 C 
ENDROOT
BRANCH   1   7
HETATM    7  O   UNK N   1      -2.901   0.639   1.307  0.00  0.00    -0.310 OA
BRANCH   7   8
HETATM    8  C   UNK N   1      -1.549   0.503   1.275  0.00  0.00     0.283 C 
HETATM    9  O   UNK N   1      -0.914   0.870   0.300  0.00  0.00    -0.260 OA
BRANCH   8  10
HETATM   10  C   UNK N   1      -0.873   0.016   2.506  0.00  0.00     0.083 C 
HETATM   11  C   UNK N   1       0.459  -0.066   2.719  0.00  0.00     0.017 C 
BRANCH  11  12
HETATM   12  C   UNK N   1       1.523   0.214   1.728  0.00  0.00    -0.033 A 
HETATM   13  C   UNK N   1       2.579   1.057   2.098  0.00  0.00     0.050 A 
HETATM   14  C   UNK N   1       3.599   1.361   1.193  0.00  0.00     0.099 A 
HETATM   15  C   UNK N   1       3.595   0.780  -0.089  0.00  0.00     0.098 A 
HETATM   16  C   UNK N   1       2.556  -0.093  -0.451  0.00  0.00     0.040 A 
HETATM   17  C   UNK N   1       1.522  -0.369   0.448  0.00  0.00     0.014 A 
BRANCH  14  18
HETATM   18  O   UNK N   1       4.574   2.218   1.566  0.00  0.00    -0.358 OA
HETATM   19  H   UNK N   1       5.282   2.490   0.966  0.00  0.00     0.218 HD
ENDBRANCH  14  18
BRANCH  15  20
HETATM   20  O   UNK N   1       4.585   1.058  -0.961  0.00  0.00    -0.358 OA
HETATM   21  H   UNK N   1       4.612   0.664  -1.845  0.00  0.00     0.218 HD
ENDBRANCH  15  20
ENDBRANCH  11  12
ENDBRANCH   8  10
ENDBRANCH   7   8
ENDBRANCH   1   7
BRANCH   2  22
HETATM   22  O   UNK N   1      -3.524   3.391   1.380  0.00  0.00    -0.390 OA
HETATM   23  H   UNK N   1      -4.029   4.023   1.955  0.00  0.00     0.210 HD
ENDBRANCH   2  22
BRANCH   3  24
HETATM   24  O   UNK N   1      -4.728   3.600  -1.176  0.00  0.00    -0.393 OA
HETATM   25  H   UNK N   1      -4.391   4.486  -0.883  0.00  0.00     0.210 HD
ENDBRANCH   3  24
BRANCH   5  26
HETATM   26  O   UNK N   1      -6.663  -0.234  -1.501  0.00  0.00    -0.379 OA
HETATM   27  H   UNK N   1      -6.197  -1.042  -1.842  0.00  0.00     0.211 HD
ENDBRANCH   5  26
BRANCH   5  28
HETATM   28  C   UNK N   1      -5.054   1.154  -2.557  0.00  0.00     0.176 C 
HETATM   29  O   UNK N   1      -5.759   1.612  -3.445  0.00  0.00    -0.648 OA
BRANCH  28  30
HETATM   30  O   UNK N   1      -3.730   0.998  -2.772  0.00  0.00    -0.774 OA
HETATM   31  H   UNK N   1      -3.326   1.266  -3.610  0.00  0.00     0.167 HD
ENDBRANCH  28  30
ENDBRANCH   5  28
TORSDOF 11
