REMARK  11 active torsions:
REMARK  status: ('A' for Active; 'I' for Inactive)
REMARK    1  A    between atoms: C_6  and  C_7 
REMARK    2  A    between atoms: C_7  and  O_8 
REMARK    3  A    between atoms: C_10  and  C_11 
REMARK    4  A    between atoms: C_11  and  C_12 
REMARK    5  A    between atoms: C_12  and  O_13 
REMARK    6  A    between atoms: O_13  and  C_14 
REMARK    7  A    between atoms: C_16  and  C_26 
REMARK    8  A    between atoms: C_17  and  O_18 
REMARK    9  A    between atoms: C_20  and  O_21 
REMARK   10  A    between atoms: C_23  and  O_24 
REMARK   11  A    between atoms: C_26  and  O_27 
ROOT
HETATM    1  C   UNK N   1      -1.773  -0.236  -2.901  0.00  0.00     0.291 C 
HETATM    2  O   UNK N   1      -2.245  -0.923  -1.746  0.00  0.00    -0.348 OA
HETATM    3  C   UNK N   1      -3.172  -0.148  -0.996  0.00  0.00     0.179 C 
HETATM    4  C   UNK N   1      -4.414   0.215  -1.845  0.00  0.00     0.180 C 
HETATM    5  C   UNK N   1      -3.967   0.973  -3.104  0.00  0.00     0.183 C 
HETATM    6  C   UNK N   1      -2.935   0.117  -3.848  0.00  0.00     0.204 C 
ENDROOT
BRANCH   1   7
HETATM    7  O   UNK N   1      -1.014   0.927  -2.589  0.00  0.00    -0.358 OA
BRANCH   7   8
HETATM    8  C   UNK N   1       0.083   0.664  -1.728  0.00  0.00     0.172 C 
BRANCH   8   9
HETATM    9  C   UNK N   1       1.135  -0.297  -2.342  0.00  0.00     0.039 C 
BRANCH   9  10
HETATM   10  C   UNK N   1       2.423  -0.551  -1.517  0.00  0.00     0.072 C 
HETATM   11  C   UNK N   1       3.075   0.737  -1.132  0.00  0.00     0.154 C 
HETATM   12  O   UNK N   1       3.461   1.580  -1.924  0.00  0.00    -0.293 OA
HETATM   13  C   UNK N   1       3.144   0.884   0.299  0.00  0.00     0.053 C 
HETATM   14  C   UNK N   1       2.695  -0.217   0.881  0.00  0.00    -0.073 C 
HETATM   15  C   UNK N   1       2.675  -0.406   2.370  0.00  0.00     0.044 C 
HETATM   16  C   UNK N   1       2.295  -1.280  -0.125  0.00  0.00     0.049 C 
BRANCH  16  17
HETATM   17  C   UNK N   1       0.978  -2.024   0.177  0.00  0.00     0.173 C 
BRANCH  17  18
HETATM   18  O   UNK N   1       1.129  -2.805   1.330  0.00  0.00    -0.400 OA
HETATM   19  H   UNK N   1       0.312  -3.366   1.394  0.00  0.00     0.209 HD
ENDBRANCH  17  18
ENDBRANCH  16  17
ENDBRANCH   9  10
ENDBRANCH   8   9
ENDBRANCH   7   8
ENDBRANCH   1   7
BRANCH   6  20
HETATM   20  O   UNK N   1      -2.459   0.815  -4.971  0.00  0.00    -0.388 OA
HETATM   21  H   UNK N   1      -1.900   0.180  -5.491  0.00  0.00     0.210 HD
ENDBRANCH   6  20
BRANCH   3  22
HETATM   22  C   UNK N   1      -3.592  -0.970   0.232  0.00  0.00     0.198 C 
BRANCH  22  23
HETATM   23  O   UNK N   1      -2.464  -1.284   1.001  0.00  0.00    -0.398 OA
HETATM   24  H   UNK N   1      -2.782  -1.885   1.724  0.00  0.00     0.209 HD
ENDBRANCH  22  23
ENDBRANCH   3  22
BRANCH   5  25
HETATM   25  O   UNK N   1      -5.083   1.216  -3.922  0.00  0.00    -0.390 OA
HETATM   26  H   UNK N   1      -4.793   1.847  -4.631  0.00  0.00     0.210 HD
ENDBRANCH   5  25
BRANCH   4  27
HETATM   27  O   UNK N   1      -5.289   1.012  -1.088  0.00  0.00    -0.390 OA
HETATM   28  H   UNK N   1      -6.162   1.016  -1.562  0.00  0.00     0.210 HD
ENDBRANCH   4  27
TORSDOF 11
