REMARK  4 active torsions:
REMARK  status: ('A' for Active; 'I' for Inactive)
REMARK    1  A    between atoms: C_8  and  O_10 
REMARK    2  A    between atoms: O_10  and  C_11 
REMARK    3  A    between atoms: C_11  and  C_12 
REMARK    4  A    between atoms: C_14  and  O_15 
ROOT
HETATM    1  O   UNK N   1      -1.196  -0.719   0.782  0.00  0.00    -0.350 OA
ENDROOT
BRANCH   1   2
HETATM    2  C   UNK N   1       0.115  -0.402   0.943  0.00  0.00     0.071 A 
HETATM    3  C   UNK N   1       0.692  -0.538   2.212  0.00  0.00     0.038 A 
HETATM    4  C   UNK N   1       2.040  -0.222   2.416  0.00  0.00     0.017 A 
HETATM    5  C   UNK N   1       2.822   0.233   1.345  0.00  0.00    -0.002 A 
HETATM    6  C   UNK N   1       2.247   0.376   0.065  0.00  0.00     0.092 A 
HETATM    7  C   UNK N   1       4.172   0.552   1.508  0.00  0.00     0.020 A 
HETATM    8  O   UNK N   1       2.979   0.807  -0.958  0.00  0.00    -0.275 OA
HETATM    9  C   UNK N   1       0.905   0.062  -0.131  0.00  0.00     0.075 A 
HETATM   10  C   UNK N   1       4.267   1.118  -0.833  0.00  0.00     0.288 A 
HETATM   11  O   UNK N   1       4.890   1.506  -1.802  0.00  0.00    -0.260 OA
HETATM   12  C   UNK N   1       4.904   0.998   0.408  0.00  0.00     0.083 A 
ENDBRANCH   1   2
BRANCH   1  13
HETATM   13  C   UNK N   1      -1.881  -0.581  -0.408  0.00  0.00     0.185 C 
BRANCH  13  14
HETATM   14  C   UNK N   1      -3.362  -1.005  -0.270  0.00  0.00     0.048 C 
HETATM   15  C   UNK N   1      -4.179  -0.923  -1.620  0.00  0.00    -0.012 C 
HETATM   16  C   UNK N   1      -4.422   0.579  -1.947  0.00  0.00     0.130 C 
HETATM   17  C   UNK N   1      -5.515  -1.696  -1.454  0.00  0.00     0.018 C 
HETATM   18  C   UNK N   1      -3.411  -1.593  -2.787  0.00  0.00     0.018 C 
HETATM   19  C   UNK N   1      -5.196   1.308  -0.828  0.00  0.00     0.060 C 
HETATM   20  C   UNK N   1      -4.846   0.853   0.569  0.00  0.00    -0.021 C 
HETATM   21  C   UNK N   1      -4.028  -0.191   0.843  0.00  0.00    -0.080 C 
HETATM   22  C   UNK N   1      -3.803  -0.589   2.285  0.00  0.00     0.043 C 
BRANCH  16  23
HETATM   23  O   UNK N   1      -5.043   0.778  -3.195  0.00  0.00    -0.395 OA
HETATM   24  H   UNK N   1      -5.988   0.487  -3.121  0.00  0.00     0.210 HD
ENDBRANCH  16  23
ENDBRANCH  13  14
ENDBRANCH   1  13
TORSDOF 4
