REMARK  5 active torsions:
REMARK  status: ('A' for Active; 'I' for Inactive)
REMARK    1  A    between atoms: C_3  and  O_4 
REMARK    2  A    between atoms: C_6  and  C_20 
REMARK    3  A    between atoms: C_10  and  O_11 
REMARK    4  A    between atoms: C_15  and  O_18 
REMARK    5  A    between atoms: C_23  and  O_24 
ROOT
HETATM    1  O   UNK N   1       3.275   2.318  -3.523  0.00  0.00    -0.284 OA
HETATM    2  C   UNK N   1       2.467   1.846  -2.749  0.00  0.00     0.223 A 
HETATM    3  C   UNK N   1       1.093   1.907  -3.073  0.00  0.00     0.154 A 
HETATM    4  C   UNK N   1       0.165   1.305  -2.200  0.00  0.00     0.123 A 
HETATM    5  O   UNK N   1       0.592   0.788  -1.056  0.00  0.00    -0.305 OA
HETATM    6  C   UNK N   1       1.867   0.727  -0.691  0.00  0.00     0.102 A 
HETATM    7  C   UNK N   1       2.884   1.226  -1.537  0.00  0.00     0.085 A 
HETATM    8  C   UNK N   1       4.251   1.093  -1.118  0.00  0.00     0.091 A 
HETATM    9  C   UNK N   1       4.555   0.490   0.126  0.00  0.00     0.006 A 
HETATM   10  C   UNK N   1       6.018   0.394   0.516  0.00  0.00     0.054 C 
HETATM   11  C   UNK N   1       3.510   0.010   0.959  0.00  0.00     0.083 A 
HETATM   12  C   UNK N   1       2.174   0.138   0.544  0.00  0.00     0.007 A 
HETATM   13  C   UNK N   1       1.041  -0.351   1.417  0.00  0.00     0.054 C 
ENDROOT
BRANCH   4  14
HETATM   14  C   UNK N   1      -1.300   1.204  -2.489  0.00  0.00     0.001 A 
HETATM   15  C   UNK N   1      -1.818   1.190  -3.804  0.00  0.00     0.017 A 
HETATM   16  C   UNK N   1      -3.188   1.036  -4.026  0.00  0.00     0.037 A 
HETATM   17  C   UNK N   1      -4.068   0.898  -2.947  0.00  0.00     0.065 A 
HETATM   18  C   UNK N   1      -3.569   0.910  -1.643  0.00  0.00     0.037 A 
HETATM   19  C   UNK N   1      -2.197   1.050  -1.413  0.00  0.00     0.017 A 
BRANCH  17  20
HETATM   20  O   UNK N   1      -5.391   0.743  -3.154  0.00  0.00    -0.361 OA
HETATM   21  H   UNK N   1      -5.766   0.714  -4.047  0.00  0.00     0.217 HD
ENDBRANCH  17  20
ENDBRANCH   4  14
BRANCH   3  22
HETATM   22  O   UNK N   1       0.645   2.548  -4.187  0.00  0.00    -0.350 OA
HETATM   23  C   UNK N   1       1.138   3.736  -4.697  0.00  0.00     0.210 C 
ENDBRANCH   3  22
BRANCH   8  24
HETATM   24  O   UNK N   1       5.303   1.515  -1.866  0.00  0.00    -0.359 OA
HETATM   25  H   UNK N   1       5.284   1.882  -2.753  0.00  0.00     0.218 HD
ENDBRANCH   8  24
BRANCH  11  26
HETATM   26  O   UNK N   1       3.752  -0.586   2.152  0.00  0.00    -0.359 OA
HETATM   27  H   UNK N   1       4.620  -0.780   2.520  0.00  0.00     0.217 HD
ENDBRANCH  11  26
TORSDOF 5
