REMARK  8 active torsions:
REMARK  status: ('A' for Active; 'I' for Inactive)
REMARK    1  A    between atoms: C_2  and  O_3 
REMARK    2  A    between atoms: C_2  and  C_23 
REMARK    3  A    between atoms: O_3  and  C_4 
REMARK    4  A    between atoms: C_6  and  O_7 
REMARK    5  A    between atoms: C_6  and  C_9 
REMARK    6  A    between atoms: C_13  and  O_14 
REMARK    7  A    between atoms: C_25  and  O_26 
REMARK    8  A    between atoms: C_28  and  O_29 
ROOT
HETATM    1  C   UNK N   1      -0.042   0.378   0.050  0.00  0.00     0.144 C 
HETATM    2  C   UNK N   1       1.011   0.583  -1.072  0.00  0.00     0.061 C 
HETATM    3  C   UNK N   1       0.809   1.891  -1.929  0.00  0.00     0.070 C 
HETATM    4  C   UNK N   1       2.217   2.085  -2.511  0.00  0.00     0.071 C 
HETATM    5  C   UNK N   1       3.084   1.901  -1.275  0.00  0.00     0.130 C 
HETATM    6  C   UNK N   1       2.521   0.613  -0.610  0.00  0.00    -0.006 C 
HETATM    7  C   UNK N   1       2.713   0.728   0.927  0.00  0.00     0.039 C 
HETATM    8  C   UNK N   1       2.419  -0.533   1.701  0.00  0.00    -0.023 C 
HETATM    9  C   UNK N   1       1.283  -1.266   1.650  0.00  0.00    -0.085 C 
HETATM   10  C   UNK N   1       0.068  -0.965   0.794  0.00  0.00     0.066 C 
HETATM   11  C   UNK N   1       1.190  -2.513   2.498  0.00  0.00     0.043 C 
HETATM   12  C   UNK N   1       3.259  -0.643  -1.157  0.00  0.00     0.019 C 
ENDROOT
BRANCH   1  13
HETATM   13  O   UNK N   1      -1.304   0.439  -0.511  0.00  0.00    -0.311 OA
BRANCH  13  14
HETATM   14  C   UNK N   1      -2.425   0.788   0.179  0.00  0.00     0.293 C 
HETATM   15  O   UNK N   1      -2.349   1.134   1.350  0.00  0.00    -0.259 OA
BRANCH  14  16
HETATM   16  C   UNK N   1      -3.734   0.777  -0.505  0.00  0.00     0.042 A 
HETATM   17  C   UNK N   1      -3.838   0.330  -1.830  0.00  0.00     0.057 A 
HETATM   18  C   UNK N   1      -5.076   0.328  -2.483  0.00  0.00     0.102 A 
HETATM   19  C   UNK N   1      -6.225   0.780  -1.818  0.00  0.00     0.101 A 
HETATM   20  C   UNK N   1      -6.120   1.223  -0.484  0.00  0.00     0.040 A 
HETATM   21  C   UNK N   1      -4.886   1.219   0.165  0.00  0.00     0.020 A 
BRANCH  18  22
HETATM   22  O   UNK N   1      -5.160  -0.108  -3.758  0.00  0.00    -0.353 OA
HETATM   23  C   UNK N   1      -5.284  -1.449  -4.048  0.00  0.00     0.210 C 
ENDBRANCH  18  22
BRANCH  19  24
HETATM   24  O   UNK N   1      -7.411   0.771  -2.484  0.00  0.00    -0.353 OA
HETATM   25  C   UNK N   1      -8.616   1.183  -1.954  0.00  0.00     0.210 C 
ENDBRANCH  19  24
ENDBRANCH  14  16
ENDBRANCH  13  14
ENDBRANCH   1  13
BRANCH   3  26
HETATM   26  O   UNK N   1       0.556   2.986  -1.069  0.00  0.00    -0.389 OA
HETATM   27  H   UNK N   1      -0.385   2.934  -0.758  0.00  0.00     0.210 HD
ENDBRANCH   3  26
BRANCH   3  28
HETATM   28  C   UNK N   1      -0.312   1.848  -3.046  0.00  0.00     0.012 C 
HETATM   29  C   UNK N   1      -0.390   3.179  -3.817  0.00  0.00     0.012 C 
HETATM   30  C   UNK N   1      -0.168   0.697  -4.063  0.00  0.00     0.012 C 
ENDBRANCH   3  28
BRANCH   5  31
HETATM   31  O   UNK N   1       4.457   1.825  -1.563  0.00  0.00    -0.395 OA
HETATM   32  H   UNK N   1       4.696   2.664  -2.038  0.00  0.00     0.210 HD
ENDBRANCH   5  31
TORSDOF 8
