REMARK  2 active torsions:
REMARK  status: ('A' for Active; 'I' for Inactive)
REMARK       I    between atoms: N_5  and  C_6 
REMARK    1  A    between atoms: C_6  and  C_8 
REMARK    2  A    between atoms: C_11  and  C_15 
ROOT
HETATM    1 Br   UNK N   1       2.522  -0.399   2.524  0.00  0.00    -0.051 Br
HETATM    2  C   UNK N   1       1.505   0.618   1.267  0.00  0.00     0.013 A 
HETATM    3  C   UNK N   1       2.083   0.986   0.038  0.00  0.00     0.050 A 
HETATM    4  C   UNK N   1       1.312   1.736  -0.864  0.00  0.00     0.054 A 
HETATM    5  N   UNK N   1       1.657   2.232  -2.084  0.00  0.00    -0.291 N 
HETATM    6  C   UNK N   1       2.882   2.162  -2.731  0.00  0.00     0.228 C 
HETATM    7  O   UNK N   1       3.838   1.633  -2.186  0.00  0.00    -0.273 OA
HETATM    8  C   UNK N   1       0.565   2.899  -2.544  0.00  0.00     0.112 A 
HETATM    9  C   UNK N   1      -0.460   2.836  -1.616  0.00  0.00    -0.005 A 
HETATM   10  C   UNK N   1       0.020   2.100  -0.553  0.00  0.00     0.003 A 
HETATM   11  C   UNK N   1      -0.572   1.757   0.662  0.00  0.00     0.016 A 
HETATM   12  C   UNK N   1       0.183   1.003   1.578  0.00  0.00     0.020 A 
ENDROOT
BRANCH   9  13
HETATM   13  C   UNK N   1      -1.719   3.590  -1.720  0.00  0.00     0.049 C 
HETATM   14  C   UNK N   1      -2.858   3.160  -2.294  0.00  0.00     0.120 A 
HETATM   15  N   UNK N   1      -3.157   1.887  -2.856  0.00  0.00    -0.182 N 
HETATM   16  C   UNK N   1      -4.061   3.994  -2.470  0.00  0.00     0.289 A 
HETATM   17  C   UNK N   1      -4.486   1.986  -3.347  0.00  0.00     0.683 A 
HETATM   18  C   UNK N   1      -2.318   0.708  -2.903  0.00  0.00     0.176 C 
HETATM   19  N   UNK N   1      -5.117   1.032  -3.932  0.00  0.00    -0.234 N 
HETATM   20  N   UNK N   1      -5.015   3.280  -3.109  0.00  0.00    -0.150 N 
HETATM   21  H   UNK N   1      -6.082   1.159  -4.272  0.00  0.00     0.174 HD
ATOM     22  HN  UNK N   1      -4.655   0.132  -4.062  1.00  0.00     0.174 HD
HETATM   23  C   UNK N   1      -6.327   3.762  -3.493  0.00  0.00     0.179 C 
HETATM   24  O   UNK N   1      -4.188   5.159  -2.125  0.00  0.00    -0.265 OA
ENDBRANCH   9  13
BRANCH   6  25
HETATM   25  C   UNK N   1       3.093   2.783  -4.093  0.00  0.00     0.099 C 
HETATM   26  C   UNK N   1       2.463   1.928  -5.189  0.00  0.00     0.014 C 
ENDBRANCH   6  25
TORSDOF 2
