REMARK  5 active torsions:
REMARK  status: ('A' for Active; 'I' for Inactive)
REMARK    1  A    between atoms: C_4  and  O_5 
REMARK    2  A    between atoms: C_7  and  O_8 
REMARK    3  A    between atoms: C_10  and  O_11 
REMARK    4  A    between atoms: C_16  and  C_18 
REMARK    5  A    between atoms: C_21  and  O_22 
ROOT
HETATM    1  O   UNK N   1       3.904   1.516  -2.018  0.00  0.00    -0.287 OA
HETATM    2  C   UNK N   1       2.923   1.132  -1.406  0.00  0.00     0.190 A 
HETATM    3  C   UNK N   1       3.031   0.603  -0.100  0.00  0.00     0.084 A 
HETATM    4  C   UNK N   1       4.269   0.492   0.586  0.00  0.00     0.118 A 
HETATM    5  C   UNK N   1       4.286  -0.009   1.919  0.00  0.00     0.133 A 
HETATM    6  C   UNK N   1       3.082  -0.410   2.529  0.00  0.00     0.104 A 
HETATM    7  C   UNK N   1       1.879  -0.323   1.833  0.00  0.00     0.077 A 
HETATM    8  C   UNK N   1       1.844   0.178   0.534  0.00  0.00     0.096 A 
HETATM    9  O   UNK N   1       0.675   0.255  -0.093  0.00  0.00    -0.309 OA
HETATM   10  C   UNK N   1       0.534   0.764  -1.315  0.00  0.00     0.090 A 
HETATM   11  C   UNK N   1       1.666   1.227  -2.006  0.00  0.00     0.094 A 
ENDROOT
BRANCH  10  12
HETATM   12  C   UNK N   1      -0.830   0.816  -1.903  0.00  0.00    -0.002 A 
HETATM   13  C   UNK N   1      -1.817  -0.060  -1.416  0.00  0.00     0.017 A 
HETATM   14  C   UNK N   1      -3.108  -0.043  -1.948  0.00  0.00     0.037 A 
HETATM   15  C   UNK N   1      -3.440   0.866  -2.960  0.00  0.00     0.065 A 
HETATM   16  C   UNK N   1      -2.471   1.752  -3.442  0.00  0.00     0.037 A 
HETATM   17  C   UNK N   1      -1.170   1.723  -2.927  0.00  0.00     0.017 A 
BRANCH  15  18
HETATM   18  O   UNK N   1      -4.686   0.897  -3.474  0.00  0.00    -0.361 OA
HETATM   19  H   UNK N   1      -5.378   0.293  -3.165  0.00  0.00     0.217 HD
ENDBRANCH  15  18
ENDBRANCH  10  12
BRANCH   4  20
HETATM   20  O   UNK N   1       5.409   0.862  -0.042  0.00  0.00    -0.357 OA
HETATM   21  H   UNK N   1       6.296   0.755   0.321  0.00  0.00     0.218 HD
ENDBRANCH   4  20
BRANCH   6  22
HETATM   22  O   UNK N   1       3.066  -0.881   3.795  0.00  0.00    -0.358 OA
HETATM   23  H   UNK N   1       3.867  -0.957   4.333  0.00  0.00     0.218 HD
ENDBRANCH   6  22
BRANCH   5  24
HETATM   24  O   UNK N   1       5.432  -0.103   2.634  0.00  0.00    -0.356 OA
HETATM   25  H   UNK N   1       6.295   0.194   2.328  0.00  0.00     0.218 HD
ENDBRANCH   5  24
TORSDOF 5
