REMARK  4 active torsions:
REMARK  status: ('A' for Active; 'I' for Inactive)
REMARK    1  A    between atoms: O_1  and  C_2 
REMARK    2  A    between atoms: C_7  and  C_17 
REMARK    3  A    between atoms: C_8  and  C_14 
REMARK    4  A    between atoms: C_14  and  O_15 
ROOT
HETATM    1  C   UNK N   1       2.451   0.942  -1.124  0.00  0.00     0.072 A 
HETATM    2  C   UNK N   1       1.837   0.470   0.053  0.00  0.00    -0.022 A 
HETATM    3  C   UNK N   1       0.423   0.280   0.070  0.00  0.00    -0.038 A 
HETATM    4  C   UNK N   1      -0.344   0.549  -1.093  0.00  0.00    -0.018 A 
HETATM    5  C   UNK N   1      -1.850   0.368  -1.029  0.00  0.00    -0.008 A 
HETATM    6  C   UNK N   1      -2.700   0.117  -2.162  0.00  0.00    -0.017 A 
HETATM    7  C   UNK N   1      -4.110   0.035  -1.967  0.00  0.00    -0.024 A 
HETATM    8  C   UNK N   1      -4.641   0.136  -0.675  0.00  0.00     0.011 A 
HETATM    9  C   UNK N   1      -3.817   0.326   0.423  0.00  0.00     0.009 A 
HETATM   10  C   UNK N   1      -2.436   0.456   0.260  0.00  0.00    -0.046 A 
HETATM   11  C   UNK N   1      -1.558   0.679   1.472  0.00  0.00     0.044 C 
HETATM   12  C   UNK N   1      -0.312  -0.193   1.315  0.00  0.00     0.044 C 
HETATM   13  C   UNK N   1       0.304   1.055  -2.234  0.00  0.00     0.016 A 
HETATM   14  C   UNK N   1       1.685   1.240  -2.249  0.00  0.00     0.038 A 
HETATM   15  C   UNK N   1       2.676   0.153   1.268  0.00  0.00     0.052 C 
ENDROOT
BRANCH   7  16
HETATM   16  C   UNK N   1      -5.061  -0.233  -3.115  0.00  0.00     0.203 C 
BRANCH  16  17
HETATM   17  O   UNK N   1      -5.098   0.880  -3.965  0.00  0.00    -0.396 OA
HETATM   18  H   UNK N   1      -5.890   0.757  -4.551  0.00  0.00     0.209 HD
ENDBRANCH  16  17
ENDBRANCH   7  16
BRANCH   6  19
HETATM   19  C   UNK N   1      -2.183  -0.196  -3.529  0.00  0.00     0.002 C 
HETATM   20  C   UNK N   1      -1.139  -1.014  -3.720  0.00  0.00     0.012 C 
ENDBRANCH   6  19
BRANCH   1  21
HETATM   21  O   UNK N   1       3.794   1.124  -1.165  0.00  0.00    -0.360 OA
HETATM   22  H   UNK N   1       4.240   1.451  -1.959  0.00  0.00     0.217 HD
ENDBRANCH   1  21
TORSDOF 4
