REMARK  7 active torsions:
REMARK  status: ('A' for Active; 'I' for Inactive)
REMARK    1  A    between atoms: C_2  and  O_3 
REMARK    2  A    between atoms: C_2  and  C_15 
REMARK    3  A    between atoms: O_3  and  C_4 
REMARK    4  A    between atoms: C_12  and  O_13 
REMARK    5  A    between atoms: C_15  and  C_16 
REMARK    6  A    between atoms: C_15  and  C_19 
REMARK    7  A    between atoms: C_16  and  O_17 
ROOT
HETATM    1  O   UNK N   1      -0.635  -0.991  -0.924  0.00  0.00    -0.264 OA
HETATM    2  C   UNK N   1      -0.067   0.060  -1.181  0.00  0.00     0.270 C 
ENDROOT
BRANCH   2   3
HETATM    3  O   UNK N   1      -0.773   1.156  -1.558  0.00  0.00    -0.315 OA
BRANCH   3   4
HETATM    4  C   UNK N   1      -2.151   1.245  -1.573  0.00  0.00     0.136 C 
HETATM    5  C   UNK N   1      -2.549   2.586  -2.205  0.00  0.00     0.071 C 
HETATM    6  C   UNK N   1      -4.068   2.857  -2.036  0.00  0.00     0.254 C 
HETATM    7  N   UNK N   1      -4.318   2.956  -0.589  0.00  0.00     0.096 N 
HETATM    8  C   UNK N   1      -4.957   1.688  -2.514  0.00  0.00     0.153 C 
HETATM    9  C   UNK N   1      -5.591   3.620  -0.262  0.00  0.00     0.310 C 
HETATM   10  C   UNK N   1      -4.271   1.541  -0.185  0.00  0.00     0.228 C 
HETATM   11  C   UNK N   1      -2.772   1.130  -0.160  0.00  0.00     0.068 C 
HETATM   12  C   UNK N   1      -5.056   0.775  -1.270  0.00  0.00     0.069 C 
BRANCH   8  13
HETATM   13  O   UNK N   1      -4.456   1.055  -3.661  0.00  0.00    -0.393 OA
HETATM   14  H   UNK N   1      -5.080   0.312  -3.867  0.00  0.00     0.210 HD
ENDBRANCH   8  13
ENDBRANCH   3   4
ENDBRANCH   2   3
BRANCH   2  15
HETATM   15  C   UNK N   1       1.437   0.150  -1.039  0.00  0.00     0.142 C 
BRANCH  15  16
HETATM   16  C   UNK N   1       1.976   1.492  -1.573  0.00  0.00     0.183 C 
BRANCH  16  17
HETATM   17  O   UNK N   1       3.377   1.487  -1.591  0.00  0.00    -0.400 OA
HETATM   18  H   UNK N   1       3.651   2.207  -2.219  0.00  0.00     0.209 HD
ENDBRANCH  16  17
ENDBRANCH  15  16
BRANCH  15  19
HETATM   19  C   UNK N   1       1.858  -0.062   0.411  0.00  0.00    -0.043 A 
HETATM   20  C   UNK N   1       3.145  -0.547   0.704  0.00  0.00     0.008 A 
HETATM   21  C   UNK N   1       3.539  -0.749   2.032  0.00  0.00     0.001 A 
HETATM   22  C   UNK N   1       2.658  -0.462   3.078  0.00  0.00     0.000 A 
HETATM   23  C   UNK N   1       1.382   0.028   2.802  0.00  0.00     0.001 A 
HETATM   24  C   UNK N   1       0.981   0.229   1.482  0.00  0.00     0.008 A 
ENDBRANCH  15  19
ENDBRANCH   2  15
TORSDOF 7
