REMARK  13 active torsions:
REMARK  status: ('A' for Active; 'I' for Inactive)
REMARK    1  A    between atoms: C_2  and  O_3 
REMARK    2  A    between atoms: C_2  and  C_32 
REMARK    3  A    between atoms: O_3  and  C_4 
REMARK    4  A    between atoms: C_7  and  O_8 
REMARK    5  A    between atoms: O_8  and  C_9 
REMARK    6  A    between atoms: C_11  and  C_21 
REMARK    7  A    between atoms: C_12  and  O_13 
REMARK    8  A    between atoms: C_15  and  O_16 
REMARK    9  A    between atoms: C_18  and  O_19 
REMARK   10  A    between atoms: C_21  and  O_22 
REMARK   11  A    between atoms: C_27  and  O_28 
REMARK   12  A    between atoms: C_33  and  C_34 
REMARK   13  A    between atoms: C_37  and  O_38 
ROOT
HETATM    1  C   UNK N   1       3.535   0.840  -0.676  0.00  0.00     0.143 C 
HETATM    2  C   UNK N   1       3.333  -0.602  -1.171  0.00  0.00     0.051 C 
HETATM    3  C   UNK N   1       1.999  -1.065  -0.579  0.00  0.00     0.085 C 
HETATM    4  C   UNK N   1       0.851  -0.650  -1.529  0.00  0.00     0.276 C 
HETATM    5  O   UNK N   1       1.122  -1.180  -2.787  0.00  0.00    -0.332 OA
HETATM    6  C   UNK N   1       2.334  -1.030  -3.391  0.00  0.00     0.134 C 
HETATM    7  C   UNK N   1       3.427  -0.729  -2.671  0.00  0.00     0.005 C 
HETATM    8  C   UNK N   1       2.057  -0.410   0.830  0.00  0.00     0.065 C 
HETATM    9  C   UNK N   1       2.552   1.005   0.505  0.00  0.00     0.071 C 
HETATM   10  C   UNK N   1       0.735  -0.400   1.619  0.00  0.00     0.046 C 
ENDROOT
BRANCH   4  11
HETATM   11  O   UNK N   1      -0.359  -1.174  -1.020  0.00  0.00    -0.328 OA
BRANCH  11  12
HETATM   12  C   UNK N   1      -1.476  -0.847  -1.824  0.00  0.00     0.294 C 
HETATM   13  O   UNK N   1      -1.650   0.562  -1.862  0.00  0.00    -0.348 OA
HETATM   14  C   UNK N   1      -2.738   0.911  -2.704  0.00  0.00     0.179 C 
HETATM   15  C   UNK N   1      -4.059   0.396  -2.088  0.00  0.00     0.180 C 
HETATM   16  C   UNK N   1      -3.971  -1.134  -1.958  0.00  0.00     0.183 C 
HETATM   17  C   UNK N   1      -2.710  -1.504  -1.168  0.00  0.00     0.204 C 
BRANCH  14  18
HETATM   18  C   UNK N   1      -2.759   2.437  -2.867  0.00  0.00     0.198 C 
BRANCH  18  19
HETATM   19  O   UNK N   1      -1.578   2.882  -3.478  0.00  0.00    -0.398 OA
HETATM   20  H   UNK N   1      -0.877   2.896  -2.775  0.00  0.00     0.209 HD
ENDBRANCH  18  19
ENDBRANCH  14  18
BRANCH  15  21
HETATM   21  O   UNK N   1      -5.143   0.745  -2.911  0.00  0.00    -0.390 OA
HETATM   22  H   UNK N   1      -5.950   0.761  -2.334  0.00  0.00     0.210 HD
ENDBRANCH  15  21
BRANCH  16  23
HETATM   23  O   UNK N   1      -5.100  -1.642  -1.295  0.00  0.00    -0.390 OA
HETATM   24  H   UNK N   1      -5.824  -1.715  -1.969  0.00  0.00     0.210 HD
ENDBRANCH  16  23
BRANCH  17  25
HETATM   25  O   UNK N   1      -2.571  -2.902  -1.145  0.00  0.00    -0.388 OA
HETATM   26  H   UNK N   1      -1.929  -3.119  -0.420  0.00  0.00     0.210 HD
ENDBRANCH  17  25
ENDBRANCH  11  12
ENDBRANCH   4  11
BRANCH   8  27
HETATM   27  O   UNK N   1       3.048  -1.046   1.607  0.00  0.00    -0.390 OA
HETATM   28  H   UNK N   1       2.775  -1.994   1.725  0.00  0.00     0.210 HD
ENDBRANCH   8  27
BRANCH   1  29
HETATM   29  O   UNK N   1       4.854   0.997  -0.283  0.00  0.00    -0.312 OA
BRANCH  29  30
HETATM   30  C   UNK N   1       5.777   1.702  -0.994  0.00  0.00     0.283 C 
HETATM   31  O   UNK N   1       5.501   2.155  -2.094  0.00  0.00    -0.260 OA
BRANCH  30  32
HETATM   32  C   UNK N   1       7.134   1.916  -0.454  0.00  0.00     0.083 C 
HETATM   33  C   UNK N   1       7.521   1.399   0.728  0.00  0.00     0.017 C 
BRANCH  33  34
HETATM   34  C   UNK N   1       8.875   1.605   1.322  0.00  0.00    -0.036 A 
HETATM   35  C   UNK N   1       9.219   0.877   2.474  0.00  0.00     0.014 A 
HETATM   36  C   UNK N   1      10.475   1.035   3.067  0.00  0.00     0.037 A 
HETATM   37  C   UNK N   1      11.403   1.933   2.523  0.00  0.00     0.065 A 
HETATM   38  C   UNK N   1      11.068   2.668   1.384  0.00  0.00     0.037 A 
HETATM   39  C   UNK N   1       9.818   2.508   0.782  0.00  0.00     0.014 A 
BRANCH  37  40
HETATM   40  O   UNK N   1      12.617   2.096   3.088  0.00  0.00    -0.361 OA
HETATM   41  H   UNK N   1      12.883   1.600   3.875  0.00  0.00     0.217 HD
ENDBRANCH  37  40
ENDBRANCH  33  34
ENDBRANCH  30  32
ENDBRANCH  29  30
ENDBRANCH   1  29
TORSDOF 13
