REMARK  7 active torsions:
REMARK  status: ('A' for Active; 'I' for Inactive)
REMARK    1  A    between atoms: C_6  and  O_7 
REMARK    2  A    between atoms: C_10  and  O_11 
REMARK    3  A    between atoms: C_10  and  C_13 
REMARK    4  A    between atoms: C_17  and  O_18 
REMARK    5  A    between atoms: O_18  and  C_19 
REMARK    6  A    between atoms: C_19  and  C_21 
REMARK    7  A    between atoms: C_24  and  O_25 
ROOT
HETATM    1  O   UNK N   1       2.642  -0.672  -4.413  0.00  0.00    -0.292 OA
HETATM    2  C   UNK N   1       2.188  -0.294  -3.341  0.00  0.00     0.161 C 
HETATM    3  C   UNK N   1       1.231   0.840  -3.387  0.00  0.00     0.053 C 
HETATM    4  C   UNK N   1       0.981   1.764  -2.431  0.00  0.00    -0.078 C 
HETATM    5  C   UNK N   1       1.768   1.943  -1.149  0.00  0.00     0.066 C 
HETATM    6  C   UNK N   1       3.095   1.180  -0.998  0.00  0.00     0.130 C 
HETATM    7  C   UNK N   1       3.072  -0.374  -0.841  0.00  0.00     0.068 C 
HETATM    8  C   UNK N   1       2.322  -0.974   0.402  0.00  0.00     0.070 C 
HETATM    9  C   UNK N   1       0.904  -1.107  -0.166  0.00  0.00     0.072 C 
HETATM   10  C   UNK N   1       1.131  -1.781  -1.519  0.00  0.00     0.151 C 
HETATM   11  C   UNK N   1       2.456  -1.138  -2.073  0.00  0.00     0.056 C 
HETATM   12  C   UNK N   1       3.418  -2.301  -2.458  0.00  0.00     0.027 C 
HETATM   13  C   UNK N   1      -0.121   2.768  -2.674  0.00  0.00     0.043 C 
ENDROOT
BRANCH  10  14
HETATM   14  O   UNK N   1       0.029  -1.626  -2.350  0.00  0.00    -0.311 OA
BRANCH  14  15
HETATM   15  C   UNK N   1      -1.230  -1.991  -1.983  0.00  0.00     0.293 C 
HETATM   16  O   UNK N   1      -1.401  -2.797  -1.080  0.00  0.00    -0.259 OA
BRANCH  15  17
HETATM   17  C   UNK N   1      -2.382  -1.258  -2.549  0.00  0.00     0.039 A 
HETATM   18  C   UNK N   1      -3.619  -1.271  -1.881  0.00  0.00     0.020 A 
HETATM   19  C   UNK N   1      -4.687  -0.512  -2.364  0.00  0.00     0.037 A 
HETATM   20  C   UNK N   1      -4.538   0.252  -3.530  0.00  0.00     0.065 A 
HETATM   21  C   UNK N   1      -3.316   0.248  -4.211  0.00  0.00     0.037 A 
HETATM   22  C   UNK N   1      -2.239  -0.496  -3.719  0.00  0.00     0.020 A 
BRANCH  20  23
HETATM   23  O   UNK N   1      -5.559   0.999  -3.996  0.00  0.00    -0.361 OA
HETATM   24  H   UNK N   1      -6.407   1.045  -3.532  0.00  0.00     0.217 HD
ENDBRANCH  20  23
ENDBRANCH  15  17
ENDBRANCH  14  15
ENDBRANCH  10  14
BRANCH   8  25
HETATM   25  O   UNK N   1       2.856  -2.263   0.640  0.00  0.00    -0.389 OA
HETATM   26  H   UNK N   1       2.173  -2.820   1.098  0.00  0.00     0.210 HD
ENDBRANCH   8  25
BRANCH   8  27
HETATM   27  C   UNK N   1       2.398  -0.154   1.739  0.00  0.00     0.012 C 
HETATM   28  C   UNK N   1       1.524  -0.769   2.853  0.00  0.00     0.012 C 
HETATM   29  C   UNK N   1       3.840  -0.047   2.265  0.00  0.00     0.012 C 
ENDBRANCH   8  27
BRANCH   6  30
HETATM   30  O   UNK N   1       3.947   1.510  -2.070  0.00  0.00    -0.395 OA
HETATM   31  H   UNK N   1       4.301   2.423  -1.904  0.00  0.00     0.210 HD
ENDBRANCH   6  30
TORSDOF 7
