REMARK  7 active torsions:
REMARK  status: ('A' for Active; 'I' for Inactive)
REMARK    1  A    between atoms: C_2  and  O_3 
REMARK    2  A    between atoms: C_2  and  C_15 
REMARK    3  A    between atoms: O_3  and  C_4 
REMARK    4  A    between atoms: C_12  and  O_13 
REMARK    5  A    between atoms: C_15  and  C_16 
REMARK    6  A    between atoms: C_15  and  C_19 
REMARK    7  A    between atoms: C_16  and  O_17 
ROOT
HETATM    1  O   UNK N   1      -0.332   2.218  -1.702  0.00  0.00    -0.264 OA
HETATM    2  C   UNK N   1       0.055   1.102  -1.388  0.00  0.00     0.270 C 
ENDROOT
BRANCH   2   3
HETATM    3  O   UNK N   1      -0.827   0.083  -1.221  0.00  0.00    -0.315 OA
BRANCH   3   4
HETATM    4  C   UNK N   1      -2.196   0.165  -1.406  0.00  0.00     0.136 C 
HETATM    5  C   UNK N   1      -2.667  -0.936  -2.371  0.00  0.00     0.071 C 
HETATM    6  C   UNK N   1      -4.219  -1.129  -2.311  0.00  0.00     0.254 C 
HETATM    7  N   UNK N   1      -4.654  -1.478  -0.951  0.00  0.00     0.096 N 
HETATM    8  C   UNK N   1      -5.010   0.169  -2.539  0.00  0.00     0.153 C 
HETATM    9  C   UNK N   1      -4.113  -2.716  -0.364  0.00  0.00     0.310 C 
HETATM   10  C   UNK N   1      -4.419  -0.225  -0.216  0.00  0.00     0.228 C 
HETATM   11  C   UNK N   1      -2.894   0.035  -0.046  0.00  0.00     0.068 C 
HETATM   12  C   UNK N   1      -5.067   0.828  -1.136  0.00  0.00     0.069 C 
BRANCH   8  13
HETATM   13  O   UNK N   1      -4.472   0.985  -3.543  0.00  0.00    -0.393 OA
HETATM   14  H   UNK N   1      -5.121   1.725  -3.674  0.00  0.00     0.210 HD
ENDBRANCH   8  13
ENDBRANCH   3   4
ENDBRANCH   2   3
BRANCH   2  15
HETATM   15  C   UNK N   1       1.529   0.832  -1.154  0.00  0.00     0.142 C 
BRANCH  15  16
HETATM   16  C   UNK N   1       2.410   2.057  -1.451  0.00  0.00     0.183 C 
BRANCH  16  17
HETATM   17  O   UNK N   1       3.766   1.698  -1.366  0.00  0.00    -0.400 OA
HETATM   18  H   UNK N   1       4.250   2.223  -2.056  0.00  0.00     0.209 HD
ENDBRANCH  16  17
ENDBRANCH  15  16
BRANCH  15  19
HETATM   19  C   UNK N   1       1.794   0.313   0.254  0.00  0.00    -0.043 A 
HETATM   20  C   UNK N   1       2.792  -0.659   0.460  0.00  0.00     0.008 A 
HETATM   21  C   UNK N   1       3.063  -1.135   1.747  0.00  0.00     0.001 A 
HETATM   22  C   UNK N   1       2.339  -0.655   2.840  0.00  0.00     0.000 A 
HETATM   23  C   UNK N   1       1.345   0.308   2.651  0.00  0.00     0.001 A 
HETATM   24  C   UNK N   1       1.075   0.798   1.368  0.00  0.00     0.008 A 
ENDBRANCH  15  19
ENDBRANCH   2  15
TORSDOF 7
