REMARK  8 active torsions:
REMARK  status: ('A' for Active; 'I' for Inactive)
REMARK    1  A    between atoms: C_6  and  C_8 
REMARK    2  A    between atoms: C_10  and  O_11 
REMARK    3  A    between atoms: C_13  and  O_14 
REMARK    4  A    between atoms: C_18  and  C_26 
REMARK    5  A    between atoms: C_19  and  O_20 
REMARK    6  A    between atoms: C_23  and  O_24 
REMARK    7  A    between atoms: C_26  and  C_27 
REMARK    8  A    between atoms: C_30  and  O_31 
ROOT
HETATM    1  O   UNK N   1      -4.394   1.106  -3.595  0.00  0.00    -0.287 OA
HETATM    2  C   UNK N   1      -3.340   0.688  -3.147  0.00  0.00     0.190 A 
HETATM    3  C   UNK N   1      -3.311  -0.292  -2.132  0.00  0.00     0.082 A 
HETATM    4  C   UNK N   1      -2.047  -0.727  -1.662  0.00  0.00     0.102 A 
HETATM    5  O   UNK N   1      -0.932  -0.197  -2.159  0.00  0.00    -0.308 OA
HETATM    6  C   UNK N   1      -0.925   0.716  -3.130  0.00  0.00     0.090 A 
HETATM    7  C   UNK N   1      -2.141   1.179  -3.658  0.00  0.00     0.094 A 
HETATM    8  C   UNK N   1      -1.959  -1.742  -0.685  0.00  0.00     0.014 A 
HETATM    9  C   UNK N   1      -3.145  -2.305  -0.168  0.00  0.00     0.077 A 
HETATM   10  C   UNK N   1      -4.391  -1.853  -0.611  0.00  0.00     0.074 A 
HETATM   11  C   UNK N   1      -4.488  -0.855  -1.587  0.00  0.00     0.085 A 
ENDROOT
BRANCH   6  12
HETATM   12  C   UNK N   1       0.385   1.209  -3.625  0.00  0.00     0.001 A 
HETATM   13  C   UNK N   1       1.504   1.122  -2.783  0.00  0.00     0.053 A 
HETATM   14  C   UNK N   1       2.758   1.567  -3.205  0.00  0.00     0.099 A 
HETATM   15  C   UNK N   1       2.922   2.086  -4.502  0.00  0.00     0.101 A 
HETATM   16  C   UNK N   1       1.801   2.166  -5.356  0.00  0.00     0.040 A 
HETATM   17  C   UNK N   1       0.544   1.744  -4.916  0.00  0.00     0.017 A 
BRANCH  14  18
HETATM   18  O   UNK N   1       3.798   1.489  -2.347  0.00  0.00    -0.358 OA
HETATM   19  H   UNK N   1       4.684   1.801  -2.576  0.00  0.00     0.218 HD
ENDBRANCH  14  18
BRANCH  15  20
HETATM   20  O   UNK N   1       4.159   2.489  -4.898  0.00  0.00    -0.353 OA
HETATM   21  C   UNK N   1       4.478   2.963  -6.154  0.00  0.00     0.210 C 
ENDBRANCH  15  20
ENDBRANCH   6  12
BRANCH   8  22
HETATM   22  C   UNK N   1      -0.609  -2.245  -0.198  0.00  0.00     0.083 C 
BRANCH  22  23
HETATM   23  C   UNK N   1       0.124  -1.230   0.640  0.00  0.00    -0.054 A 
HETATM   24  C   UNK N   1       1.465  -0.908   0.372  0.00  0.00     0.010 A 
HETATM   25  C   UNK N   1       2.148  -0.001   1.191  0.00  0.00     0.037 A 
HETATM   26  C   UNK N   1       1.496   0.597   2.276  0.00  0.00     0.065 A 
HETATM   27  C   UNK N   1       0.157   0.282   2.542  0.00  0.00     0.037 A 
HETATM   28  C   UNK N   1      -0.522  -0.632   1.734  0.00  0.00     0.010 A 
BRANCH  26  29
HETATM   29  O   UNK N   1       2.164   1.468   3.059  0.00  0.00    -0.361 OA
HETATM   30  H   UNK N   1       1.742   1.892   3.820  0.00  0.00     0.217 HD
ENDBRANCH  26  29
ENDBRANCH  22  23
ENDBRANCH   8  22
BRANCH  11  31
HETATM   31  O   UNK N   1      -5.707  -0.447  -2.001  0.00  0.00    -0.360 OA
HETATM   32  H   UNK N   1      -6.523  -0.817  -1.633  0.00  0.00     0.217 HD
ENDBRANCH  11  31
BRANCH   9  33
HETATM   33  O   UNK N   1      -3.083  -3.278   0.768  0.00  0.00    -0.360 OA
HETATM   34  H   UNK N   1      -3.878  -3.681   1.145  0.00  0.00     0.217 HD
ENDBRANCH   9  33
TORSDOF 8
