REMARK  8 active torsions:
REMARK  status: ('A' for Active; 'I' for Inactive)
REMARK    1  A    between atoms: C_6  and  C_8 
REMARK    2  A    between atoms: C_10  and  O_11 
REMARK    3  A    between atoms: C_13  and  O_14 
REMARK    4  A    between atoms: C_18  and  C_26 
REMARK    5  A    between atoms: C_19  and  O_20 
REMARK    6  A    between atoms: C_23  and  O_24 
REMARK    7  A    between atoms: C_26  and  C_27 
REMARK    8  A    between atoms: C_30  and  O_31 
ROOT
HETATM    1  O   UNK N   1      -4.300   0.427  -3.801  0.00  0.00    -0.287 OA
HETATM    2  C   UNK N   1      -3.347   0.756  -3.117  0.00  0.00     0.190 A 
HETATM    3  C   UNK N   1      -3.475   0.957  -1.727  0.00  0.00     0.082 A 
HETATM    4  C   UNK N   1      -2.320   1.338  -0.999  0.00  0.00     0.102 A 
HETATM    5  O   UNK N   1      -1.151   1.475  -1.624  0.00  0.00    -0.308 OA
HETATM    6  C   UNK N   1      -1.002   1.309  -2.939  0.00  0.00     0.090 A 
HETATM    7  C   UNK N   1      -2.108   0.950  -3.724  0.00  0.00     0.094 A 
HETATM    8  C   UNK N   1      -2.407   1.601   0.385  0.00  0.00     0.014 A 
HETATM    9  C   UNK N   1      -3.650   1.458   1.040  0.00  0.00     0.077 A 
HETATM   10  C   UNK N   1      -4.779   1.053   0.324  0.00  0.00     0.074 A 
HETATM   11  C   UNK N   1      -4.708   0.802  -1.050  0.00  0.00     0.085 A 
ENDROOT
BRANCH   6  12
HETATM   12  C   UNK N   1       0.345   1.515  -3.534  0.00  0.00     0.001 A 
HETATM   13  C   UNK N   1       1.482   1.375  -2.720  0.00  0.00     0.053 A 
HETATM   14  C   UNK N   1       2.766   1.558  -3.242  0.00  0.00     0.099 A 
HETATM   15  C   UNK N   1       2.926   1.918  -4.592  0.00  0.00     0.098 A 
HETATM   16  C   UNK N   1       1.797   2.070  -5.408  0.00  0.00     0.040 A 
HETATM   17  C   UNK N   1       0.516   1.860  -4.890  0.00  0.00     0.017 A 
BRANCH  14  18
HETATM   18  O   UNK N   1       3.833   1.384  -2.434  0.00  0.00    -0.358 OA
HETATM   19  H   UNK N   1       4.742   1.476  -2.752  0.00  0.00     0.218 HD
ENDBRANCH  14  18
BRANCH  15  20
HETATM   20  O   UNK N   1       4.162   2.118  -5.096  0.00  0.00    -0.358 OA
HETATM   21  H   UNK N   1       4.300   2.382  -6.017  0.00  0.00     0.218 HD
ENDBRANCH  15  20
ENDBRANCH   6  12
BRANCH   8  22
HETATM   22  C   UNK N   1      -1.189   2.046   1.176  0.00  0.00     0.083 C 
BRANCH  22  23
HETATM   23  C   UNK N   1      -0.183   0.941   1.361  0.00  0.00    -0.054 A 
HETATM   24  C   UNK N   1      -0.598  -0.302   1.870  0.00  0.00     0.010 A 
HETATM   25  C   UNK N   1       0.330  -1.322   2.085  0.00  0.00     0.037 A 
HETATM   26  C   UNK N   1       1.684  -1.108   1.814  0.00  0.00     0.065 A 
HETATM   27  C   UNK N   1       2.107   0.132   1.311  0.00  0.00     0.037 A 
HETATM   28  C   UNK N   1       1.176   1.151   1.079  0.00  0.00     0.010 A 
BRANCH  26  29
HETATM   29  O   UNK N   1       2.571  -2.096   2.049  0.00  0.00    -0.361 OA
HETATM   30  H   UNK N   1       3.519  -1.978   1.891  0.00  0.00     0.217 HD
ENDBRANCH  26  29
ENDBRANCH  22  23
ENDBRANCH   8  22
BRANCH  11  31
HETATM   31  O   UNK N   1      -5.820   0.421  -1.714  0.00  0.00    -0.360 OA
HETATM   32  H   UNK N   1      -6.670   0.303  -1.264  0.00  0.00     0.217 HD
ENDBRANCH  11  31
BRANCH   9  33
HETATM   33  O   UNK N   1      -3.752   1.700   2.365  0.00  0.00    -0.360 OA
HETATM   34  H   UNK N   1      -4.587   1.598   2.844  0.00  0.00     0.217 HD
ENDBRANCH   9  33
TORSDOF 8
