REMARK  9 active torsions:
REMARK  status: ('A' for Active; 'I' for Inactive)
REMARK    1  A    between atoms: C_3  and  O_4 
REMARK    2  A    between atoms: C_6  and  C_27 
REMARK    3  A    between atoms: C_10  and  O_11 
REMARK    4  A    between atoms: C_14  and  O_25 
REMARK    5  A    between atoms: C_15  and  C_16 
REMARK    6  A    between atoms: C_16  and  C_17 
REMARK    7  A    between atoms: C_20  and  O_21 
REMARK    8  A    between atoms: C_29  and  O_30 
REMARK    9  A    between atoms: C_32  and  O_33 
ROOT
HETATM    1  O   UNK N   1       3.306   1.213  -1.708  0.00  0.00    -0.284 OA
HETATM    2  C   UNK N   1       2.217   0.909  -1.251  0.00  0.00     0.223 A 
HETATM    3  C   UNK N   1       1.065   1.058  -2.043  0.00  0.00     0.152 A 
HETATM    4  C   UNK N   1      -0.191   0.714  -1.492  0.00  0.00     0.123 A 
HETATM    5  O   UNK N   1      -0.248   0.269  -0.242  0.00  0.00    -0.305 OA
HETATM    6  C   UNK N   1       0.811   0.093   0.541  0.00  0.00     0.102 A 
HETATM    7  C   UNK N   1       2.100   0.416   0.067  0.00  0.00     0.085 A 
HETATM    8  C   UNK N   1       3.214   0.244   0.921  0.00  0.00     0.085 A 
HETATM    9  C   UNK N   1       3.024  -0.240   2.223  0.00  0.00     0.074 A 
HETATM   10  C   UNK N   1       1.749  -0.563   2.696  0.00  0.00     0.077 A 
HETATM   11  C   UNK N   1       0.625  -0.404   1.851  0.00  0.00     0.014 A 
ENDROOT
BRANCH   4  12
HETATM   12  C   UNK N   1      -1.484   0.830  -2.233  0.00  0.00     0.004 A 
HETATM   13  C   UNK N   1      -2.673   1.007  -1.496  0.00  0.00     0.053 A 
HETATM   14  C   UNK N   1      -3.911   1.115  -2.142  0.00  0.00     0.099 A 
HETATM   15  C   UNK N   1      -3.979   1.019  -3.542  0.00  0.00     0.098 A 
HETATM   16  C   UNK N   1      -2.804   0.826  -4.281  0.00  0.00     0.040 A 
HETATM   17  C   UNK N   1      -1.568   0.739  -3.637  0.00  0.00     0.017 A 
BRANCH  14  18
HETATM   18  O   UNK N   1      -5.024   1.311  -1.403  0.00  0.00    -0.358 OA
HETATM   19  H   UNK N   1      -5.900   1.409  -1.803  0.00  0.00     0.218 HD
ENDBRANCH  14  18
BRANCH  15  20
HETATM   20  O   UNK N   1      -5.170   1.105  -4.170  0.00  0.00    -0.358 OA
HETATM   21  H   UNK N   1      -5.246   1.027  -5.132  0.00  0.00     0.218 HD
ENDBRANCH  15  20
ENDBRANCH   4  12
BRANCH   3  22
HETATM   22  O   UNK N   1       1.157   1.562  -3.293  0.00  0.00    -0.355 OA
HETATM   23  H   UNK N   1       1.997   1.834  -3.688  0.00  0.00     0.218 HD
ENDBRANCH   3  22
BRANCH  11  24
HETATM   24  C   UNK N   1      -0.784  -0.747   2.315  0.00  0.00     0.083 C 
BRANCH  24  25
HETATM   25  C   UNK N   1      -1.299   0.228   3.340  0.00  0.00    -0.054 A 
HETATM   26  C   UNK N   1      -1.875  -0.229   4.537  0.00  0.00     0.010 A 
HETATM   27  C   UNK N   1      -2.391   0.686   5.460  0.00  0.00     0.037 A 
HETATM   28  C   UNK N   1      -2.325   2.061   5.204  0.00  0.00     0.065 A 
HETATM   29  C   UNK N   1      -1.744   2.519   4.013  0.00  0.00     0.037 A 
HETATM   30  C   UNK N   1      -1.244   1.608   3.083  0.00  0.00     0.010 A 
BRANCH  28  31
HETATM   31  O   UNK N   1      -2.824   2.933   6.103  0.00  0.00    -0.361 OA
HETATM   32  H   UNK N   1      -2.794   3.889   5.953  0.00  0.00     0.217 HD
ENDBRANCH  28  31
ENDBRANCH  24  25
ENDBRANCH  11  24
BRANCH   8  33
HETATM   33  O   UNK N   1       4.462   0.545   0.498  0.00  0.00    -0.360 OA
HETATM   34  H   UNK N   1       5.238   0.435   1.065  0.00  0.00     0.217 HD
ENDBRANCH   8  33
BRANCH  10  35
HETATM   35  O   UNK N   1       1.633  -1.031   3.958  0.00  0.00    -0.360 OA
HETATM   36  H   UNK N   1       0.791  -1.287   4.355  0.00  0.00     0.217 HD
ENDBRANCH  10  35
TORSDOF 9
