REMARK  8 active torsions:
REMARK  status: ('A' for Active; 'I' for Inactive)
REMARK    1  A    between atoms: C_3  and  O_4 
REMARK    2  A    between atoms: C_6  and  C_27 
REMARK    3  A    between atoms: C_10  and  O_11 
REMARK    4  A    between atoms: C_14  and  O_25 
REMARK    5  A    between atoms: C_15  and  C_16 
REMARK    6  A    between atoms: C_16  and  C_17 
REMARK    7  A    between atoms: C_20  and  O_21 
REMARK    8  A    between atoms: C_30  and  O_31 
ROOT
HETATM    1  O   UNK N   1       3.293   1.066  -1.775  0.00  0.00    -0.284 OA
HETATM    2  C   UNK N   1       2.202   0.818  -1.292  0.00  0.00     0.223 A 
HETATM    3  C   UNK N   1       1.044   0.951  -2.079  0.00  0.00     0.152 A 
HETATM    4  C   UNK N   1      -0.207   0.688  -1.494  0.00  0.00     0.123 A 
HETATM    5  O   UNK N   1      -0.273   0.305  -0.226  0.00  0.00    -0.305 OA
HETATM    6  C   UNK N   1       0.789   0.124   0.550  0.00  0.00     0.102 A 
HETATM    7  C   UNK N   1       2.083   0.395   0.053  0.00  0.00     0.085 A 
HETATM    8  C   UNK N   1       3.199   0.229   0.904  0.00  0.00     0.085 A 
HETATM    9  C   UNK N   1       3.009  -0.218   2.220  0.00  0.00     0.074 A 
HETATM   10  C   UNK N   1       1.733  -0.513   2.707  0.00  0.00     0.077 A 
HETATM   11  C   UNK N   1       0.604  -0.344   1.870  0.00  0.00     0.014 A 
ENDROOT
BRANCH  11  12
HETATM   12  C   UNK N   1      -0.804  -0.678   2.346  0.00  0.00     0.083 C 
BRANCH  12  13
HETATM   13  C   UNK N   1      -1.306   0.277   3.395  0.00  0.00    -0.054 A 
HETATM   14  C   UNK N   1      -1.325   1.657   3.133  0.00  0.00     0.010 A 
HETATM   15  C   UNK N   1      -1.822   2.547   4.087  0.00  0.00     0.037 A 
HETATM   16  C   UNK N   1      -2.315   2.069   5.305  0.00  0.00     0.065 A 
HETATM   17  C   UNK N   1      -2.301   0.691   5.570  0.00  0.00     0.037 A 
HETATM   18  C   UNK N   1      -1.796  -0.202   4.620  0.00  0.00     0.010 A 
BRANCH  16  19
HETATM   19  O   UNK N   1      -2.806   2.938   6.212  0.00  0.00    -0.361 OA
HETATM   20  H   UNK N   1      -3.167   2.640   7.058  0.00  0.00     0.217 HD
ENDBRANCH  16  19
ENDBRANCH  12  13
ENDBRANCH  11  12
BRANCH  10  21
HETATM   21  O   UNK N   1       1.622  -0.971   3.974  0.00  0.00    -0.360 OA
HETATM   22  H   UNK N   1       0.783  -1.232   4.373  0.00  0.00     0.217 HD
ENDBRANCH  10  21
BRANCH   4  23
HETATM   23  C   UNK N   1      -1.485   0.812  -2.233  0.00  0.00     0.001 A 
HETATM   24  C   UNK N   1      -1.610   0.383  -3.566  0.00  0.00     0.017 A 
HETATM   25  C   UNK N   1      -2.845   0.467  -4.218  0.00  0.00     0.037 A 
HETATM   26  C   UNK N   1      -3.959   1.003  -3.556  0.00  0.00     0.065 A 
HETATM   27  C   UNK N   1      -3.834   1.445  -2.236  0.00  0.00     0.037 A 
HETATM   28  C   UNK N   1      -2.610   1.334  -1.571  0.00  0.00     0.017 A 
BRANCH  26  29
HETATM   29  O   UNK N   1      -5.153   1.090  -4.177  0.00  0.00    -0.361 OA
HETATM   30  H   UNK N   1      -5.279   0.772  -5.082  0.00  0.00     0.217 HD
ENDBRANCH  26  29
ENDBRANCH   4  23
BRANCH   8  31
HETATM   31  O   UNK N   1       4.449   0.492   0.464  0.00  0.00    -0.360 OA
HETATM   32  H   UNK N   1       5.226   0.389   1.032  0.00  0.00     0.217 HD
ENDBRANCH   8  31
BRANCH   3  33
HETATM   33  O   UNK N   1       1.123   1.366  -3.365  0.00  0.00    -0.355 OA
HETATM   34  H   UNK N   1       1.963   1.584  -3.791  0.00  0.00     0.218 HD
ENDBRANCH   3  33
TORSDOF 8
