REMARK  10 active torsions:
REMARK  status: ('A' for Active; 'I' for Inactive)
REMARK    1  A    between atoms: C_2  and  O_3 
REMARK    2  A    between atoms: C_2  and  C_5 
REMARK    3  A    between atoms: C_8  and  O_9 
REMARK    4  A    between atoms: O_9  and  C_10 
REMARK    5  A    between atoms: C_12  and  C_22 
REMARK    6  A    between atoms: C_13  and  O_14 
REMARK    7  A    between atoms: C_16  and  O_17 
REMARK    8  A    between atoms: C_19  and  O_20 
REMARK    9  A    between atoms: C_22  and  O_23 
REMARK   10  A    between atoms: C_27  and  O_28 
ROOT
HETATM    1  C   UNK N   1       1.782   1.246  -0.949  0.00  0.00     0.044 C 
HETATM    2  C   UNK N   1       0.700   1.647  -0.241  0.00  0.00     0.151 C 
HETATM    3  O   UNK N   1      -0.174   0.747   0.284  0.00  0.00    -0.331 OA
HETATM    4  C   UNK N   1      -0.325  -0.521  -0.252  0.00  0.00     0.273 C 
HETATM    5  C   UNK N   1       1.060  -1.168  -0.397  0.00  0.00     0.056 C 
HETATM    6  C   UNK N   1       1.779  -1.664   0.873  0.00  0.00     0.020 C 
HETATM    7  C   UNK N   1       3.200  -1.892   0.325  0.00  0.00     0.123 C 
HETATM    8  C   UNK N   1       3.446  -0.614  -0.483  0.00  0.00     0.042 C 
HETATM    9  C   UNK N   1       2.078  -0.248  -1.121  0.00  0.00     0.038 C 
HETATM   10  C   UNK N   1       1.751  -0.678   2.059  0.00  0.00     0.013 C 
ENDROOT
BRANCH   4  11
HETATM   11  O   UNK N   1      -0.909  -0.441  -1.543  0.00  0.00    -0.328 OA
BRANCH  11  12
HETATM   12  C   UNK N   1      -2.204   0.143  -1.519  0.00  0.00     0.294 C 
HETATM   13  O   UNK N   1      -3.060  -0.576  -0.640  0.00  0.00    -0.348 OA
HETATM   14  C   UNK N   1      -4.337   0.041  -0.566  0.00  0.00     0.179 C 
HETATM   15  C   UNK N   1      -5.060  -0.080  -1.929  0.00  0.00     0.180 C 
HETATM   16  C   UNK N   1      -4.204   0.606  -3.011  0.00  0.00     0.183 C 
HETATM   17  C   UNK N   1      -2.767   0.060  -2.954  0.00  0.00     0.204 C 
BRANCH  14  18
HETATM   18  C   UNK N   1      -5.144  -0.646   0.543  0.00  0.00     0.198 C 
BRANCH  18  19
HETATM   19  O   UNK N   1      -4.472  -0.510   1.765  0.00  0.00    -0.398 OA
HETATM   20  H   UNK N   1      -5.029  -0.977   2.440  0.00  0.00     0.209 HD
ENDBRANCH  18  19
ENDBRANCH  14  18
BRANCH  15  21
HETATM   21  O   UNK N   1      -6.322   0.534  -1.852  0.00  0.00    -0.390 OA
HETATM   22  H   UNK N   1      -6.869   0.174  -2.598  0.00  0.00     0.210 HD
ENDBRANCH  15  21
BRANCH  16  23
HETATM   23  O   UNK N   1      -4.731   0.364  -4.291  0.00  0.00    -0.390 OA
HETATM   24  H   UNK N   1      -5.545   0.922  -4.388  0.00  0.00     0.210 HD
ENDBRANCH  16  23
BRANCH  17  25
HETATM   25  O   UNK N   1      -1.938   0.741  -3.864  0.00  0.00    -0.388 OA
HETATM   26  H   UNK N   1      -1.902   1.693  -3.582  0.00  0.00     0.210 HD
ENDBRANCH  17  25
ENDBRANCH  11  12
ENDBRANCH   4  11
BRANCH   1  27
HETATM   27  C   UNK N   1       2.691   2.261  -1.552  0.00  0.00     0.291 C 
HETATM   28  O   UNK N   1       3.668   1.902  -2.192  0.00  0.00    -0.260 OA
BRANCH  27  29
HETATM   29  O   UNK N   1       2.413   3.585  -1.405  0.00  0.00    -0.323 OA
HETATM   30  C   UNK N   1       3.183   4.591  -1.948  0.00  0.00     0.213 C 
ENDBRANCH  27  29
ENDBRANCH   1  27
BRANCH   7  31
HETATM   31  O   UNK N   1       3.199  -3.004  -0.536  0.00  0.00    -0.395 OA
HETATM   32  H   UNK N   1       4.149  -3.180  -0.770  0.00  0.00     0.210 HD
ENDBRANCH   7  31
TORSDOF 10
