REMARK  7 active torsions:
REMARK  status: ('A' for Active; 'I' for Inactive)
REMARK    1  A    between atoms: C_2  and  O_3 
REMARK    2  A    between atoms: C_2  and  C_23 
REMARK    3  A    between atoms: O_3  and  C_4 
REMARK    4  A    between atoms: C_6  and  O_7 
REMARK    5  A    between atoms: C_6  and  C_9 
REMARK    6  A    between atoms: C_16  and  O_17 
REMARK    7  A    between atoms: C_26  and  O_27 
ROOT
HETATM    1  C   UNK N   1       0.960   0.640  -1.461  0.00  0.00     0.144 C 
HETATM    2  C   UNK N   1       0.875   1.483  -0.150  0.00  0.00     0.058 C 
HETATM    3  C   UNK N   1      -0.362   1.145   0.782  0.00  0.00     0.067 C 
HETATM    4  C   UNK N   1       0.159   1.436   2.224  0.00  0.00     0.039 C 
HETATM    5  C   UNK N   1       1.460   2.182   2.039  0.00  0.00     0.012 C 
HETATM    6  C   UNK N   1       2.108   1.538   0.793  0.00  0.00    -0.033 C 
HETATM    7  C   UNK N   1       3.220   2.525   0.303  0.00  0.00     0.046 C 
HETATM    8  C   UNK N   1       3.941   2.277  -1.031  0.00  0.00     0.147 C 
HETATM    9  C   UNK N   1       2.980   2.075  -2.192  0.00  0.00    -0.058 C 
HETATM   10  C   UNK N   1       2.245   0.768  -2.293  0.00  0.00     0.069 C 
HETATM   11  C   UNK N   1       2.861   2.997  -3.157  0.00  0.00     0.017 C 
HETATM   12  C   UNK N   1       2.684   0.135   1.122  0.00  0.00     0.016 C 
ENDROOT
BRANCH   1  13
HETATM   13  O   UNK N   1      -0.136   0.932  -2.264  0.00  0.00    -0.311 OA
BRANCH  13  14
HETATM   14  C   UNK N   1      -0.902  -0.042  -2.835  0.00  0.00     0.293 C 
HETATM   15  O   UNK N   1      -0.451  -1.170  -2.977  0.00  0.00    -0.259 OA
BRANCH  14  16
HETATM   16  C   UNK N   1      -2.310   0.231  -3.205  0.00  0.00     0.039 A 
HETATM   17  C   UNK N   1      -3.150  -0.836  -3.573  0.00  0.00     0.020 A 
HETATM   18  C   UNK N   1      -4.499  -0.610  -3.846  0.00  0.00     0.037 A 
HETATM   19  C   UNK N   1      -5.026   0.685  -3.766  0.00  0.00     0.065 A 
HETATM   20  C   UNK N   1      -4.191   1.755  -3.428  0.00  0.00     0.037 A 
HETATM   21  C   UNK N   1      -2.838   1.532  -3.147  0.00  0.00     0.020 A 
BRANCH  19  22
HETATM   22  O   UNK N   1      -6.334   0.907  -4.005  0.00  0.00    -0.361 OA
HETATM   23  H   UNK N   1      -6.942   0.182  -4.210  0.00  0.00     0.217 HD
ENDBRANCH  19  22
ENDBRANCH  14  16
ENDBRANCH  13  14
ENDBRANCH   1  13
BRANCH   3  24
HETATM   24  O   UNK N   1      -0.635  -0.238   0.670  0.00  0.00    -0.389 OA
HETATM   25  H   UNK N   1      -1.151  -0.539   1.462  0.00  0.00     0.210 HD
ENDBRANCH   3  24
BRANCH   3  26
HETATM   26  C   UNK N   1      -1.668   1.952   0.401  0.00  0.00     0.012 C 
HETATM   27  C   UNK N   1      -2.882   1.559   1.271  0.00  0.00     0.012 C 
HETATM   28  C   UNK N   1      -1.527   3.490   0.459  0.00  0.00     0.012 C 
ENDBRANCH   3  26
BRANCH   8  29
HETATM   29  O   UNK N   1       4.816   1.184  -0.916  0.00  0.00    -0.391 OA
HETATM   30  H   UNK N   1       5.407   1.203  -1.714  0.00  0.00     0.210 HD
ENDBRANCH   8  29
TORSDOF 7
