REMARK  8 active torsions:
REMARK  status: ('A' for Active; 'I' for Inactive)
REMARK    1  A    between atoms: C_6  and  C_7 
REMARK    2  A    between atoms: C_9  and  C_20 
REMARK    3  A    between atoms: C_10  and  O_11 
REMARK    4  A    between atoms: C_13  and  C_15 
REMARK    5  A    between atoms: C_15  and  C_16 
REMARK    6  A    between atoms: C_20  and  C_21 
REMARK    7  A    between atoms: C_27  and  O_28 
REMARK    8  A    between atoms: C_31  and  O_32 
ROOT
HETATM    1  C   UNK N   1      -0.106   0.366  -3.116  0.00  0.00    -0.027 A 
HETATM    2  C   UNK N   1       0.536   1.234  -4.005  0.00  0.00     0.020 A 
HETATM    3  C   UNK N   1       1.892   1.594  -3.846  0.00  0.00    -0.020 A 
HETATM    4  C   UNK N   1       2.633   1.006  -2.762  0.00  0.00     0.081 A 
HETATM    5  C   UNK N   1       1.963   0.139  -1.860  0.00  0.00    -0.020 A 
HETATM    6  C   UNK N   1       0.604  -0.156  -2.032  0.00  0.00     0.020 A 
ENDROOT
BRANCH   1   7
HETATM    7  C   UNK N   1      -1.563   0.025  -3.341  0.00  0.00     0.169 C 
HETATM    8  O   UNK N   1      -1.820  -1.314  -3.056  0.00  0.00    -0.340 OA
HETATM    9  C   UNK N   1      -3.087  -1.818  -3.077  0.00  0.00     0.089 A 
HETATM   10  C   UNK N   1      -4.195  -0.946  -3.027  0.00  0.00     0.076 A 
HETATM   11  C   UNK N   1      -3.284  -3.198  -3.176  0.00  0.00     0.074 A 
HETATM   12  C   UNK N   1      -3.913   0.504  -2.869  0.00  0.00     0.167 C 
HETATM   13  C   UNK N   1      -5.502  -1.466  -3.140  0.00  0.00     0.085 A 
HETATM   14  O   UNK N   1      -4.778   1.348  -3.044  0.00  0.00    -0.292 OA
HETATM   15  C   UNK N   1      -2.504   0.916  -2.524  0.00  0.00     0.121 C 
HETATM   16  C   UNK N   1      -5.684  -2.853  -3.260  0.00  0.00     0.074 A 
HETATM   17  C   UNK N   1      -4.580  -3.718  -3.268  0.00  0.00     0.071 A 
BRANCH  13  18
HETATM   18  O   UNK N   1      -6.570  -0.642  -3.128  0.00  0.00    -0.360 OA
HETATM   19  H   UNK N   1      -7.474  -0.977  -3.221  0.00  0.00     0.217 HD
ENDBRANCH  13  18
BRANCH  17  20
HETATM   20  O   UNK N   1      -4.753  -5.052  -3.376  0.00  0.00    -0.361 OA
HETATM   21  H   UNK N   1      -5.634  -5.446  -3.451  0.00  0.00     0.217 HD
ENDBRANCH  17  20
ENDBRANCH   1   7
BRANCH   3  22
HETATM   22  C   UNK N   1       2.497   2.650  -4.774  0.00  0.00     0.068 C 
BRANCH  22  23
HETATM   23  C   UNK N   1       1.574   3.246  -5.819  0.00  0.00    -0.020 C 
HETATM   24  C   UNK N   1       1.254   2.651  -6.994  0.00  0.00    -0.091 C 
HETATM   25  C   UNK N   1       0.321   3.350  -7.949  0.00  0.00     0.042 C 
HETATM   26  C   UNK N   1       1.812   1.314  -7.419  0.00  0.00     0.042 C 
ENDBRANCH  22  23
ENDBRANCH   3  22
BRANCH   5  27
HETATM   27  C   UNK N   1       2.703  -0.487  -0.695  0.00  0.00     0.068 C 
BRANCH  27  28
HETATM   28  C   UNK N   1       2.522   0.353   0.548  0.00  0.00    -0.020 C 
HETATM   29  C   UNK N   1       1.996  -0.051   1.732  0.00  0.00    -0.091 C 
HETATM   30  C   UNK N   1       1.934   0.931   2.876  0.00  0.00     0.042 C 
HETATM   31  C   UNK N   1       1.462  -1.438   1.997  0.00  0.00     0.042 C 
ENDBRANCH  27  28
ENDBRANCH   5  27
BRANCH   4  32
HETATM   32  O   UNK N   1       3.959   1.233  -2.508  0.00  0.00    -0.355 OA
HETATM   33  C   UNK N   1       4.940   1.813  -3.282  0.00  0.00     0.210 C 
ENDBRANCH   4  32
TORSDOF 8
