REMARK  10 active torsions:
REMARK  status: ('A' for Active; 'I' for Inactive)
REMARK    1  A    between atoms: C_6  and  C_8 
REMARK    2  A    between atoms: C_11  and  O_12 
REMARK    3  A    between atoms: C_17  and  O_18 
REMARK    4  A    between atoms: O_18  and  C_19 
REMARK    5  A    between atoms: C_21  and  C_31 
REMARK    6  A    between atoms: C_22  and  O_23 
REMARK    7  A    between atoms: C_25  and  O_26 
REMARK    8  A    between atoms: C_28  and  O_29 
REMARK    9  A    between atoms: C_31  and  O_32 
REMARK   10  A    between atoms: C_35  and  O_36 
ROOT
HETATM    1  O   UNK N   1       3.701   1.810  -2.563  0.00  0.00    -0.287 OA
HETATM    2  C   UNK N   1       2.738   1.577  -1.861  0.00  0.00     0.190 A 
HETATM    3  C   UNK N   1       1.414   1.882  -2.275  0.00  0.00     0.081 A 
HETATM    4  C   UNK N   1       0.371   1.559  -1.369  0.00  0.00     0.095 A 
HETATM    5  O   UNK N   1       0.632   0.975  -0.204  0.00  0.00    -0.309 OA
HETATM    6  C   UNK N   1       1.859   0.683   0.210  0.00  0.00     0.090 A 
HETATM    7  C   UNK N   1       2.952   0.988  -0.613  0.00  0.00     0.094 A 
HETATM    8  C   UNK N   1      -0.957   1.836  -1.683  0.00  0.00     0.075 A 
HETATM    9  C   UNK N   1      -1.298   2.409  -2.903  0.00  0.00     0.077 A 
HETATM   10  C   UNK N   1      -0.287   2.730  -3.822  0.00  0.00     0.074 A 
HETATM   11  C   UNK N   1       1.063   2.482  -3.531  0.00  0.00     0.085 A 
ENDROOT
BRANCH   9  12
HETATM   12  O   UNK N   1      -2.616   2.599  -3.168  0.00  0.00    -0.318 OA
BRANCH  12  13
HETATM   13  C   UNK N   1      -3.171   2.728  -4.426  0.00  0.00     0.298 C 
HETATM   14  O   UNK N   1      -3.007   4.051  -4.917  0.00  0.00    -0.348 OA
HETATM   15  C   UNK N   1      -3.487   4.135  -6.256  0.00  0.00     0.179 C 
HETATM   16  C   UNK N   1      -5.014   3.859  -6.313  0.00  0.00     0.180 C 
HETATM   17  C   UNK N   1      -5.304   2.472  -5.712  0.00  0.00     0.183 C 
HETATM   18  C   UNK N   1      -4.669   2.388  -4.319  0.00  0.00     0.205 C 
BRANCH  15  19
HETATM   19  C   UNK N   1      -3.152   5.523  -6.821  0.00  0.00     0.198 C 
BRANCH  19  20
HETATM   20  O   UNK N   1      -3.786   6.522  -6.070  0.00  0.00    -0.398 OA
HETATM   21  H   UNK N   1      -3.574   7.381  -6.520  0.00  0.00     0.209 HD
ENDBRANCH  19  20
ENDBRANCH  15  19
BRANCH  16  22
HETATM   22  O   UNK N   1      -5.455   3.904  -7.647  0.00  0.00    -0.390 OA
HETATM   23  H   UNK N   1      -6.437   4.044  -7.625  0.00  0.00     0.210 HD
ENDBRANCH  16  22
BRANCH  17  24
HETATM   24  O   UNK N   1      -6.687   2.253  -5.607  0.00  0.00    -0.390 OA
HETATM   25  H   UNK N   1      -7.001   1.952  -6.498  0.00  0.00     0.210 HD
ENDBRANCH  17  24
BRANCH  18  26
HETATM   26  O   UNK N   1      -4.863   1.113  -3.757  0.00  0.00    -0.388 OA
HETATM   27  H   UNK N   1      -4.348   0.460  -4.300  0.00  0.00     0.210 HD
ENDBRANCH  18  26
ENDBRANCH  12  13
ENDBRANCH   9  12
BRANCH  11  28
HETATM   28  O   UNK N   1       1.963   2.824  -4.483  0.00  0.00    -0.360 OA
HETATM   29  H   UNK N   1       2.914   2.697  -4.444  0.00  0.00     0.217 HD
ENDBRANCH  11  28
BRANCH   6  30
HETATM   30  C   UNK N   1       2.020   0.028   1.538  0.00  0.00    -0.002 A 
HETATM   31  C   UNK N   1       3.241   0.052   2.242  0.00  0.00     0.017 A 
HETATM   32  C   UNK N   1       3.349  -0.561   3.493  0.00  0.00     0.037 A 
HETATM   33  C   UNK N   1       2.256  -1.225   4.060  0.00  0.00     0.068 A 
HETATM   34  C   UNK N   1       1.036  -1.259   3.358  0.00  0.00     0.037 A 
HETATM   35  C   UNK N   1       0.919  -0.629   2.117  0.00  0.00     0.017 A 
BRANCH  33  36
HETATM   36  O   UNK N   1       2.413  -1.814   5.275  0.00  0.00    -0.356 OA
HETATM   37  C   UNK N   1       1.443  -2.539   5.937  0.00  0.00     0.210 C 
ENDBRANCH  33  36
ENDBRANCH   6  30
TORSDOF 10
