REMARK  10 active torsions:
REMARK  status: ('A' for Active; 'I' for Inactive)
REMARK    1  A    between atoms: C_6  and  C_8 
REMARK    2  A    between atoms: C_11  and  O_12 
REMARK    3  A    between atoms: C_17  and  O_18 
REMARK    4  A    between atoms: O_18  and  C_19 
REMARK    5  A    between atoms: C_21  and  C_31 
REMARK    6  A    between atoms: C_22  and  O_23 
REMARK    7  A    between atoms: C_25  and  O_26 
REMARK    8  A    between atoms: C_28  and  O_29 
REMARK    9  A    between atoms: C_31  and  O_32 
REMARK   10  A    between atoms: C_35  and  O_36 
ROOT
HETATM    1  O   UNK N   1       4.701   1.948  -2.368  0.00  0.00    -0.287 OA
HETATM    2  C   UNK N   1       3.639   1.458  -2.027  0.00  0.00     0.190 A 
HETATM    3  C   UNK N   1       2.565   1.332  -2.934  0.00  0.00     0.081 A 
HETATM    4  C   UNK N   1       1.373   0.740  -2.466  0.00  0.00     0.095 A 
HETATM    5  O   UNK N   1       1.276   0.315  -1.211  0.00  0.00    -0.309 OA
HETATM    6  C   UNK N   1       2.258   0.438  -0.320  0.00  0.00     0.090 A 
HETATM    7  C   UNK N   1       3.478   1.018  -0.711  0.00  0.00     0.094 A 
HETATM    8  C   UNK N   1       0.274   0.592  -3.315  0.00  0.00     0.075 A 
HETATM    9  C   UNK N   1       0.340   1.036  -4.647  0.00  0.00     0.077 A 
HETATM   10  C   UNK N   1       1.518   1.627  -5.115  0.00  0.00     0.074 A 
HETATM   11  C   UNK N   1       2.637   1.772  -4.278  0.00  0.00     0.085 A 
ENDROOT
BRANCH   9  12
HETATM   12  O   UNK N   1      -0.699   0.885  -5.511  0.00  0.00    -0.318 OA
BRANCH  12  13
HETATM   13  C   UNK N   1      -1.742  -0.018  -5.358  0.00  0.00     0.298 C 
HETATM   14  O   UNK N   1      -2.746   0.458  -4.469  0.00  0.00    -0.348 OA
HETATM   15  C   UNK N   1      -3.448   1.585  -4.984  0.00  0.00     0.179 C 
HETATM   16  C   UNK N   1      -4.136   1.268  -6.338  0.00  0.00     0.180 C 
HETATM   17  C   UNK N   1      -3.075   0.789  -7.341  0.00  0.00     0.183 C 
HETATM   18  C   UNK N   1      -2.327  -0.405  -6.728  0.00  0.00     0.205 C 
BRANCH  15  19
HETATM   19  C   UNK N   1      -4.494   2.015  -3.938  0.00  0.00     0.198 C 
BRANCH  19  20
HETATM   20  O   UNK N   1      -5.444   1.004  -3.718  0.00  0.00    -0.398 OA
HETATM   21  H   UNK N   1      -5.006   0.313  -3.156  0.00  0.00     0.209 HD
ENDBRANCH  19  20
ENDBRANCH  15  19
BRANCH  16  22
HETATM   22  O   UNK N   1      -4.780   2.416  -6.828  0.00  0.00    -0.390 OA
HETATM   23  H   UNK N   1      -5.409   2.115  -7.535  0.00  0.00     0.210 HD
ENDBRANCH  16  22
BRANCH  17  24
HETATM   24  O   UNK N   1      -3.656   0.441  -8.574  0.00  0.00    -0.390 OA
HETATM   25  H   UNK N   1      -4.290  -0.306  -8.410  0.00  0.00     0.210 HD
ENDBRANCH  17  24
BRANCH  18  26
HETATM   26  O   UNK N   1      -1.327  -0.888  -7.592  0.00  0.00    -0.388 OA
HETATM   27  H   UNK N   1      -0.714  -0.135  -7.801  0.00  0.00     0.210 HD
ENDBRANCH  18  26
ENDBRANCH  12  13
ENDBRANCH   9  12
BRANCH  11  28
HETATM   28  O   UNK N   1       3.769   2.324  -4.765  0.00  0.00    -0.360 OA
HETATM   29  H   UNK N   1       3.845   2.609  -5.687  0.00  0.00     0.217 HD
ENDBRANCH  11  28
BRANCH   6  30
HETATM   30  C   UNK N   1       2.010  -0.047   1.067  0.00  0.00    -0.002 A 
HETATM   31  C   UNK N   1       2.802   0.360   2.160  0.00  0.00     0.017 A 
HETATM   32  C   UNK N   1       2.517  -0.099   3.449  0.00  0.00     0.037 A 
HETATM   33  C   UNK N   1       1.455  -0.982   3.675  0.00  0.00     0.068 A 
HETATM   34  C   UNK N   1       0.666  -1.397   2.585  0.00  0.00     0.037 A 
HETATM   35  C   UNK N   1       0.937  -0.925   1.300  0.00  0.00     0.017 A 
BRANCH  33  36
HETATM   36  O   UNK N   1       1.220  -1.408   4.944  0.00  0.00    -0.356 OA
HETATM   37  C   UNK N   1       0.244  -2.314   5.308  0.00  0.00     0.210 C 
ENDBRANCH  33  36
ENDBRANCH   6  30
TORSDOF 10
