REMARK  7 active torsions:
REMARK  status: ('A' for Active; 'I' for Inactive)
REMARK    1  A    between atoms: C_5  and  O_6 
REMARK    2  A    between atoms: C_8  and  O_9 
REMARK    3  A    between atoms: O_9  and  C_10 
REMARK    4  A    between atoms: C_10  and  C_11 
REMARK    5  A    between atoms: C_15  and  O_16 
REMARK    6  A    between atoms: O_16  and  C_17 
REMARK    7  A    between atoms: C_29  and  O_30 
ROOT
HETATM    1  C   UNK N   1      -0.072   3.873   2.951  0.00  0.00     0.047 C 
HETATM    2  C   UNK N   1       1.433   3.463   2.645  0.00  0.00    -0.030 C 
HETATM    3  C   UNK N   1       1.575   1.905   2.784  0.00  0.00     0.008 C 
HETATM    4  C   UNK N   1       2.927   1.257   2.255  0.00  0.00    -0.016 C 
HETATM    5  C   UNK N   1       3.203   1.807   0.821  0.00  0.00     0.140 C 
HETATM    6  C   UNK N   1       3.196   3.349   0.765  0.00  0.00     0.034 C 
HETATM    7  C   UNK N   1       1.825   3.884   1.198  0.00  0.00     0.013 C 
HETATM    8  C   UNK N   1       4.168   1.474   3.171  0.00  0.00     0.018 C 
HETATM    9  C   UNK N   1       2.746  -0.282   2.147  0.00  0.00     0.018 C 
HETATM   10  C   UNK N   1       1.186   1.444   4.212  0.00  0.00     0.033 C 
HETATM   11  C   UNK N   1      -0.005   2.155   4.799  0.00  0.00    -0.023 C 
HETATM   12  C   UNK N   1      -0.592   3.238   4.243  0.00  0.00    -0.081 C 
HETATM   13  C   UNK N   1      -1.781   3.862   4.937  0.00  0.00     0.043 C 
HETATM   14  C   UNK N   1       2.321   4.255   3.656  0.00  0.00     0.016 C 
ENDROOT
BRANCH   1  15
HETATM   15  C   UNK N   1      -1.118   3.676   1.816  0.00  0.00     0.185 C 
BRANCH  15  16
HETATM   16  O   UNK N   1      -1.260   2.348   1.464  0.00  0.00    -0.345 OA
BRANCH  16  17
HETATM   17  C   UNK N   1      -2.415   1.859   0.958  0.00  0.00     0.138 A 
HETATM   18  C   UNK N   1      -2.669   1.918  -0.430  0.00  0.00     0.139 A 
HETATM   19  C   UNK N   1      -3.896   1.400  -0.925  0.00  0.00     0.126 A 
HETATM   20  O   UNK N   1      -4.179   1.436  -2.229  0.00  0.00    -0.272 OA
HETATM   21  C   UNK N   1      -4.832   0.838  -0.031  0.00  0.00     0.004 A 
HETATM   22  C   UNK N   1      -5.315   0.966  -2.736  0.00  0.00     0.288 A 
HETATM   23  O   UNK N   1      -5.509   1.030  -3.938  0.00  0.00    -0.260 OA
HETATM   24  C   UNK N   1      -6.282   0.403  -1.904  0.00  0.00     0.083 A 
HETATM   25  C   UNK N   1      -6.036   0.339  -0.536  0.00  0.00     0.020 A 
HETATM   26  C   UNK N   1      -4.557   0.780   1.335  0.00  0.00     0.054 A 
HETATM   27  C   UNK N   1      -3.345   1.285   1.838  0.00  0.00     0.105 A 
BRANCH  18  28
HETATM   28  O   UNK N   1      -1.713   2.466  -1.236  0.00  0.00    -0.351 OA
HETATM   29  C   UNK N   1      -1.762   2.576  -2.613  0.00  0.00     0.210 C 
ENDBRANCH  18  28
BRANCH  27  30
HETATM   30  O   UNK N   1      -3.041   1.231   3.163  0.00  0.00    -0.353 OA
HETATM   31  C   UNK N   1      -3.845   0.678   4.138  0.00  0.00     0.210 C 
ENDBRANCH  27  30
ENDBRANCH  16  17
ENDBRANCH  15  16
ENDBRANCH   1  15
BRANCH   5  32
HETATM   32  O   UNK N   1       4.417   1.328   0.359  0.00  0.00    -0.316 OA
BRANCH  32  33
HETATM   33  C   UNK N   1       4.737   1.154  -0.948  0.00  0.00     0.255 C 
HETATM   34  O   UNK N   1       3.908   1.338  -1.828  0.00  0.00    -0.266 OA
HETATM   35  C   UNK N   1       6.119   0.717  -1.301  0.00  0.00     0.126 C 
ENDBRANCH  32  33
ENDBRANCH   5  32
TORSDOF 7
