REMARK  7 active torsions:
REMARK  status: ('A' for Active; 'I' for Inactive)
REMARK    1  A    between atoms: C_5  and  O_6 
REMARK    2  A    between atoms: C_8  and  O_9 
REMARK    3  A    between atoms: O_9  and  C_10 
REMARK    4  A    between atoms: C_10  and  C_11 
REMARK    5  A    between atoms: C_15  and  O_16 
REMARK    6  A    between atoms: O_16  and  C_17 
REMARK    7  A    between atoms: C_29  and  O_30 
ROOT
HETATM    1  C   UNK N   1       1.605  -1.903   0.896  0.00  0.00     0.047 C 
HETATM    2  C   UNK N   1       3.086  -1.336   0.743  0.00  0.00    -0.030 C 
HETATM    3  C   UNK N   1       3.091   0.137   1.290  0.00  0.00     0.008 C 
HETATM    4  C   UNK N   1       4.374   1.018   0.974  0.00  0.00    -0.016 C 
HETATM    5  C   UNK N   1       4.701   0.887  -0.546  0.00  0.00     0.140 C 
HETATM    6  C   UNK N   1       4.855  -0.585  -0.989  0.00  0.00     0.034 C 
HETATM    7  C   UNK N   1       3.534  -1.332  -0.754  0.00  0.00     0.013 C 
HETATM    8  C   UNK N   1       5.629   0.682   1.833  0.00  0.00     0.018 C 
HETATM    9  C   UNK N   1       4.049   2.510   1.257  0.00  0.00     0.018 C 
HETATM   10  C   UNK N   1       2.673   0.167   2.784  0.00  0.00     0.033 C 
HETATM   11  C   UNK N   1       1.606  -0.828   3.171  0.00  0.00    -0.023 C 
HETATM   12  C   UNK N   1       1.113  -1.772   2.338  0.00  0.00    -0.081 C 
HETATM   13  C   UNK N   1       0.087  -2.750   2.866  0.00  0.00     0.043 C 
HETATM   14  C   UNK N   1       4.027  -2.305   1.527  0.00  0.00     0.016 C 
ENDROOT
BRANCH   1  15
HETATM   15  C   UNK N   1       0.540  -1.303  -0.069  0.00  0.00     0.185 C 
BRANCH  15  16
HETATM   16  O   UNK N   1      -0.684  -1.929   0.071  0.00  0.00    -0.345 OA
BRANCH  16  17
HETATM   17  C   UNK N   1      -1.549  -2.010  -0.966  0.00  0.00     0.138 A 
HETATM   18  C   UNK N   1      -2.452  -0.956  -1.221  0.00  0.00     0.139 A 
HETATM   19  C   UNK N   1      -3.319  -1.052  -2.342  0.00  0.00     0.126 A 
HETATM   20  O   UNK N   1      -4.177  -0.072  -2.631  0.00  0.00    -0.272 OA
HETATM   21  C   UNK N   1      -3.269  -2.192  -3.172  0.00  0.00     0.004 A 
HETATM   22  C   UNK N   1      -4.995  -0.112  -3.678  0.00  0.00     0.288 A 
HETATM   23  O   UNK N   1      -5.751   0.821  -3.887  0.00  0.00    -0.260 OA
HETATM   24  C   UNK N   1      -4.990  -1.210  -4.538  0.00  0.00     0.083 A 
HETATM   25  C   UNK N   1      -4.118  -2.263  -4.279  0.00  0.00     0.020 A 
HETATM   26  C   UNK N   1      -2.377  -3.230  -2.894  0.00  0.00     0.054 A 
HETATM   27  C   UNK N   1      -1.510  -3.144  -1.791  0.00  0.00     0.105 A 
BRANCH  18  28
HETATM   28  O   UNK N   1      -2.440   0.118  -0.378  0.00  0.00    -0.351 OA
HETATM   29  C   UNK N   1      -3.224   1.252  -0.474  0.00  0.00     0.210 C 
ENDBRANCH  18  28
BRANCH  27  30
HETATM   30  O   UNK N   1      -0.614  -4.127  -1.505  0.00  0.00    -0.353 OA
HETATM   31  C   UNK N   1      -0.432  -5.275  -2.249  0.00  0.00     0.210 C 
ENDBRANCH  27  30
ENDBRANCH  16  17
ENDBRANCH  15  16
ENDBRANCH   1  15
BRANCH   5  32
HETATM   32  O   UNK N   1       5.848   1.606  -0.842  0.00  0.00    -0.316 OA
BRANCH  32  33
HETATM   33  C   UNK N   1       6.176   2.070  -2.074  0.00  0.00     0.255 C 
HETATM   34  O   UNK N   1       5.407   1.947  -3.018  0.00  0.00    -0.266 OA
HETATM   35  C   UNK N   1       7.484   2.764  -2.261  0.00  0.00     0.126 C 
ENDBRANCH  32  33
ENDBRANCH   5  32
TORSDOF 7
