REMARK  9 active torsions:
REMARK  status: ('A' for Active; 'I' for Inactive)
REMARK    1  A    between atoms: C_3  and  O_4 
REMARK    2  A    between atoms: O_4  and  C_5 
REMARK    3  A    between atoms: C_8  and  O_9 
REMARK    4  A    between atoms: C_11  and  O_12 
REMARK    5  A    between atoms: C_14  and  O_15 
REMARK    6  A    between atoms: C_18  and  C_30 
REMARK    7  A    between atoms: C_22  and  O_23 
REMARK    8  A    between atoms: C_26  and  O_28 
REMARK    9  A    between atoms: C_33  and  O_34 
ROOT
HETATM    1  O   UNK N   1       0.309  -0.898  -3.043  0.00  0.00    -0.284 OA
HETATM    2  C   UNK N   1      -0.184   0.208  -2.938  0.00  0.00     0.223 A 
HETATM    3  C   UNK N   1       0.609   1.326  -2.562  0.00  0.00     0.157 A 
HETATM    4  C   UNK N   1      -0.023   2.590  -2.485  0.00  0.00     0.124 A 
HETATM    5  O   UNK N   1      -1.322   2.706  -2.754  0.00  0.00    -0.306 OA
HETATM    6  C   UNK N   1      -2.098   1.680  -3.074  0.00  0.00     0.096 A 
HETATM    7  C   UNK N   1      -1.560   0.384  -3.193  0.00  0.00     0.084 A 
HETATM    8  C   UNK N   1      -2.414  -0.691  -3.558  0.00  0.00     0.085 A 
HETATM    9  C   UNK N   1      -3.782  -0.453  -3.759  0.00  0.00     0.074 A 
HETATM   10  C   UNK N   1      -4.310   0.830  -3.606  0.00  0.00     0.071 A 
HETATM   11  C   UNK N   1      -3.465   1.896  -3.274  0.00  0.00     0.075 A 
ENDROOT
BRANCH   3  12
HETATM   12  O   UNK N   1       1.955   1.234  -2.313  0.00  0.00    -0.311 OA
BRANCH  12  13
HETATM   13  C   UNK N   1       2.649   0.096  -1.932  0.00  0.00     0.298 C 
HETATM   14  O   UNK N   1       2.107  -0.406  -0.701  0.00  0.00    -0.351 OA
HETATM   15  C   UNK N   1       2.892  -0.017   0.405  0.00  0.00     0.152 C 
HETATM   16  C   UNK N   1       4.271  -0.738   0.357  0.00  0.00     0.178 C 
HETATM   17  C   UNK N   1       2.132  -0.229   1.712  0.00  0.00     0.042 C 
HETATM   18  C   UNK N   1       4.798  -0.821  -1.104  0.00  0.00     0.183 C 
HETATM   19  C   UNK N   1       4.202   0.325  -1.940  0.00  0.00     0.205 C 
BRANCH  16  20
HETATM   20  O   UNK N   1       4.235  -2.027   0.919  0.00  0.00    -0.390 OA
HETATM   21  H   UNK N   1       3.515  -2.533   0.458  0.00  0.00     0.210 HD
ENDBRANCH  16  20
BRANCH  18  22
HETATM   22  O   UNK N   1       6.200  -0.816  -1.136  0.00  0.00    -0.390 OA
HETATM   23  H   UNK N   1       6.492  -1.705  -0.803  0.00  0.00     0.210 HD
ENDBRANCH  18  22
BRANCH  19  24
HETATM   24  O   UNK N   1       4.549   1.573  -1.394  0.00  0.00    -0.388 OA
HETATM   25  H   UNK N   1       5.500   1.732  -1.629  0.00  0.00     0.210 HD
ENDBRANCH  19  24
ENDBRANCH  12  13
ENDBRANCH   3  12
BRANCH   4  26
HETATM   26  C   UNK N   1       0.688   3.820  -2.056  0.00  0.00     0.001 A 
HETATM   27  C   UNK N   1       1.622   3.800  -1.003  0.00  0.00     0.017 A 
HETATM   28  C   UNK N   1       2.224   4.986  -0.571  0.00  0.00     0.037 A 
HETATM   29  C   UNK N   1       1.918   6.202  -1.199  0.00  0.00     0.065 A 
HETATM   30  C   UNK N   1       1.001   6.225  -2.253  0.00  0.00     0.037 A 
HETATM   31  C   UNK N   1       0.375   5.046  -2.667  0.00  0.00     0.017 A 
BRANCH  29  32
HETATM   32  O   UNK N   1       2.491   7.352  -0.789  0.00  0.00    -0.361 OA
HETATM   33  H   UNK N   1       3.111   7.376  -0.046  0.00  0.00     0.217 HD
ENDBRANCH  29  32
ENDBRANCH   4  26
BRANCH   8  34
HETATM   34  O   UNK N   1      -1.927  -1.942  -3.709  0.00  0.00    -0.360 OA
HETATM   35  H   UNK N   1      -2.490  -2.683  -3.974  0.00  0.00     0.217 HD
ENDBRANCH   8  34
BRANCH  10  36
HETATM   36  O   UNK N   1      -5.632   1.028  -3.778  0.00  0.00    -0.361 OA
HETATM   37  H   UNK N   1      -6.037   1.899  -3.653  0.00  0.00     0.217 HD
ENDBRANCH  10  36
TORSDOF 9
