REMARK  7 active torsions:
REMARK  status: ('A' for Active; 'I' for Inactive)
REMARK    1  A    between atoms: O_1  and  C_2 
REMARK    2  A    between atoms: C_2  and  C_3 
REMARK    3  A    between atoms: C_4  and  C_5 
REMARK    4  A    between atoms: C_5  and  C_6 
REMARK    5  A    between atoms: C_6  and  C_7 
REMARK    6  A    between atoms: C_10  and  C_11 
REMARK    7  A    between atoms: C_11  and  O_12 
ROOT
HETATM    1  C   UNK N   1      -1.559   0.347  -0.094  0.00  0.00     0.022 C 
HETATM    2  C   UNK N   1      -2.514  -0.770  -0.696  0.00  0.00    -0.032 C 
HETATM    3  C   UNK N   1      -3.828  -0.033  -1.225  0.00  0.00     0.005 C 
HETATM    4  C   UNK N   1      -4.818  -0.904  -2.113  0.00  0.00    -0.018 C 
HETATM    5  C   UNK N   1      -3.989  -1.613  -3.224  0.00  0.00     0.012 C 
HETATM    6  C   UNK N   1      -2.796  -2.404  -2.677  0.00  0.00     0.002 C 
HETATM    7  C   UNK N   1      -1.840  -1.469  -1.915  0.00  0.00     0.010 C 
HETATM    8  C   UNK N   1      -5.654  -1.944  -1.319  0.00  0.00     0.018 C 
HETATM    9  C   UNK N   1      -4.538   0.749  -0.079  0.00  0.00     0.010 C 
HETATM   10  C   UNK N   1      -3.596   1.767   0.570  0.00  0.00     0.034 C 
HETATM   11  C   UNK N   1      -2.341   1.068   1.012  0.00  0.00    -0.084 C 
HETATM   12  C   UNK N   1      -2.004   1.065   2.314  0.00  0.00     0.014 C 
HETATM   13  C   UNK N   1      -2.773  -1.839   0.416  0.00  0.00     0.016 C 
ENDROOT
BRANCH   1  14
HETATM   14  C   UNK N   1      -0.136  -0.155   0.303  0.00  0.00     0.014 C 
BRANCH  14  15
HETATM   15  C   UNK N   1       0.833   0.967   0.734  0.00  0.00     0.034 C 
BRANCH  15  16
HETATM   16  C   UNK N   1       2.211   0.409   1.081  0.00  0.00    -0.086 C 
HETATM   17  C   UNK N   1       3.366   0.825   0.502  0.00  0.00     0.001 C 
HETATM   18  C   UNK N   1       2.292  -0.655   2.158  0.00  0.00     0.043 C 
BRANCH  17  19
HETATM   19  C   UNK N   1       3.509   1.885  -0.567  0.00  0.00     0.191 C 
BRANCH  19  20
HETATM   20  O   UNK N   1       4.151   1.340  -1.685  0.00  0.00    -0.397 OA
HETATM   21  H   UNK N   1       3.514   0.695  -2.090  0.00  0.00     0.209 HD
ENDBRANCH  19  20
ENDBRANCH  17  19
ENDBRANCH  15  16
ENDBRANCH  14  15
ENDBRANCH   1  14
BRANCH   4  22
HETATM   22  C   UNK N   1      -5.865   0.010  -2.826  0.00  0.00     0.173 C 
BRANCH  22  23
HETATM   23  O   UNK N   1      -5.236   0.999  -3.597  0.00  0.00    -0.400 OA
HETATM   24  H   UNK N   1      -5.961   1.493  -4.063  0.00  0.00     0.209 HD
ENDBRANCH  22  23
ENDBRANCH   4  22
TORSDOF 7
