REMARK  15 active torsions:
REMARK  status: ('A' for Active; 'I' for Inactive)
REMARK    1  A    between atoms: C_2  and  O_3 
REMARK    2  A    between atoms: O_3  and  C_4 
REMARK    3  A    between atoms: C_4  and  C_5 
REMARK    4  A    between atoms: C_6  and  C_20 
REMARK    5  A    between atoms: C_9  and  C_10 
REMARK    6  A    between atoms: C_12  and  O_13 
REMARK    7  A    between atoms: C_15  and  O_16 
REMARK    8  A    between atoms: C_22  and  O_23 
REMARK    9  A    between atoms: C_25  and  O_26 
REMARK   10  A    between atoms: C_28  and  O_30 
REMARK   11  A    between atoms: C_32  and  O_33 
REMARK   12  A    between atoms: C_35  and  O_36 
REMARK   13  A    between atoms: C_38  and  O_39 
REMARK   14  A    between atoms: C_41  and  C_42 
REMARK   15  A    between atoms: C_42  and  O_43 
ROOT
HETATM    1  C   UNK N   1      -1.456   0.925   0.733  0.00  0.00     0.053 C 
HETATM    2  C   UNK N   1      -1.386   1.404  -0.728  0.00  0.00     0.161 C 
HETATM    3  O   UNK N   1      -0.799   2.700  -0.719  0.00  0.00    -0.380 OA
HETATM    4  C   UNK N   1      -0.454   2.989   0.624  0.00  0.00     0.178 C 
HETATM    5  C   UNK N   1      -0.283   1.658   1.351  0.00  0.00     0.051 C 
ENDROOT
BRANCH   1   6
HETATM    6  C   UNK N   1      -1.479  -0.604   0.942  0.00  0.00     0.179 C 
BRANCH   6   7
HETATM    7  O   UNK N   1      -2.637  -1.125   0.332  0.00  0.00    -0.358 OA
BRANCH   7   8
HETATM    8  C   UNK N   1      -2.700  -2.536   0.421  0.00  0.00     0.291 C 
HETATM    9  O   UNK N   1      -1.600  -3.121  -0.267  0.00  0.00    -0.348 OA
HETATM   10  C   UNK N   1      -1.623  -4.537  -0.148  0.00  0.00     0.179 C 
HETATM   11  C   UNK N   1      -2.853  -5.113  -0.888  0.00  0.00     0.180 C 
HETATM   12  C   UNK N   1      -4.124  -4.495  -0.277  0.00  0.00     0.183 C 
HETATM   13  C   UNK N   1      -4.017  -2.963  -0.263  0.00  0.00     0.204 C 
BRANCH  10  14
HETATM   14  C   UNK N   1      -0.311  -5.103  -0.718  0.00  0.00     0.198 C 
BRANCH  14  15
HETATM   15  O   UNK N   1      -0.175  -4.810  -2.083  0.00  0.00    -0.398 OA
HETATM   16  H   UNK N   1       0.021  -3.839  -2.150  0.00  0.00     0.209 HD
ENDBRANCH  14  15
ENDBRANCH  10  14
BRANCH  11  17
HETATM   17  O   UNK N   1      -2.882  -6.511  -0.754  0.00  0.00    -0.390 OA
HETATM   18  H   UNK N   1      -3.577  -6.848  -1.378  0.00  0.00     0.210 HD
ENDBRANCH  11  17
BRANCH  12  19
HETATM   19  O   UNK N   1      -5.275  -4.909  -0.971  0.00  0.00    -0.390 OA
HETATM   20  H   UNK N   1      -5.178  -4.613  -1.916  0.00  0.00     0.210 HD
ENDBRANCH  12  19
BRANCH  13  21
HETATM   21  O   UNK N   1      -5.126  -2.432   0.416  0.00  0.00    -0.388 OA
HETATM   22  H   UNK N   1      -5.127  -1.452   0.255  0.00  0.00     0.210 HD
ENDBRANCH  13  21
ENDBRANCH   7   8
ENDBRANCH   6   7
ENDBRANCH   1   6
BRANCH   2  23
HETATM   23  C   UNK N   1      -2.762   1.455  -1.368  0.00  0.00    -0.024 A 
HETATM   24  C   UNK N   1      -3.267   0.357  -2.080  0.00  0.00     0.049 A 
HETATM   25  C   UNK N   1      -4.550   0.402  -2.638  0.00  0.00     0.104 A 
HETATM   26  C   UNK N   1      -5.339   1.556  -2.508  0.00  0.00     0.133 A 
HETATM   27  C   UNK N   1      -4.838   2.675  -1.814  0.00  0.00     0.104 A 
HETATM   28  C   UNK N   1      -3.554   2.610  -1.240  0.00  0.00     0.049 A 
BRANCH  25  29
HETATM   29  O   UNK N   1      -5.034  -0.673  -3.296  0.00  0.00    -0.353 OA
HETATM   30  C   UNK N   1      -4.805  -0.858  -4.640  0.00  0.00     0.210 C 
ENDBRANCH  25  29
BRANCH  26  31
HETATM   31  O   UNK N   1      -6.572   1.577  -3.059  0.00  0.00    -0.356 OA
HETATM   32  H   UNK N   1      -7.155   2.347  -2.999  0.00  0.00     0.218 HD
ENDBRANCH  26  31
BRANCH  27  33
HETATM   33  O   UNK N   1      -5.611   3.793  -1.719  0.00  0.00    -0.353 OA
HETATM   34  C   UNK N   1      -5.226   4.978  -1.122  0.00  0.00     0.210 C 
ENDBRANCH  27  33
ENDBRANCH   2  23
BRANCH   5  35
HETATM   35  C   UNK N   1       1.083   1.004   1.116  0.00  0.00    -0.049 A 
HETATM   36  C   UNK N   1       1.828   1.185  -0.067  0.00  0.00     0.047 A 
HETATM   37  C   UNK N   1       3.097   0.586  -0.220  0.00  0.00     0.101 A 
HETATM   38  C   UNK N   1       3.615  -0.205   0.823  0.00  0.00     0.099 A 
HETATM   39  C   UNK N   1       2.875  -0.386   1.994  0.00  0.00     0.040 A 
HETATM   40  C   UNK N   1       1.626   0.214   2.142  0.00  0.00     0.010 A 
BRANCH  37  41
HETATM   41  O   UNK N   1       3.838   0.760  -1.349  0.00  0.00    -0.353 OA
HETATM   42  C   UNK N   1       3.465   1.526  -2.436  0.00  0.00     0.210 C 
ENDBRANCH  37  41
BRANCH  38  43
HETATM   43  O   UNK N   1       4.826  -0.793   0.717  0.00  0.00    -0.358 OA
HETATM   44  H   UNK N   1       5.383  -0.695  -0.067  0.00  0.00     0.218 HD
ENDBRANCH  38  43
ENDBRANCH   5  35
TORSDOF 15
