REMARK  11 active torsions:
REMARK  status: ('A' for Active; 'I' for Inactive)
REMARK    1  A    between atoms: C_3  and  O_4 
REMARK    2  A    between atoms: C_6  and  C_20 
REMARK    3  A    between atoms: C_10  and  O_11 
REMARK    4  A    between atoms: C_13  and  O_14 
REMARK    5  A    between atoms: C_16  and  O_17 
REMARK    6  A    between atoms: C_22  and  C_28 
REMARK    7  A    between atoms: C_23  and  O_24 
REMARK    8  A    between atoms: C_28  and  C_29 
REMARK    9  A    between atoms: C_29  and  C_30 
REMARK   10  A    between atoms: C_30  and  C_31 
REMARK   11  A    between atoms: C_31  and  O_32 
ROOT
HETATM    1  O   UNK N   1       3.977   1.274  -2.166  0.00  0.00    -0.284 OA
HETATM    2  C   UNK N   1       2.982   1.008  -1.526  0.00  0.00     0.223 A 
HETATM    3  C   UNK N   1       1.711   1.078  -2.153  0.00  0.00     0.154 A 
HETATM    4  C   UNK N   1       0.574   0.780  -1.387  0.00  0.00     0.123 A 
HETATM    5  O   UNK N   1       0.696   0.437  -0.113  0.00  0.00    -0.306 OA
HETATM    6  C   UNK N   1       1.862   0.319   0.506  0.00  0.00     0.096 A 
HETATM    7  C   UNK N   1       3.077   0.612  -0.159  0.00  0.00     0.087 A 
HETATM    8  C   UNK N   1       4.311   0.485   0.578  0.00  0.00     0.119 A 
HETATM    9  C   UNK N   1       4.274   0.034   1.932  0.00  0.00     0.135 A 
HETATM   10  C   UNK N   1       3.049  -0.271   2.531  0.00  0.00     0.104 A 
HETATM   11  C   UNK N   1       1.859  -0.119   1.826  0.00  0.00     0.077 A 
ENDROOT
BRANCH   4  12
HETATM   12  C   UNK N   1      -0.790   0.815  -1.958  0.00  0.00     0.001 A 
HETATM   13  C   UNK N   1      -1.083   0.161  -3.167  0.00  0.00     0.024 A 
HETATM   14  C   UNK N   1      -2.405   0.109  -3.645  0.00  0.00    -0.024 A 
HETATM   15  C   UNK N   1      -3.426   0.777  -2.938  0.00  0.00     0.072 A 
HETATM   16  C   UNK N   1      -3.121   1.455  -1.750  0.00  0.00     0.038 A 
HETATM   17  C   UNK N   1      -1.819   1.448  -1.249  0.00  0.00     0.017 A 
BRANCH  14  18
HETATM   18  C   UNK N   1      -2.729  -0.717  -4.869  0.00  0.00     0.042 C 
BRANCH  18  19
HETATM   19  C   UNK N   1      -3.329  -2.068  -4.415  0.00  0.00     0.011 C 
BRANCH  19  20
HETATM   20  C   UNK N   1      -3.741  -3.045  -5.545  0.00  0.00     0.005 C 
HETATM   21  C   UNK N   1      -4.941  -2.512  -6.336  0.00  0.00     0.012 C 
BRANCH  20  22
HETATM   22  C   UNK N   1      -2.583  -3.401  -6.497  0.00  0.00     0.168 C 
BRANCH  22  23
HETATM   23  O   UNK N   1      -1.516  -3.953  -5.775  0.00  0.00    -0.400 OA
HETATM   24  H   UNK N   1      -0.827  -4.197  -6.447  0.00  0.00     0.209 HD
ENDBRANCH  22  23
ENDBRANCH  20  22
ENDBRANCH  19  20
ENDBRANCH  18  19
ENDBRANCH  14  18
BRANCH  15  25
HETATM   25  O   UNK N   1      -4.693   0.766  -3.405  0.00  0.00    -0.360 OA
HETATM   26  H   UNK N   1      -5.406   1.243  -2.956  0.00  0.00     0.217 HD
ENDBRANCH  15  25
ENDBRANCH   4  12
BRANCH   3  27
HETATM   27  O   UNK N   1       1.534   1.464  -3.452  0.00  0.00    -0.350 OA
HETATM   28  C   UNK N   1       2.495   1.918  -4.332  0.00  0.00     0.210 C 
ENDBRANCH   3  27
BRANCH   8  29
HETATM   29  O   UNK N   1       5.518   0.773   0.038  0.00  0.00    -0.357 OA
HETATM   30  H   UNK N   1       5.708   1.128  -0.833  0.00  0.00     0.218 HD
ENDBRANCH   8  29
BRANCH  10  31
HETATM   31  O   UNK N   1       3.025  -0.717   3.806  0.00  0.00    -0.358 OA
HETATM   32  H   UNK N   1       2.199  -0.959   4.249  0.00  0.00     0.218 HD
ENDBRANCH  10  31
BRANCH   9  33
HETATM   33  O   UNK N   1       5.391  -0.123   2.704  0.00  0.00    -0.351 OA
HETATM   34  C   UNK N   1       6.702   0.147   2.372  0.00  0.00     0.210 C 
ENDBRANCH   9  33
TORSDOF 11
