REMARK  10 active torsions:
REMARK  status: ('A' for Active; 'I' for Inactive)
REMARK    1  A    between atoms: C_4  and  O_5 
REMARK    2  A    between atoms: C_8  and  C_9 
REMARK    3  A    between atoms: C_9  and  O_10 
REMARK    4  A    between atoms: C_14  and  C_15 
REMARK    5  A    between atoms: C_17  and  C_27 
REMARK    6  A    between atoms: C_18  and  O_19 
REMARK    7  A    between atoms: C_21  and  O_22 
REMARK    8  A    between atoms: C_24  and  O_25 
REMARK    9  A    between atoms: C_27  and  O_28 
REMARK   10  A    between atoms: C_32  and  O_33 
ROOT
HETATM    1  O   UNK N   1      -0.896  -2.923   0.904  0.00  0.00    -0.286 OA
HETATM    2  C   UNK N   1      -0.512  -1.828   0.527  0.00  0.00     0.199 C 
HETATM    3  C   UNK N   1      -1.342  -0.985  -0.390  0.00  0.00     0.055 A 
HETATM    4  C   UNK N   1      -2.733  -1.218  -0.630  0.00  0.00     0.081 A 
HETATM    5  C   UNK N   1      -3.454  -0.327  -1.429  0.00  0.00     0.046 A 
HETATM    6  C   UNK N   1      -2.842   0.785  -2.011  0.00  0.00    -0.032 A 
HETATM    7  C   UNK N   1      -1.477   1.005  -1.808  0.00  0.00     0.018 A 
HETATM    8  C   UNK N   1      -0.724   0.141  -0.996  0.00  0.00    -0.029 A 
HETATM    9  C   UNK N   1       0.764   0.409  -0.820  0.00  0.00     0.085 C 
HETATM   10  C   UNK N   1       1.284  -0.097   0.514  0.00  0.00    -0.030 A 
HETATM   11  C   UNK N   1       0.713  -1.235   1.119  0.00  0.00     0.055 A 
HETATM   12  C   UNK N   1       1.274  -1.742   2.316  0.00  0.00     0.080 A 
HETATM   13  C   UNK N   1       2.371  -1.095   2.902  0.00  0.00     0.037 A 
HETATM   14  C   UNK N   1       2.911   0.047   2.314  0.00  0.00     0.003 A 
HETATM   15  C   UNK N   1       2.377   0.541   1.126  0.00  0.00     0.009 A 
ENDROOT
BRANCH   9  16
HETATM   16  C   UNK N   1       1.541  -0.235  -2.014  0.00  0.00     0.166 C 
HETATM   17  O   UNK N   1       1.310  -1.638  -2.008  0.00  0.00    -0.372 OA
HETATM   18  C   UNK N   1       1.822  -2.258  -3.178  0.00  0.00     0.176 C 
HETATM   19  C   UNK N   1       3.369  -2.121  -3.210  0.00  0.00     0.180 C 
HETATM   20  C   UNK N   1       3.768  -0.637  -3.161  0.00  0.00     0.180 C 
HETATM   21  C   UNK N   1       3.070   0.036  -1.964  0.00  0.00     0.179 C 
BRANCH  18  22
HETATM   22  C   UNK N   1       1.381  -3.731  -3.145  0.00  0.00     0.198 C 
BRANCH  22  23
HETATM   23  O   UNK N   1       1.759  -4.407  -4.315  0.00  0.00    -0.398 OA
HETATM   24  H   UNK N   1       2.601  -4.892  -4.113  0.00  0.00     0.209 HD
ENDBRANCH  22  23
ENDBRANCH  18  22
BRANCH  19  25
HETATM   25  O   UNK N   1       3.933  -2.733  -4.344  0.00  0.00    -0.390 OA
HETATM   26  H   UNK N   1       3.516  -2.323  -5.146  0.00  0.00     0.210 HD
ENDBRANCH  19  25
BRANCH  20  27
HETATM   27  O   UNK N   1       5.165  -0.543  -3.044  0.00  0.00    -0.390 OA
HETATM   28  H   UNK N   1       5.402   0.419  -3.099  0.00  0.00     0.210 HD
ENDBRANCH  20  27
BRANCH  21  29
HETATM   29  O   UNK N   1       3.345   1.415  -1.939  0.00  0.00    -0.390 OA
HETATM   30  H   UNK N   1       2.972   1.809  -2.771  0.00  0.00     0.210 HD
ENDBRANCH  21  29
ENDBRANCH   9  16
BRANCH   4  31
HETATM   31  O   UNK N   1      -3.426  -2.248  -0.090  0.00  0.00    -0.360 OA
HETATM   32  H   UNK N   1      -3.083  -2.915   0.509  0.00  0.00     0.217 HD
ENDBRANCH   4  31
BRANCH   6  33
HETATM   33  C   UNK N   1      -3.663   1.742  -2.832  0.00  0.00     0.203 C 
BRANCH  33  34
HETATM   34  O   UNK N   1      -4.272   1.058  -3.891  0.00  0.00    -0.396 OA
HETATM   35  H   UNK N   1      -4.995   1.651  -4.224  0.00  0.00     0.209 HD
ENDBRANCH  33  34
ENDBRANCH   6  33
BRANCH  12  36
HETATM   36  O   UNK N   1       0.741  -2.828   2.917  0.00  0.00    -0.360 OA
HETATM   37  H   UNK N   1       1.097  -3.183   3.743  0.00  0.00     0.217 HD
ENDBRANCH  12  36
TORSDOF 10
