REMARK  5 active torsions:
REMARK  status: ('A' for Active; 'I' for Inactive)
REMARK    1  A    between atoms: C_5  and  O_6 
REMARK    2  A    between atoms: C_9  and  O_11 
REMARK    3  A    between atoms: C_13  and  O_14 
REMARK    4  A    between atoms: C_19  and  O_20 
REMARK    5  A    between atoms: C_22  and  O_23 
ROOT
HETATM    1  O   UNK N   1      -2.026  -0.124  -0.441  0.00  0.00    -0.292 OA
HETATM    2  C   UNK N   1      -1.518   0.593  -1.295  0.00  0.00     0.165 C 
HETATM    3  C   UNK N   1      -2.280   0.962  -2.506  0.00  0.00     0.024 A 
HETATM    4  C   UNK N   1      -1.621   1.578  -3.597  0.00  0.00     0.018 A 
HETATM    5  C   UNK N   1      -2.387   2.003  -4.706  0.00  0.00     0.078 A 
HETATM    6  C   UNK N   1      -3.769   1.767  -4.740  0.00  0.00     0.074 A 
HETATM    7  C   UNK N   1      -4.411   1.117  -3.681  0.00  0.00     0.071 A 
HETATM    8  C   UNK N   1      -3.657   0.721  -2.563  0.00  0.00     0.052 A 
HETATM    9  C   UNK N   1      -0.106   1.786  -3.575  0.00  0.00     0.160 C 
HETATM   10  C   UNK N   1       0.617   0.971  -2.459  0.00  0.00     0.033 C 
HETATM   11  C   UNK N   1      -0.118   1.125  -1.120  0.00  0.00     0.070 C 
HETATM   12  C   UNK N   1       0.626   0.392   0.019  0.00  0.00     0.053 C 
HETATM   13  C   UNK N   1       2.082   0.881   0.158  0.00  0.00     0.081 C 
HETATM   14  C   UNK N   1       2.815   0.670  -1.200  0.00  0.00     0.152 C 
HETATM   15  C   UNK N   1       2.087   1.424  -2.329  0.00  0.00     0.043 C 
HETATM   16  C   UNK N   1       2.766   0.075   1.281  0.00  0.00     0.049 C 
ENDROOT
BRANCH  13  17
HETATM   17  O   UNK N   1       2.058   2.247   0.507  0.00  0.00    -0.388 OA
HETATM   18  H   UNK N   1       2.994   2.563   0.593  0.00  0.00     0.210 HD
ENDBRANCH  13  17
BRANCH  14  19
HETATM   19  O   UNK N   1       4.142   1.123  -1.102  0.00  0.00    -0.393 OA
HETATM   20  H   UNK N   1       4.591   0.904  -1.959  0.00  0.00     0.210 HD
ENDBRANCH  14  19
BRANCH   9  21
HETATM   21  O   UNK N   1       0.433   1.396  -4.815  0.00  0.00    -0.390 OA
HETATM   22  H   UNK N   1       1.231   1.964  -4.980  0.00  0.00     0.210 HD
ENDBRANCH   9  21
BRANCH   5  23
HETATM   23  O   UNK N   1      -1.789   2.629  -5.744  0.00  0.00    -0.360 OA
HETATM   24  H   UNK N   1      -2.291   2.934  -6.514  0.00  0.00     0.217 HD
ENDBRANCH   5  23
BRANCH   7  25
HETATM   25  O   UNK N   1      -5.750   0.900  -3.759  0.00  0.00    -0.356 OA
HETATM   26  C   UNK N   1      -6.500   0.272  -2.784  0.00  0.00     0.210 C 
ENDBRANCH   7  25
TORSDOF 5
