REMARK  7 active torsions:
REMARK  status: ('A' for Active; 'I' for Inactive)
REMARK    1  A    between atoms: C_4  and  O_5 
REMARK    2  A    between atoms: C_8  and  O_9 
REMARK    3  A    between atoms: C_13  and  O_14 
REMARK    4  A    between atoms: C_17  and  O_18 
REMARK    5  A    between atoms: C_20  and  O_21 
REMARK    6  A    between atoms: C_23  and  O_24 
REMARK    7  A    between atoms: C_26  and  O_27 
ROOT
HETATM    1  O   UNK N   1       0.647   1.614  -4.591  0.00  0.00    -0.292 OA
HETATM    2  C   UNK N   1      -0.080   1.584  -3.613  0.00  0.00     0.170 C 
HETATM    3  C   UNK N   1      -1.557   1.415  -3.759  0.00  0.00     0.052 A 
HETATM    4  C   UNK N   1      -2.246   1.637  -4.991  0.00  0.00     0.082 A 
HETATM    5  C   UNK N   1      -3.629   1.474  -5.044  0.00  0.00     0.074 A 
HETATM    6  C   UNK N   1      -4.366   1.108  -3.909  0.00  0.00     0.071 A 
HETATM    7  C   UNK N   1      -3.699   0.887  -2.704  0.00  0.00     0.047 A 
HETATM    8  C   UNK N   1      -2.302   1.014  -2.617  0.00  0.00    -0.010 A 
HETATM    9  C   UNK N   1      -1.621   0.706  -1.282  0.00  0.00     0.160 C 
HETATM   10  C   UNK N   1      -0.082   0.508  -1.399  0.00  0.00     0.065 C 
HETATM   11  C   UNK N   1       0.586   0.375   0.001  0.00  0.00     0.162 C 
HETATM   12  C   UNK N   1       2.126   0.181  -0.134  0.00  0.00     0.109 C 
HETATM   13  C   UNK N   1       2.748   1.390  -0.901  0.00  0.00     0.184 C 
HETATM   14  C   UNK N   1       2.081   1.553  -2.289  0.00  0.00     0.162 C 
HETATM   15  C   UNK N   1       0.529   1.650  -2.224  0.00  0.00     0.101 C 
HETATM   16  C   UNK N   1       2.754   0.044   1.269  0.00  0.00     0.051 C 
ENDROOT
BRANCH  12  17
HETATM   17  O   UNK N   1       2.342  -1.015  -0.852  0.00  0.00    -0.385 OA
HETATM   18  H   UNK N   1       3.319  -1.166  -0.933  0.00  0.00     0.210 HD
ENDBRANCH  12  17
BRANCH  11  19
HETATM   19  O   UNK N   1       0.258   1.447   0.858  0.00  0.00    -0.392 OA
HETATM   20  H   UNK N   1       0.510   2.301   0.430  0.00  0.00     0.210 HD
ENDBRANCH  11  19
BRANCH  13  21
HETATM   21  O   UNK N   1       4.132   1.181  -1.058  0.00  0.00    -0.390 OA
HETATM   22  H   UNK N   1       4.512   1.987  -1.493  0.00  0.00     0.210 HD
ENDBRANCH  13  21
BRANCH  14  23
HETATM   23  O   UNK N   1       2.609   2.674  -2.957  0.00  0.00    -0.392 OA
HETATM   24  H   UNK N   1       2.376   3.476  -2.418  0.00  0.00     0.210 HD
ENDBRANCH  14  23
BRANCH   9  25
HETATM   25  O   UNK N   1      -2.192  -0.426  -0.672  0.00  0.00    -0.390 OA
HETATM   26  H   UNK N   1      -2.091  -1.190  -1.298  0.00  0.00     0.210 HD
ENDBRANCH   9  25
BRANCH   4  27
HETATM   27  O   UNK N   1      -1.636   2.027  -6.134  0.00  0.00    -0.360 OA
HETATM   28  H   UNK N   1      -0.706   2.244  -6.240  0.00  0.00     0.217 HD
ENDBRANCH   4  27
BRANCH   6  29
HETATM   29  O   UNK N   1      -5.717   0.957  -3.947  0.00  0.00    -0.356 OA
HETATM   30  C   UNK N   1      -6.497   1.152  -5.070  0.00  0.00     0.210 C 
ENDBRANCH   6  29
TORSDOF 7
