REMARK  5 active torsions:
REMARK  status: ('A' for Active; 'I' for Inactive)
REMARK    1  A    between atoms: C_6  and  C_7 
REMARK    2  A    between atoms: C_10  and  O_11 
REMARK    3  A    between atoms: C_22  and  O_23 
REMARK    4  A    between atoms: C_25  and  O_27 
REMARK    5  A    between atoms: C_30  and  O_31 
ROOT
HETATM    1  O   UNK N   1       4.817   1.729  -2.402  0.00  0.00    -0.292 OA
HETATM    2  C   UNK N   1       3.695   1.439  -2.014  0.00  0.00     0.167 C 
HETATM    3  C   UNK N   1       2.520   1.503  -2.925  0.00  0.00     0.077 A 
HETATM    4  C   UNK N   1       1.238   1.215  -2.374  0.00  0.00     0.100 A 
HETATM    5  O   UNK N   1       1.133   0.815  -1.079  0.00  0.00    -0.339 OA
HETATM    6  C   UNK N   1       2.224   0.225  -0.450  0.00  0.00     0.169 C 
HETATM    7  C   UNK N   1       3.469   1.120  -0.563  0.00  0.00     0.121 C 
HETATM    8  C   UNK N   1       0.117   1.331  -3.207  0.00  0.00     0.045 A 
HETATM    9  C   UNK N   1       0.260   1.676  -4.535  0.00  0.00     0.092 A 
HETATM   10  O   UNK N   1      -0.907   1.707  -5.138  0.00  0.00    -0.309 OA
HETATM   11  C   UNK N   1      -1.823   1.396  -4.249  0.00  0.00     0.090 A 
HETATM   12  C   UNK N   1      -1.246   1.152  -3.022  0.00  0.00     0.016 A 
HETATM   13  C   UNK N   1      -2.027   0.806  -1.916  0.00  0.00     0.054 A 
HETATM   14  C   UNK N   1      -3.432   0.713  -2.093  0.00  0.00     0.099 A 
HETATM   15  C   UNK N   1      -4.011   0.964  -3.371  0.00  0.00     0.101 A 
HETATM   16  C   UNK N   1      -3.192   1.309  -4.458  0.00  0.00     0.077 A 
HETATM   17  C   UNK N   1       1.497   1.934  -5.109  0.00  0.00     0.076 A 
HETATM   18  C   UNK N   1       2.644   1.856  -4.298  0.00  0.00     0.085 A 
ENDROOT
BRANCH   6  19
HETATM   19  C   UNK N   1       1.913  -0.124   0.980  0.00  0.00    -0.028 A 
HETATM   20  C   UNK N   1       1.599   0.878   1.912  0.00  0.00     0.012 A 
HETATM   21  C   UNK N   1       1.329   0.539   3.241  0.00  0.00     0.037 A 
HETATM   22  C   UNK N   1       1.366  -0.803   3.649  0.00  0.00     0.065 A 
HETATM   23  C   UNK N   1       1.676  -1.802   2.721  0.00  0.00     0.037 A 
HETATM   24  C   UNK N   1       1.950  -1.467   1.395  0.00  0.00     0.012 A 
BRANCH  22  25
HETATM   25  O   UNK N   1       1.106  -1.139   4.927  0.00  0.00    -0.361 OA
HETATM   26  H   UNK N   1       0.890  -0.470   5.592  0.00  0.00     0.217 HD
ENDBRANCH  22  25
ENDBRANCH   6  19
BRANCH  18  27
HETATM   27  O   UNK N   1       3.857   2.112  -4.831  0.00  0.00    -0.360 OA
HETATM   28  H   UNK N   1       3.965   2.336  -5.766  0.00  0.00     0.217 HD
ENDBRANCH  18  27
BRANCH  14  29
HETATM   29  O   UNK N   1      -4.229   0.387  -1.054  0.00  0.00    -0.358 OA
HETATM   30  H   UNK N   1      -3.874   0.213  -0.171  0.00  0.00     0.218 HD
ENDBRANCH  14  29
BRANCH  15  31
HETATM   31  O   UNK N   1      -5.345   0.878  -3.562  0.00  0.00    -0.358 OA
HETATM   32  H   UNK N   1      -5.956   0.644  -2.850  0.00  0.00     0.218 HD
ENDBRANCH  15  31
TORSDOF 5
