REMARK  6 active torsions:
REMARK  status: ('A' for Active; 'I' for Inactive)
REMARK    1  A    between atoms: C_5  and  O_6 
REMARK    2  A    between atoms: C_9  and  C_10 
REMARK    3  A    between atoms: C_10  and  C_11 
REMARK    4  A    between atoms: C_14  and  C_20 
REMARK    5  A    between atoms: C_15  and  O_16 
REMARK    6  A    between atoms: C_20  and  O_21 
ROOT
HETATM    1  C   UNK N   1      -0.538   1.697   0.542  0.00  0.00     0.025 C 
HETATM    2  C   UNK N   1      -1.432   1.379  -0.741  0.00  0.00    -0.032 C 
HETATM    3  C   UNK N   1      -2.769   0.677  -0.222  0.00  0.00     0.007 C 
HETATM    4  C   UNK N   1      -3.984   0.543  -1.250  0.00  0.00     0.008 C 
HETATM    5  C   UNK N   1      -4.178   1.929  -1.960  0.00  0.00     0.128 C 
HETATM    6  C   UNK N   1      -2.878   2.490  -2.554  0.00  0.00     0.033 C 
HETATM    7  C   UNK N   1      -1.832   2.701  -1.446  0.00  0.00     0.012 C 
HETATM    8  C   UNK N   1      -5.286   0.257  -0.440  0.00  0.00     0.020 C 
HETATM    9  C   UNK N   1      -2.431  -0.648   0.526  0.00  0.00     0.010 C 
HETATM   10  C   UNK N   1      -1.534  -0.371   1.731  0.00  0.00     0.034 C 
HETATM   11  C   UNK N   1      -0.303   0.394   1.322  0.00  0.00    -0.084 C 
HETATM   12  C   UNK N   1       0.908  -0.075   1.684  0.00  0.00     0.015 C 
HETATM   13  C   UNK N   1      -0.622   0.497  -1.741  0.00  0.00     0.016 C 
ENDROOT
BRANCH   1  14
HETATM   14  C   UNK N   1       0.730   2.603   0.361  0.00  0.00     0.037 C 
BRANCH  14  15
HETATM   15  C   UNK N   1       1.779   2.105  -0.609  0.00  0.00    -0.010 C 
HETATM   16  C   UNK N   1       2.435   2.897  -1.483  0.00  0.00     0.044 C 
HETATM   17  C   UNK N   1       3.432   2.427  -2.406  0.00  0.00     0.291 C 
HETATM   18  C   UNK N   1       2.374   4.387  -1.629  0.00  0.00     0.181 C 
HETATM   19  O   UNK N   1       3.795   1.269  -2.524  0.00  0.00    -0.260 OA
HETATM   20  O   UNK N   1       3.925   3.425  -3.141  0.00  0.00    -0.315 OA
HETATM   21  C   UNK N   1       3.294   4.628  -2.870  0.00  0.00     0.215 C 
BRANCH  18  22
HETATM   22  O   UNK N   1       1.083   4.875  -1.864  0.00  0.00    -0.389 OA
HETATM   23  H   UNK N   1       1.129   5.852  -1.686  0.00  0.00     0.210 HD
ENDBRANCH  18  22
ENDBRANCH  14  15
ENDBRANCH   1  14
BRANCH   4  24
HETATM   24  C   UNK N   1      -3.832  -0.627  -2.279  0.00  0.00     0.176 C 
BRANCH  24  25
HETATM   25  O   UNK N   1      -5.006  -0.790  -3.035  0.00  0.00    -0.400 OA
HETATM   26  H   UNK N   1      -5.053  -1.744  -3.305  0.00  0.00     0.209 HD
ENDBRANCH  24  25
ENDBRANCH   4  24
BRANCH   5  27
HETATM   27  O   UNK N   1      -5.147   1.862  -2.978  0.00  0.00    -0.395 OA
HETATM   28  H   UNK N   1      -6.029   2.053  -2.567  0.00  0.00     0.210 HD
ENDBRANCH   5  27
TORSDOF 6
