REMARK  9 active torsions:
REMARK  status: ('A' for Active; 'I' for Inactive)
REMARK    1  A    between atoms: C_5  and  O_6 
REMARK    2  A    between atoms: C_8  and  O_9 
REMARK    3  A    between atoms: C_13  and  O_14 
REMARK    4  A    between atoms: O_14  and  C_15 
REMARK    5  A    between atoms: C_17  and  C_27 
REMARK    6  A    between atoms: C_18  and  O_19 
REMARK    7  A    between atoms: C_21  and  O_22 
REMARK    8  A    between atoms: C_24  and  O_25 
REMARK    9  A    between atoms: C_27  and  O_28 
ROOT
HETATM    1  C   UNK N   1      -1.922   1.059  -1.875  0.00  0.00     0.294 C 
HETATM    2  O   UNK N   1      -2.600  -0.083  -1.366  0.00  0.00    -0.348 OA
HETATM    3  C   UNK N   1      -3.986   0.183  -1.205  0.00  0.00     0.179 C 
HETATM    4  C   UNK N   1      -4.645   0.398  -2.587  0.00  0.00     0.180 C 
HETATM    5  C   UNK N   1      -3.941   1.578  -3.284  0.00  0.00     0.183 C 
HETATM    6  C   UNK N   1      -2.420   1.354  -3.306  0.00  0.00     0.204 C 
ENDROOT
BRANCH   1   7
HETATM    7  O   UNK N   1      -0.528   0.812  -1.956  0.00  0.00    -0.328 OA
BRANCH   7   8
HETATM    8  C   UNK N   1       0.032   0.435  -0.709  0.00  0.00     0.273 C 
HETATM    9  O   UNK N   1      -0.102   1.469   0.208  0.00  0.00    -0.332 OA
HETATM   10  C   UNK N   1       0.591   2.634   0.084  0.00  0.00     0.134 C 
HETATM   11  C   UNK N   1       1.743   2.685  -0.610  0.00  0.00     0.005 C 
HETATM   12  C   UNK N   1       2.341   1.438  -1.234  0.00  0.00     0.050 C 
HETATM   13  C   UNK N   1       3.735   1.167  -0.610  0.00  0.00     0.155 C 
HETATM   14  C   UNK N   1       1.525   0.151  -0.941  0.00  0.00     0.058 C 
HETATM   15  C   UNK N   1       3.765  -0.343  -0.339  0.00  0.00     0.152 C 
HETATM   16  C   UNK N   1       2.322  -0.609   0.137  0.00  0.00     0.022 C 
HETATM   17  C   UNK N   1       2.064  -0.133   1.581  0.00  0.00     0.013 C 
BRANCH  13  18
HETATM   18  O   UNK N   1       4.799   1.601  -1.414  0.00  0.00    -0.392 OA
HETATM   19  H   UNK N   1       4.719   2.588  -1.474  0.00  0.00     0.210 HD
ENDBRANCH  13  18
BRANCH  15  20
HETATM   20  O   UNK N   1       3.995  -1.048  -1.536  0.00  0.00    -0.393 OA
HETATM   21  H   UNK N   1       4.968  -0.983  -1.725  0.00  0.00     0.210 HD
ENDBRANCH  15  20
ENDBRANCH   7   8
ENDBRANCH   1   7
BRANCH   6  22
HETATM   22  O   UNK N   1      -1.795   2.500  -3.824  0.00  0.00    -0.388 OA
HETATM   23  H   UNK N   1      -0.851   2.259  -4.012  0.00  0.00     0.210 HD
ENDBRANCH   6  22
BRANCH   3  24
HETATM   24  C   UNK N   1      -4.629  -0.990  -0.448  0.00  0.00     0.198 C 
BRANCH  24  25
HETATM   25  O   UNK N   1      -4.521  -2.188  -1.170  0.00  0.00    -0.398 OA
HETATM   26  H   UNK N   1      -3.575  -2.479  -1.101  0.00  0.00     0.209 HD
ENDBRANCH  24  25
ENDBRANCH   3  24
BRANCH   5  27
HETATM   27  O   UNK N   1      -4.439   1.772  -4.585  0.00  0.00    -0.390 OA
HETATM   28  H   UNK N   1      -4.277   0.935  -5.096  0.00  0.00     0.210 HD
ENDBRANCH   5  27
BRANCH   4  29
HETATM   29  O   UNK N   1      -6.013   0.677  -2.428  0.00  0.00    -0.390 OA
HETATM   30  H   UNK N   1      -6.429   0.604  -3.327  0.00  0.00     0.210 HD
ENDBRANCH   4  29
TORSDOF 9
