REMARK  10 active torsions:
REMARK  status: ('A' for Active; 'I' for Inactive)
REMARK    1  A    between atoms: C_6  and  C_8 
REMARK    2  A    between atoms: C_11  and  O_12 
REMARK    3  A    between atoms: C_17  and  O_18 
REMARK    4  A    between atoms: O_18  and  C_19 
REMARK    5  A    between atoms: C_21  and  C_31 
REMARK    6  A    between atoms: C_22  and  O_23 
REMARK    7  A    between atoms: C_25  and  O_26 
REMARK    8  A    between atoms: C_28  and  O_29 
REMARK    9  A    between atoms: C_31  and  O_32 
REMARK   10  A    between atoms: C_35  and  O_36 
ROOT
HETATM    1  O   UNK N   1       3.731   2.034  -2.243  0.00  0.00    -0.287 OA
HETATM    2  C   UNK N   1       2.904   1.294  -1.747  0.00  0.00     0.190 A 
HETATM    3  C   UNK N   1       1.739   0.890  -2.447  0.00  0.00     0.081 A 
HETATM    4  C   UNK N   1       0.842   0.025  -1.765  0.00  0.00     0.095 A 
HETATM    5  O   UNK N   1       1.108  -0.393  -0.528  0.00  0.00    -0.309 OA
HETATM    6  C   UNK N   1       2.185  -0.010   0.157  0.00  0.00     0.090 A 
HETATM    7  C   UNK N   1       3.111   0.853  -0.444  0.00  0.00     0.094 A 
HETATM    8  C   UNK N   1      -0.356  -0.381  -2.370  0.00  0.00     0.075 A 
HETATM    9  C   UNK N   1      -0.702   0.069  -3.648  0.00  0.00     0.077 A 
HETATM   10  C   UNK N   1       0.201   0.894  -4.344  0.00  0.00     0.074 A 
HETATM   11  C   UNK N   1       1.409   1.305  -3.776  0.00  0.00     0.085 A 
ENDROOT
BRANCH   9  12
HETATM   12  O   UNK N   1      -1.910  -0.299  -4.173  0.00  0.00    -0.318 OA
BRANCH  12  13
HETATM   13  C   UNK N   1      -2.667   0.467  -5.061  0.00  0.00     0.298 C 
HETATM   14  O   UNK N   1      -3.459  -0.350  -5.907  0.00  0.00    -0.348 OA
HETATM   15  C   UNK N   1      -4.481  -1.045  -5.209  0.00  0.00     0.179 C 
HETATM   16  C   UNK N   1      -5.434  -0.071  -4.470  0.00  0.00     0.180 C 
HETATM   17  C   UNK N   1      -4.622   0.810  -3.509  0.00  0.00     0.183 C 
HETATM   18  C   UNK N   1      -3.524   1.517  -4.315  0.00  0.00     0.205 C 
BRANCH  15  19
HETATM   19  C   UNK N   1      -5.254  -1.879  -6.243  0.00  0.00     0.198 C 
BRANCH  19  20
HETATM   20  O   UNK N   1      -5.812  -1.038  -7.218  0.00  0.00    -0.398 OA
HETATM   21  H   UNK N   1      -6.249  -1.630  -7.883  0.00  0.00     0.209 HD
ENDBRANCH  19  20
ENDBRANCH  15  19
BRANCH  16  22
HETATM   22  O   UNK N   1      -6.398  -0.805  -3.757  0.00  0.00    -0.390 OA
HETATM   23  H   UNK N   1      -7.126  -0.174  -3.517  0.00  0.00     0.210 HD
ENDBRANCH  16  22
BRANCH  17  24
HETATM   24  O   UNK N   1      -5.477   1.752  -2.912  0.00  0.00    -0.390 OA
HETATM   25  H   UNK N   1      -4.968   2.186  -2.179  0.00  0.00     0.210 HD
ENDBRANCH  17  24
BRANCH  18  26
HETATM   26  O   UNK N   1      -2.731   2.295  -3.455  0.00  0.00    -0.388 OA
HETATM   27  H   UNK N   1      -2.125   2.832  -4.028  0.00  0.00     0.210 HD
ENDBRANCH  18  26
ENDBRANCH  12  13
ENDBRANCH   9  12
BRANCH  11  28
HETATM   28  O   UNK N   1       2.197   2.098  -4.541  0.00  0.00    -0.360 OA
HETATM   29  H   UNK N   1       3.068   2.434  -4.318  0.00  0.00     0.217 HD
ENDBRANCH  11  28
BRANCH   6  30
HETATM   30  C   UNK N   1       2.371  -0.509   1.549  0.00  0.00    -0.002 A 
HETATM   31  C   UNK N   1       1.691  -1.668   1.964  0.00  0.00     0.017 A 
HETATM   32  C   UNK N   1       1.856  -2.163   3.261  0.00  0.00     0.037 A 
HETATM   33  C   UNK N   1       2.686  -1.495   4.171  0.00  0.00     0.065 A 
HETATM   34  C   UNK N   1       3.353  -0.334   3.775  0.00  0.00     0.037 A 
HETATM   35  C   UNK N   1       3.208   0.154   2.474  0.00  0.00     0.017 A 
BRANCH  33  36
HETATM   36  O   UNK N   1       2.848  -1.961   5.427  0.00  0.00    -0.361 OA
HETATM   37  H   UNK N   1       2.406  -2.766   5.731  0.00  0.00     0.217 HD
ENDBRANCH  33  36
ENDBRANCH   6  30
TORSDOF 10
