REMARK  10 active torsions:
REMARK  status: ('A' for Active; 'I' for Inactive)
REMARK    1  A    between atoms: C_6  and  C_8 
REMARK    2  A    between atoms: C_11  and  O_12 
REMARK    3  A    between atoms: C_17  and  O_18 
REMARK    4  A    between atoms: O_18  and  C_19 
REMARK    5  A    between atoms: C_21  and  C_22 
REMARK    6  A    between atoms: C_22  and  O_24 
REMARK    7  A    between atoms: C_26  and  O_27 
REMARK    8  A    between atoms: C_29  and  O_30 
REMARK    9  A    between atoms: C_32  and  O_33 
REMARK   10  A    between atoms: C_36  and  O_37 
ROOT
HETATM    1  O   UNK N   1       3.348   1.067  -2.592  0.00  0.00    -0.287 OA
HETATM    2  C   UNK N   1       2.586   1.172  -1.652  0.00  0.00     0.190 A 
HETATM    3  C   UNK N   1       1.315   1.792  -1.779  0.00  0.00     0.081 A 
HETATM    4  C   UNK N   1       0.513   1.860  -0.610  0.00  0.00     0.095 A 
HETATM    5  O   UNK N   1       0.950   1.373   0.547  0.00  0.00    -0.309 OA
HETATM    6  C   UNK N   1       2.123   0.763   0.686  0.00  0.00     0.090 A 
HETATM    7  C   UNK N   1       2.975   0.646  -0.421  0.00  0.00     0.094 A 
HETATM    8  C   UNK N   1      -0.767   2.415  -0.653  0.00  0.00     0.075 A 
HETATM    9  C   UNK N   1      -1.296   2.897  -1.847  0.00  0.00     0.077 A 
HETATM   10  C   UNK N   1      -0.508   2.860  -3.011  0.00  0.00     0.074 A 
HETATM   11  C   UNK N   1       0.788   2.331  -2.998  0.00  0.00     0.085 A 
ENDROOT
BRANCH   9  12
HETATM   12  O   UNK N   1      -2.571   3.374  -1.847  0.00  0.00    -0.318 OA
BRANCH  12  13
HETATM   13  C   UNK N   1      -3.382   3.459  -2.972  0.00  0.00     0.298 C 
HETATM   14  O   UNK N   1      -3.593   2.165  -3.529  0.00  0.00    -0.340 OA
HETATM   15  C   UNK N   1      -4.287   1.313  -2.621  0.00  0.00     0.255 C 
HETATM   16  C   UNK N   1      -5.714   1.856  -2.361  0.00  0.00     0.188 C 
HETATM   17  C   UNK N   1      -5.589   3.261  -1.735  0.00  0.00     0.183 C 
HETATM   18  C   UNK N   1      -4.734   4.140  -2.662  0.00  0.00     0.205 C 
BRANCH  15  19
HETATM   19  C   UNK N   1      -4.280  -0.090  -3.180  0.00  0.00     0.290 C 
HETATM   20  O   UNK N   1      -5.329  -0.683  -3.397  0.00  0.00    -0.262 OA
BRANCH  19  21
HETATM   21  O   UNK N   1      -3.087  -0.689  -3.431  0.00  0.00    -0.324 OA
HETATM   22  C   UNK N   1      -2.973  -1.958  -3.959  0.00  0.00     0.213 C 
ENDBRANCH  19  21
ENDBRANCH  15  19
BRANCH  16  23
HETATM   23  O   UNK N   1      -6.417   1.916  -3.578  0.00  0.00    -0.390 OA
HETATM   24  H   UNK N   1      -7.375   2.049  -3.352  0.00  0.00     0.210 HD
ENDBRANCH  16  23
BRANCH  17  25
HETATM   25  O   UNK N   1      -6.851   3.850  -1.558  0.00  0.00    -0.390 OA
HETATM   26  H   UNK N   1      -7.344   3.286  -0.906  0.00  0.00     0.210 HD
ENDBRANCH  17  25
BRANCH  18  27
HETATM   27  O   UNK N   1      -4.552   5.430  -2.135  0.00  0.00    -0.388 OA
HETATM   28  H   UNK N   1      -4.078   5.339  -1.267  0.00  0.00     0.210 HD
ENDBRANCH  18  27
ENDBRANCH  12  13
ENDBRANCH   9  12
BRANCH  11  29
HETATM   29  O   UNK N   1       1.465   2.355  -4.170  0.00  0.00    -0.360 OA
HETATM   30  H   UNK N   1       2.371   2.069  -4.316  0.00  0.00     0.217 HD
ENDBRANCH  11  29
BRANCH   6  31
HETATM   31  C   UNK N   1       2.483   0.216   2.021  0.00  0.00    -0.002 A 
HETATM   32  C   UNK N   1       1.853   0.732   3.167  0.00  0.00     0.017 A 
HETATM   33  C   UNK N   1       2.172   0.240   4.435  0.00  0.00     0.037 A 
HETATM   34  C   UNK N   1       3.107  -0.794   4.575  0.00  0.00     0.065 A 
HETATM   35  C   UNK N   1       3.725  -1.326   3.441  0.00  0.00     0.037 A 
HETATM   36  C   UNK N   1       3.427  -0.823   2.171  0.00  0.00     0.017 A 
BRANCH  34  37
HETATM   37  O   UNK N   1       3.415  -1.281   5.794  0.00  0.00    -0.361 OA
HETATM   38  H   UNK N   1       3.010  -0.928   6.599  0.00  0.00     0.217 HD
ENDBRANCH  34  37
ENDBRANCH   6  31
TORSDOF 10
