REMARK  11 active torsions:
REMARK  status: ('A' for Active; 'I' for Inactive)
REMARK    1  A    between atoms: C_6  and  C_8 
REMARK    2  A    between atoms: C_11  and  O_12 
REMARK    3  A    between atoms: C_17  and  O_18 
REMARK    4  A    between atoms: O_18  and  C_19 
REMARK    5  A    between atoms: C_21  and  C_31 
REMARK    6  A    between atoms: C_22  and  O_23 
REMARK    7  A    between atoms: C_25  and  O_26 
REMARK    8  A    between atoms: C_28  and  O_29 
REMARK    9  A    between atoms: C_31  and  O_32 
REMARK   10  A    between atoms: O_32  and  C_33 
REMARK   11  A    between atoms: C_37  and  O_38 
ROOT
HETATM    1  O   UNK N   1       5.000   1.611  -2.381  0.00  0.00    -0.287 OA
HETATM    2  C   UNK N   1       3.882   1.449  -1.926  0.00  0.00     0.190 A 
HETATM    3  C   UNK N   1       2.733   1.841  -2.646  0.00  0.00     0.081 A 
HETATM    4  C   UNK N   1       1.476   1.622  -2.046  0.00  0.00     0.095 A 
HETATM    5  O   UNK N   1       1.386   1.083  -0.838  0.00  0.00    -0.309 OA
HETATM    6  C   UNK N   1       2.441   0.685  -0.135  0.00  0.00     0.090 A 
HETATM    7  C   UNK N   1       3.732   0.853  -0.669  0.00  0.00     0.094 A 
HETATM    8  C   UNK N   1       0.304   1.952  -2.717  0.00  0.00     0.075 A 
HETATM    9  C   UNK N   1       0.349   2.510  -4.006  0.00  0.00     0.077 A 
HETATM   10  C   UNK N   1       1.592   2.758  -4.599  0.00  0.00     0.074 A 
HETATM   11  C   UNK N   1       2.788   2.431  -3.934  0.00  0.00     0.085 A 
ENDROOT
BRANCH   9  12
HETATM   12  O   UNK N   1      -0.784   2.808  -4.700  0.00  0.00    -0.318 OA
BRANCH  12  13
HETATM   13  C   UNK N   1      -2.072   2.536  -4.270  0.00  0.00     0.298 C 
HETATM   14  O   UNK N   1      -2.211   1.134  -4.087  0.00  0.00    -0.348 OA
HETATM   15  C   UNK N   1      -3.461   0.831  -3.490  0.00  0.00     0.180 C 
HETATM   16  C   UNK N   1      -4.599   1.165  -4.481  0.00  0.00     0.180 C 
HETATM   17  C   UNK N   1      -4.502   2.661  -4.851  0.00  0.00     0.183 C 
HETATM   18  C   UNK N   1      -3.082   3.016  -5.331  0.00  0.00     0.205 C 
BRANCH  15  19
HETATM   19  C   UNK N   1      -3.468  -0.653  -3.105  0.00  0.00     0.213 C 
BRANCH  19  20
HETATM   20  O   UNK N   1      -2.437  -0.903  -2.218  0.00  0.00    -0.319 OA
BRANCH  20  21
HETATM   21  C   UNK N   1      -2.182  -2.129  -1.693  0.00  0.00     0.254 C 
HETATM   22  O   UNK N   1      -2.871  -3.094  -1.993  0.00  0.00    -0.266 OA
HETATM   23  C   UNK N   1      -1.043  -2.295  -0.738  0.00  0.00     0.126 C 
ENDBRANCH  20  21
ENDBRANCH  19  20
ENDBRANCH  15  19
BRANCH  16  24
HETATM   24  O   UNK N   1      -5.842   0.890  -3.887  0.00  0.00    -0.390 OA
HETATM   25  H   UNK N   1      -6.526   0.955  -4.603  0.00  0.00     0.210 HD
ENDBRANCH  16  24
BRANCH  17  26
HETATM   26  O   UNK N   1      -5.461   3.011  -5.819  0.00  0.00    -0.390 OA
HETATM   27  H   UNK N   1      -5.285   2.458  -6.626  0.00  0.00     0.210 HD
ENDBRANCH  17  26
BRANCH  18  28
HETATM   28  O   UNK N   1      -2.993   4.406  -5.512  0.00  0.00    -0.388 OA
HETATM   29  H   UNK N   1      -2.109   4.593  -5.921  0.00  0.00     0.210 HD
ENDBRANCH  18  28
ENDBRANCH  12  13
ENDBRANCH   9  12
BRANCH  11  30
HETATM   30  O   UNK N   1       3.974   2.674  -4.532  0.00  0.00    -0.360 OA
HETATM   31  H   UNK N   1       4.032   3.084  -5.407  0.00  0.00     0.217 HD
ENDBRANCH  11  30
BRANCH   6  32
HETATM   32  C   UNK N   1       2.196   0.074   1.197  0.00  0.00    -0.002 A 
HETATM   33  C   UNK N   1       0.970   0.322   1.844  0.00  0.00     0.017 A 
HETATM   34  C   UNK N   1       0.702  -0.233   3.096  0.00  0.00     0.037 A 
HETATM   35  C   UNK N   1       1.644  -1.065   3.713  0.00  0.00     0.065 A 
HETATM   36  C   UNK N   1       2.858  -1.331   3.073  0.00  0.00     0.037 A 
HETATM   37  C   UNK N   1       3.141  -0.760   1.827  0.00  0.00     0.017 A 
BRANCH  35  38
HETATM   38  O   UNK N   1       1.390  -1.612   4.919  0.00  0.00    -0.361 OA
HETATM   39  H   UNK N   1       0.562  -1.441   5.390  0.00  0.00     0.217 HD
ENDBRANCH  35  38
ENDBRANCH   6  32
TORSDOF 11
