REMARK  8 active torsions:
REMARK  status: ('A' for Active; 'I' for Inactive)
REMARK    1  A    between atoms: C_6  and  C_8 
REMARK    2  A    between atoms: C_11  and  O_12 
REMARK    3  A    between atoms: C_17  and  O_18 
REMARK    4  A    between atoms: O_18  and  C_19 
REMARK    5  A    between atoms: C_22  and  O_23 
REMARK    6  A    between atoms: C_25  and  O_26 
REMARK    7  A    between atoms: C_28  and  O_29 
REMARK    8  A    between atoms: C_33  and  O_34 
ROOT
HETATM    1  O   UNK N   1      -2.362   6.773   1.160  0.00  0.00    -0.287 OA
HETATM    2  C   UNK N   1      -2.073   5.764   0.543  0.00  0.00     0.190 A 
HETATM    3  C   UNK N   1      -0.751   5.268   0.527  0.00  0.00     0.081 A 
HETATM    4  C   UNK N   1      -0.503   4.094  -0.210  0.00  0.00     0.095 A 
HETATM    5  O   UNK N   1      -1.485   3.468  -0.844  0.00  0.00    -0.309 OA
HETATM    6  C   UNK N   1      -2.737   3.908  -0.865  0.00  0.00     0.090 A 
HETATM    7  C   UNK N   1      -3.068   5.086  -0.172  0.00  0.00     0.094 A 
HETATM    8  C   UNK N   1       0.781   3.572  -0.300  0.00  0.00     0.075 A 
HETATM    9  C   UNK N   1       1.859   4.194   0.353  0.00  0.00     0.077 A 
HETATM   10  C   UNK N   1       1.621   5.348   1.110  0.00  0.00     0.074 A 
HETATM   11  C   UNK N   1       0.326   5.896   1.204  0.00  0.00     0.085 A 
ENDROOT
BRANCH   9  12
HETATM   12  O   UNK N   1       3.130   3.707   0.262  0.00  0.00    -0.318 OA
BRANCH  12  13
HETATM   13  C   UNK N   1       3.501   2.613  -0.514  0.00  0.00     0.298 C 
HETATM   14  O   UNK N   1       2.832   1.426  -0.105  0.00  0.00    -0.351 OA
HETATM   15  C   UNK N   1       3.146   1.080   1.236  0.00  0.00     0.152 C 
HETATM   16  C   UNK N   1       4.650   0.749   1.373  0.00  0.00     0.178 C 
HETATM   17  C   UNK N   1       2.279  -0.120   1.624  0.00  0.00     0.042 C 
HETATM   18  C   UNK N   1       5.469   1.972   0.901  0.00  0.00     0.183 C 
HETATM   19  C   UNK N   1       5.025   2.394  -0.510  0.00  0.00     0.205 C 
BRANCH  16  20
HETATM   20  O   UNK N   1       4.950   0.450   2.712  0.00  0.00    -0.390 OA
HETATM   21  H   UNK N   1       5.874   0.088   2.728  0.00  0.00     0.210 HD
ENDBRANCH  16  20
BRANCH  18  22
HETATM   22  O   UNK N   1       6.852   1.719   0.943  0.00  0.00    -0.390 OA
HETATM   23  H   UNK N   1       7.033   0.921   0.380  0.00  0.00     0.210 HD
ENDBRANCH  18  22
BRANCH  19  24
HETATM   24  O   UNK N   1       5.350   1.380  -1.429  0.00  0.00    -0.388 OA
HETATM   25  H   UNK N   1       5.216   1.759  -2.337  0.00  0.00     0.210 HD
ENDBRANCH  19  24
ENDBRANCH  12  13
ENDBRANCH   9  12
BRANCH  11  26
HETATM   26  O   UNK N   1       0.122   7.015   1.931  0.00  0.00    -0.360 OA
HETATM   27  H   UNK N   1       0.843   7.458   2.403  0.00  0.00     0.217 HD
ENDBRANCH  11  26
BRANCH   6  28
HETATM   28  C   UNK N   1      -3.734   3.119  -1.635  0.00  0.00    -0.002 A 
HETATM   29  C   UNK N   1      -3.467   1.764  -1.907  0.00  0.00     0.017 A 
HETATM   30  C   UNK N   1      -4.377   0.991  -2.631  0.00  0.00     0.037 A 
HETATM   31  C   UNK N   1      -5.557   1.567  -3.117  0.00  0.00     0.065 A 
HETATM   32  C   UNK N   1      -5.825   2.916  -2.864  0.00  0.00     0.037 A 
HETATM   33  C   UNK N   1      -4.927   3.689  -2.120  0.00  0.00     0.017 A 
BRANCH  31  34
HETATM   34  O   UNK N   1      -6.437   0.833  -3.828  0.00  0.00    -0.361 OA
HETATM   35  H   UNK N   1      -6.281  -0.104  -4.015  0.00  0.00     0.217 HD
ENDBRANCH  31  34
ENDBRANCH   6  28
TORSDOF 8
