REMARK  10 active torsions:
REMARK  status: ('A' for Active; 'I' for Inactive)
REMARK    1  A    between atoms: C_6  and  C_8 
REMARK    2  A    between atoms: C_11  and  O_12 
REMARK    3  A    between atoms: C_17  and  O_18 
REMARK    4  A    between atoms: O_18  and  C_19 
REMARK    5  A    between atoms: C_21  and  C_31 
REMARK    6  A    between atoms: C_22  and  O_23 
REMARK    7  A    between atoms: C_25  and  O_26 
REMARK    8  A    between atoms: C_28  and  O_29 
REMARK    9  A    between atoms: C_31  and  O_32 
REMARK   10  A    between atoms: C_35  and  O_36 
ROOT
HETATM    1  O   UNK N   1       5.005   1.823  -2.283  0.00  0.00    -0.287 OA
HETATM    2  C   UNK N   1       3.887   1.577  -1.867  0.00  0.00     0.190 A 
HETATM    3  C   UNK N   1       2.739   1.870  -2.634  0.00  0.00     0.081 A 
HETATM    4  C   UNK N   1       1.482   1.552  -2.081  0.00  0.00     0.095 A 
HETATM    5  O   UNK N   1       1.391   0.977  -0.888  0.00  0.00    -0.309 OA
HETATM    6  C   UNK N   1       2.446   0.698  -0.130  0.00  0.00     0.090 A 
HETATM    7  C   UNK N   1       3.736   1.002  -0.601  0.00  0.00     0.094 A 
HETATM    8  C   UNK N   1       0.311   1.847  -2.770  0.00  0.00     0.075 A 
HETATM    9  C   UNK N   1       0.357   2.456  -4.037  0.00  0.00     0.077 A 
HETATM   10  C   UNK N   1       1.601   2.755  -4.604  0.00  0.00     0.074 A 
HETATM   11  C   UNK N   1       2.795   2.468  -3.918  0.00  0.00     0.085 A 
ENDROOT
BRANCH   9  12
HETATM   12  O   UNK N   1      -0.774   2.764  -4.730  0.00  0.00    -0.318 OA
BRANCH  12  13
HETATM   13  C   UNK N   1      -2.063   2.511  -4.292  0.00  0.00     0.298 C 
HETATM   14  O   UNK N   1      -2.214   1.112  -4.117  0.00  0.00    -0.348 OA
HETATM   15  C   UNK N   1      -3.460   0.814  -3.515  0.00  0.00     0.179 C 
HETATM   16  C   UNK N   1      -4.604   1.166  -4.493  0.00  0.00     0.180 C 
HETATM   17  C   UNK N   1      -4.499   2.665  -4.849  0.00  0.00     0.183 C 
HETATM   18  C   UNK N   1      -3.078   3.010  -5.339  0.00  0.00     0.205 C 
BRANCH  15  19
HETATM   19  C   UNK N   1      -3.463  -0.672  -3.127  0.00  0.00     0.198 C 
BRANCH  19  20
HETATM   20  O   UNK N   1      -3.320  -1.495  -4.254  0.00  0.00    -0.398 OA
HETATM   21  H   UNK N   1      -2.371  -1.429  -4.539  0.00  0.00     0.209 HD
ENDBRANCH  19  20
ENDBRANCH  15  19
BRANCH  16  22
HETATM   22  O   UNK N   1      -5.844   0.893  -3.892  0.00  0.00    -0.390 OA
HETATM   23  H   UNK N   1      -6.528   0.940  -4.609  0.00  0.00     0.210 HD
ENDBRANCH  16  22
BRANCH  17  24
HETATM   24  O   UNK N   1      -5.463   3.030  -5.804  0.00  0.00    -0.390 OA
HETATM   25  H   UNK N   1      -5.299   2.483  -6.617  0.00  0.00     0.210 HD
ENDBRANCH  17  24
BRANCH  18  26
HETATM   26  O   UNK N   1      -2.978   4.401  -5.510  0.00  0.00    -0.388 OA
HETATM   27  H   UNK N   1      -2.108   4.580  -5.952  0.00  0.00     0.210 HD
ENDBRANCH  18  26
ENDBRANCH  12  13
ENDBRANCH   9  12
BRANCH  11  28
HETATM   28  O   UNK N   1       3.982   2.770  -4.487  0.00  0.00    -0.360 OA
HETATM   29  H   UNK N   1       4.040   3.169  -5.367  0.00  0.00     0.217 HD
ENDBRANCH  11  28
BRANCH   6  30
HETATM   30  C   UNK N   1       2.202   0.077   1.199  0.00  0.00    -0.002 A 
HETATM   31  C   UNK N   1       0.983  -0.589   1.428  0.00  0.00     0.017 A 
HETATM   32  C   UNK N   1       0.716  -1.180   2.664  0.00  0.00     0.037 A 
HETATM   33  C   UNK N   1       1.653  -1.096   3.701  0.00  0.00     0.065 A 
HETATM   34  C   UNK N   1       2.862  -0.426   3.488  0.00  0.00     0.037 A 
HETATM   35  C   UNK N   1       3.144   0.149   2.245  0.00  0.00     0.017 A 
BRANCH  33  36
HETATM   36  O   UNK N   1       1.400  -1.652   4.902  0.00  0.00    -0.361 OA
HETATM   37  H   UNK N   1       0.574  -2.125   5.079  0.00  0.00     0.217 HD
ENDBRANCH  33  36
ENDBRANCH   6  30
TORSDOF 10
