REMARK  8 active torsions:
REMARK  status: ('A' for Active; 'I' for Inactive)
REMARK    1  A    between atoms: C_6  and  C_8 
REMARK    2  A    between atoms: C_11  and  O_12 
REMARK    3  A    between atoms: C_17  and  O_18 
REMARK    4  A    between atoms: O_18  and  C_19 
REMARK    5  A    between atoms: C_22  and  O_23 
REMARK    6  A    between atoms: C_25  and  O_26 
REMARK    7  A    between atoms: C_28  and  O_29 
REMARK    8  A    between atoms: C_33  and  O_34 
ROOT
HETATM    1  O   UNK N   1      -6.278  -0.742  -2.729  0.00  0.00    -0.287 OA
HETATM    2  C   UNK N   1      -5.251  -1.395  -2.680  0.00  0.00     0.190 A 
HETATM    3  C   UNK N   1      -3.985  -0.781  -2.797  0.00  0.00     0.081 A 
HETATM    4  C   UNK N   1      -2.845  -1.608  -2.726  0.00  0.00     0.095 A 
HETATM    5  O   UNK N   1      -2.968  -2.922  -2.590  0.00  0.00    -0.309 OA
HETATM    6  C   UNK N   1      -4.141  -3.536  -2.469  0.00  0.00     0.090 A 
HETATM    7  C   UNK N   1      -5.325  -2.780  -2.498  0.00  0.00     0.094 A 
HETATM    8  C   UNK N   1      -1.567  -1.058  -2.781  0.00  0.00     0.075 A 
HETATM    9  C   UNK N   1      -1.392   0.328  -2.929  0.00  0.00     0.077 A 
HETATM   10  C   UNK N   1      -2.516   1.152  -3.044  0.00  0.00     0.074 A 
HETATM   11  C   UNK N   1      -3.814   0.616  -2.970  0.00  0.00     0.085 A 
ENDROOT
BRANCH   9  12
HETATM   12  O   UNK N   1      -0.157   0.897  -2.944  0.00  0.00    -0.318 OA
BRANCH  12  13
HETATM   13  C   UNK N   1       0.944   0.375  -2.285  0.00  0.00     0.298 C 
HETATM   14  O   UNK N   1       0.636   0.333  -0.898  0.00  0.00    -0.351 OA
HETATM   15  C   UNK N   1       1.691  -0.245  -0.151  0.00  0.00     0.152 C 
HETATM   16  C   UNK N   1       2.940   0.659  -0.220  0.00  0.00     0.178 C 
HETATM   17  C   UNK N   1       1.217  -0.432   1.292  0.00  0.00     0.042 C 
HETATM   18  C   UNK N   1       3.354   0.778  -1.700  0.00  0.00     0.183 C 
HETATM   19  C   UNK N   1       2.161   1.284  -2.545  0.00  0.00     0.205 C 
BRANCH  16  20
HETATM   20  O   UNK N   1       2.631   1.925   0.311  0.00  0.00    -0.390 OA
HETATM   21  H   UNK N   1       3.488   2.344   0.582  0.00  0.00     0.210 HD
ENDBRANCH  16  20
BRANCH  18  22
HETATM   22  O   UNK N   1       4.489   1.596  -1.846  0.00  0.00    -0.390 OA
HETATM   23  H   UNK N   1       4.211   2.537  -1.692  0.00  0.00     0.210 HD
ENDBRANCH  18  22
BRANCH  19  24
HETATM   24  O   UNK N   1       2.473   1.252  -3.915  0.00  0.00    -0.388 OA
HETATM   25  H   UNK N   1       3.207   1.902  -4.064  0.00  0.00     0.210 HD
ENDBRANCH  19  24
ENDBRANCH  12  13
ENDBRANCH   9  12
BRANCH  11  26
HETATM   26  O   UNK N   1      -4.882   1.437  -3.053  0.00  0.00    -0.360 OA
HETATM   27  H   UNK N   1      -4.784   2.394  -3.163  0.00  0.00     0.217 HD
ENDBRANCH  11  26
BRANCH   6  28
HETATM   28  C   UNK N   1      -4.140  -5.013  -2.310  0.00  0.00    -0.002 A 
HETATM   29  C   UNK N   1      -3.031  -5.746  -2.773  0.00  0.00     0.017 A 
HETATM   30  C   UNK N   1      -2.994  -7.135  -2.643  0.00  0.00     0.037 A 
HETATM   31  C   UNK N   1      -4.053  -7.813  -2.026  0.00  0.00     0.065 A 
HETATM   32  C   UNK N   1      -5.153  -7.092  -1.550  0.00  0.00     0.037 A 
HETATM   33  C   UNK N   1      -5.206  -5.701  -1.698  0.00  0.00     0.017 A 
BRANCH  31  34
HETATM   34  O   UNK N   1      -4.022  -9.153  -1.887  0.00  0.00    -0.361 OA
HETATM   35  H   UNK N   1      -3.277  -9.680  -2.212  0.00  0.00     0.217 HD
ENDBRANCH  31  34
ENDBRANCH   6  28
TORSDOF 8
