REMARK  10 active torsions:
REMARK  status: ('A' for Active; 'I' for Inactive)
REMARK    1  A    between atoms: C_6  and  C_8 
REMARK    2  A    between atoms: C_11  and  O_12 
REMARK    3  A    between atoms: C_17  and  O_18 
REMARK    4  A    between atoms: O_18  and  C_19 
REMARK    5  A    between atoms: C_21  and  C_31 
REMARK    6  A    between atoms: C_22  and  O_23 
REMARK    7  A    between atoms: C_25  and  O_26 
REMARK    8  A    between atoms: C_28  and  O_29 
REMARK    9  A    between atoms: C_31  and  O_32 
REMARK   10  A    between atoms: C_35  and  O_36 
ROOT
HETATM    1  O   UNK N   1       3.705   1.756  -2.753  0.00  0.00    -0.287 OA
HETATM    2  C   UNK N   1       2.679   1.417  -2.192  0.00  0.00     0.190 A 
HETATM    3  C   UNK N   1       1.425   1.523  -2.831  0.00  0.00     0.081 A 
HETATM    4  C   UNK N   1       0.281   1.116  -2.110  0.00  0.00     0.095 A 
HETATM    5  O   UNK N   1       0.396   0.619  -0.884  0.00  0.00    -0.309 OA
HETATM    6  C   UNK N   1       1.558   0.516  -0.246  0.00  0.00     0.090 A 
HETATM    7  C   UNK N   1       2.740   0.928  -0.885  0.00  0.00     0.094 A 
HETATM    8  C   UNK N   1      -0.991   1.260  -2.663  0.00  0.00     0.075 A 
HETATM    9  C   UNK N   1      -1.148   1.801  -3.950  0.00  0.00     0.077 A 
HETATM   10  C   UNK N   1      -0.018   2.155  -4.690  0.00  0.00     0.074 A 
HETATM   11  C   UNK N   1       1.270   2.031  -4.144  0.00  0.00     0.085 A 
ENDROOT
BRANCH   9  12
HETATM   12  O   UNK N   1      -2.371   2.030  -4.490  0.00  0.00    -0.318 OA
BRANCH  12  13
HETATM   13  C   UNK N   1      -3.532   2.215  -3.761  0.00  0.00     0.298 C 
HETATM   14  O   UNK N   1      -4.113   0.960  -3.440  0.00  0.00    -0.348 OA
HETATM   15  C   UNK N   1      -5.259   1.148  -2.616  0.00  0.00     0.179 C 
HETATM   16  C   UNK N   1      -6.372   1.875  -3.409  0.00  0.00     0.180 C 
HETATM   17  C   UNK N   1      -5.824   3.247  -3.850  0.00  0.00     0.183 C 
HETATM   18  C   UNK N   1      -4.500   3.057  -4.615  0.00  0.00     0.205 C 
BRANCH  15  19
HETATM   19  C   UNK N   1      -5.741  -0.214  -2.099  0.00  0.00     0.198 C 
BRANCH  19  20
HETATM   20  O   UNK N   1      -4.753  -0.820  -1.310  0.00  0.00    -0.398 OA
HETATM   21  H   UNK N   1      -4.048  -1.142  -1.929  0.00  0.00     0.209 HD
ENDBRANCH  19  20
ENDBRANCH  15  19
BRANCH  16  22
HETATM   22  O   UNK N   1      -6.732   1.102  -4.527  0.00  0.00    -0.390 OA
HETATM   23  H   UNK N   1      -7.633   1.405  -4.810  0.00  0.00     0.210 HD
ENDBRANCH  16  22
BRANCH  17  24
HETATM   24  O   UNK N   1      -6.768   3.967  -4.604  0.00  0.00    -0.390 OA
HETATM   25  H   UNK N   1      -6.826   3.550  -5.503  0.00  0.00     0.210 HD
ENDBRANCH  17  24
BRANCH  18  26
HETATM   26  O   UNK N   1      -3.931   4.299  -4.950  0.00  0.00    -0.388 OA
HETATM   27  H   UNK N   1      -3.696   4.763  -4.104  0.00  0.00     0.210 HD
ENDBRANCH  18  26
ENDBRANCH  12  13
ENDBRANCH   9  12
BRANCH  11  28
HETATM   28  O   UNK N   1       2.341   2.415  -4.869  0.00  0.00    -0.360 OA
HETATM   29  H   UNK N   1       2.250   2.774  -5.764  0.00  0.00     0.217 HD
ENDBRANCH  11  28
BRANCH   6  30
HETATM   30  C   UNK N   1       1.551  -0.032   1.135  0.00  0.00    -0.002 A 
HETATM   31  C   UNK N   1       0.486  -0.861   1.533  0.00  0.00     0.017 A 
HETATM   32  C   UNK N   1       0.445  -1.393   2.823  0.00  0.00     0.037 A 
HETATM   33  C   UNK N   1       1.454  -1.084   3.744  0.00  0.00     0.065 A 
HETATM   34  C   UNK N   1       2.509  -0.249   3.363  0.00  0.00     0.037 A 
HETATM   35  C   UNK N   1       2.567   0.267   2.064  0.00  0.00     0.017 A 
BRANCH  33  36
HETATM   36  O   UNK N   1       1.416  -1.583   4.996  0.00  0.00    -0.361 OA
HETATM   37  H   UNK N   1       0.702  -2.167   5.289  0.00  0.00     0.217 HD
ENDBRANCH  33  36
ENDBRANCH   6  30
TORSDOF 10
