REMARK  10 active torsions:
REMARK  status: ('A' for Active; 'I' for Inactive)
REMARK    1  A    between atoms: C_6  and  C_8 
REMARK    2  A    between atoms: C_11  and  O_12 
REMARK    3  A    between atoms: C_17  and  O_18 
REMARK    4  A    between atoms: O_18  and  C_19 
REMARK    5  A    between atoms: C_21  and  C_22 
REMARK    6  A    between atoms: C_22  and  O_24 
REMARK    7  A    between atoms: C_26  and  O_27 
REMARK    8  A    between atoms: C_29  and  O_30 
REMARK    9  A    between atoms: C_32  and  O_33 
REMARK   10  A    between atoms: C_36  and  O_37 
ROOT
HETATM    1  O   UNK N   1       3.485   1.461  -2.650  0.00  0.00    -0.287 OA
HETATM    2  C   UNK N   1       2.554   1.351  -1.878  0.00  0.00     0.190 A 
HETATM    3  C   UNK N   1       1.243   1.779  -2.213  0.00  0.00     0.081 A 
HETATM    4  C   UNK N   1       0.238   1.599  -1.228  0.00  0.00     0.095 A 
HETATM    5  O   UNK N   1       0.527   1.064  -0.045  0.00  0.00    -0.309 OA
HETATM    6  C   UNK N   1       1.740   0.628   0.283  0.00  0.00     0.090 A 
HETATM    7  C   UNK N   1       2.790   0.762  -0.636  0.00  0.00     0.094 A 
HETATM    8  C   UNK N   1      -1.086   1.954  -1.489  0.00  0.00     0.075 A 
HETATM    9  C   UNK N   1      -1.455   2.471  -2.728  0.00  0.00     0.077 A 
HETATM   10  C   UNK N   1      -0.472   2.680  -3.708  0.00  0.00     0.074 A 
HETATM   11  C   UNK N   1       0.870   2.358  -3.471  0.00  0.00     0.085 A 
ENDROOT
BRANCH   9  12
HETATM   12  O   UNK N   1      -2.767   2.744  -2.946  0.00  0.00    -0.318 OA
BRANCH  12  13
HETATM   13  C   UNK N   1      -3.381   2.817  -4.186  0.00  0.00     0.298 C 
HETATM   14  O   UNK N   1      -3.217   1.579  -4.894  0.00  0.00    -0.340 OA
HETATM   15  C   UNK N   1      -4.325   0.704  -4.783  0.00  0.00     0.255 C 
HETATM   16  C   UNK N   1      -5.618   1.344  -5.388  0.00  0.00     0.188 C 
HETATM   17  C   UNK N   1      -5.615   2.885  -5.259  0.00  0.00     0.183 C 
HETATM   18  C   UNK N   1      -4.856   3.282  -3.996  0.00  0.00     0.205 C 
BRANCH  15  19
HETATM   19  C   UNK N   1      -4.445   0.182  -3.360  0.00  0.00     0.290 C 
HETATM   20  O   UNK N   1      -5.486   0.308  -2.729  0.00  0.00    -0.262 OA
BRANCH  19  21
HETATM   21  O   UNK N   1      -3.384  -0.466  -2.811  0.00  0.00    -0.324 OA
HETATM   22  C   UNK N   1      -3.418  -1.059  -1.567  0.00  0.00     0.213 C 
ENDBRANCH  19  21
ENDBRANCH  15  19
BRANCH  16  23
HETATM   23  O   UNK N   1      -5.738   1.029  -6.752  0.00  0.00    -0.390 OA
HETATM   24  H   UNK N   1      -6.025   0.079  -6.805  0.00  0.00     0.210 HD
ENDBRANCH  16  23
BRANCH  17  25
HETATM   25  O   UNK N   1      -6.938   3.354  -5.255  0.00  0.00    -0.390 OA
HETATM   26  H   UNK N   1      -6.899   4.333  -5.413  0.00  0.00     0.210 HD
ENDBRANCH  17  25
BRANCH  18  27
HETATM   27  O   UNK N   1      -4.906   4.675  -3.811  0.00  0.00    -0.388 OA
HETATM   28  H   UNK N   1      -4.382   4.879  -2.994  0.00  0.00     0.210 HD
ENDBRANCH  18  27
ENDBRANCH  12  13
ENDBRANCH   9  12
BRANCH  11  29
HETATM   29  O   UNK N   1       1.742   2.611  -4.476  0.00  0.00    -0.360 OA
HETATM   30  H   UNK N   1       2.695   2.491  -4.452  0.00  0.00     0.217 HD
ENDBRANCH  11  29
BRANCH   6  31
HETATM   31  C   UNK N   1       1.935  -0.003   1.618  0.00  0.00    -0.002 A 
HETATM   32  C   UNK N   1       1.012   0.261   2.648  0.00  0.00     0.017 A 
HETATM   33  C   UNK N   1       1.173  -0.316   3.910  0.00  0.00     0.037 A 
HETATM   34  C   UNK N   1       2.244  -1.186   4.157  0.00  0.00     0.065 A 
HETATM   35  C   UNK N   1       3.155  -1.468   3.137  0.00  0.00     0.037 A 
HETATM   36  C   UNK N   1       3.011  -0.877   1.878  0.00  0.00     0.017 A 
BRANCH  34  37
HETATM   37  O   UNK N   1       2.403  -1.754   5.369  0.00  0.00    -0.361 OA
HETATM   38  H   UNK N   1       1.795  -1.575   6.100  0.00  0.00     0.217 HD
ENDBRANCH  34  37
ENDBRANCH   6  31
TORSDOF 10
