REMARK  11 active torsions:
REMARK  status: ('A' for Active; 'I' for Inactive)
REMARK    1  A    between atoms: C_6  and  C_8 
REMARK    2  A    between atoms: C_11  and  O_12 
REMARK    3  A    between atoms: C_17  and  O_18 
REMARK    4  A    between atoms: O_18  and  C_19 
REMARK    5  A    between atoms: C_21  and  C_22 
REMARK    6  A    between atoms: C_22  and  O_24 
REMARK    7  A    between atoms: O_24  and  C_25 
REMARK    8  A    between atoms: C_27  and  O_28 
REMARK    9  A    between atoms: C_30  and  O_31 
REMARK   10  A    between atoms: C_33  and  O_34 
REMARK   11  A    between atoms: C_37  and  O_38 
ROOT
HETATM    1  O   UNK N   1      -5.572  -0.542  -2.566  0.00  0.00    -0.287 OA
HETATM    2  C   UNK N   1      -4.477  -0.921  -2.187  0.00  0.00     0.190 A 
HETATM    3  C   UNK N   1      -3.310  -0.180  -2.461  0.00  0.00     0.081 A 
HETATM    4  C   UNK N   1      -2.078  -0.690  -1.994  0.00  0.00     0.095 A 
HETATM    5  O   UNK N   1      -2.037  -1.820  -1.291  0.00  0.00    -0.309 OA
HETATM    6  C   UNK N   1      -3.119  -2.551  -1.022  0.00  0.00     0.090 A 
HETATM    7  C   UNK N   1      -4.377  -2.118  -1.478  0.00  0.00     0.094 A 
HETATM    8  C   UNK N   1      -0.881  -0.029  -2.294  0.00  0.00     0.075 A 
HETATM    9  C   UNK N   1      -0.895   1.156  -3.056  0.00  0.00     0.077 A 
HETATM   10  C   UNK N   1      -2.117   1.688  -3.474  0.00  0.00     0.074 A 
HETATM   11  C   UNK N   1      -3.325   1.032  -3.192  0.00  0.00     0.085 A 
ENDROOT
BRANCH   9  12
HETATM   12  O   UNK N   1       0.245   1.789  -3.441  0.00  0.00    -0.318 OA
BRANCH  12  13
HETATM   13  C   UNK N   1       1.503   1.211  -3.476  0.00  0.00     0.298 C 
HETATM   14  O   UNK N   1       2.087   1.232  -2.183  0.00  0.00    -0.340 OA
HETATM   15  C   UNK N   1       3.309   0.505  -2.191  0.00  0.00     0.255 C 
HETATM   16  C   UNK N   1       4.343   1.226  -3.096  0.00  0.00     0.188 C 
HETATM   17  C   UNK N   1       3.767   1.330  -4.521  0.00  0.00     0.183 C 
HETATM   18  C   UNK N   1       2.382   1.998  -4.463  0.00  0.00     0.205 C 
BRANCH  15  19
HETATM   19  C   UNK N   1       3.793   0.371  -0.768  0.00  0.00     0.290 C 
HETATM   20  O   UNK N   1       4.949   0.647  -0.472  0.00  0.00    -0.262 OA
BRANCH  19  21
HETATM   21  O   UNK N   1       2.909  -0.001   0.192  0.00  0.00    -0.320 OA
BRANCH  21  22
HETATM   22  C   UNK N   1       3.247  -0.131   1.524  0.00  0.00     0.174 C 
HETATM   23  C   UNK N   1       1.980  -0.278   2.351  0.00  0.00     0.034 C 
ENDBRANCH  21  22
ENDBRANCH  19  21
ENDBRANCH  15  19
BRANCH  16  24
HETATM   24  O   UNK N   1       4.586   2.513  -2.580  0.00  0.00    -0.390 OA
HETATM   25  H   UNK N   1       5.437   2.831  -2.979  0.00  0.00     0.210 HD
ENDBRANCH  16  24
BRANCH  17  26
HETATM   26  O   UNK N   1       4.619   2.073  -5.354  0.00  0.00    -0.390 OA
HETATM   27  H   UNK N   1       5.425   1.515  -5.510  0.00  0.00     0.210 HD
ENDBRANCH  17  26
BRANCH  18  28
HETATM   28  O   UNK N   1       1.783   1.986  -5.734  0.00  0.00    -0.388 OA
HETATM   29  H   UNK N   1       2.201   2.720  -6.255  0.00  0.00     0.210 HD
ENDBRANCH  18  28
ENDBRANCH  12  13
ENDBRANCH   9  12
BRANCH  11  30
HETATM   30  O   UNK N   1      -4.487   1.555  -3.638  0.00  0.00    -0.360 OA
HETATM   31  H   UNK N   1      -4.517   2.379  -4.145  0.00  0.00     0.217 HD
ENDBRANCH  11  30
BRANCH   6  32
HETATM   32  C   UNK N   1      -2.952  -3.810  -0.244  0.00  0.00    -0.002 A 
HETATM   33  C   UNK N   1      -1.797  -3.985   0.541  0.00  0.00     0.017 A 
HETATM   34  C   UNK N   1      -1.614  -5.152   1.288  0.00  0.00     0.037 A 
HETATM   35  C   UNK N   1      -2.573  -6.173   1.246  0.00  0.00     0.065 A 
HETATM   36  C   UNK N   1      -3.716  -6.017   0.459  0.00  0.00     0.037 A 
HETATM   37  C   UNK N   1      -3.914  -4.843  -0.275  0.00  0.00     0.017 A 
BRANCH  35  38
HETATM   38  O   UNK N   1      -2.402  -7.307   1.956  0.00  0.00    -0.361 OA
HETATM   39  H   UNK N   1      -1.624  -7.445   2.515  0.00  0.00     0.217 HD
ENDBRANCH  35  38
ENDBRANCH   6  32
TORSDOF 11
