REMARK  8 active torsions:
REMARK  status: ('A' for Active; 'I' for Inactive)
REMARK    1  A    between atoms: C_5  and  C_18 
REMARK    2  A    between atoms: C_6  and  C_7 
REMARK    3  A    between atoms: C_7  and  C_8 
REMARK    4  A    between atoms: C_10  and  O_11 
REMARK    5  A    between atoms: C_13  and  O_14 
REMARK    6  A    between atoms: C_18  and  C_19 
REMARK    7  A    between atoms: C_21  and  O_22 
REMARK    8  A    between atoms: C_24  and  O_25 
ROOT
HETATM    1  O   UNK N   1       3.502   1.339  -2.108  0.00  0.00    -0.265 OA
HETATM    2  C   UNK N   1       2.286   1.289  -2.017  0.00  0.00     0.263 C 
HETATM    3  O   UNK N   1       1.539   0.546  -2.847  0.00  0.00    -0.321 OA
HETATM    4  C   UNK N   1       0.212   0.899  -2.769  0.00  0.00     0.184 C 
HETATM    5  C   UNK N   1       0.097   1.536  -1.374  0.00  0.00     0.028 C 
HETATM    6  C   UNK N   1       1.477   2.202  -1.168  0.00  0.00     0.096 C 
ENDROOT
BRANCH   5   7
HETATM    7  C   UNK N   1      -1.103   2.469  -1.141  0.00  0.00     0.046 C 
BRANCH   7   8
HETATM    8  C   UNK N   1      -2.414   1.762  -1.357  0.00  0.00    -0.055 A 
HETATM    9  C   UNK N   1      -2.984   1.725  -2.637  0.00  0.00     0.046 A 
HETATM   10  C   UNK N   1      -4.209   1.066  -2.859  0.00  0.00     0.102 A 
HETATM   11  C   UNK N   1      -4.855   0.438  -1.781  0.00  0.00     0.101 A 
HETATM   12  C   UNK N   1      -4.289   0.483  -0.500  0.00  0.00     0.040 A 
HETATM   13  C   UNK N   1      -3.076   1.141  -0.287  0.00  0.00     0.010 A 
BRANCH  10  14
HETATM   14  O   UNK N   1      -4.785   1.019  -4.092  0.00  0.00    -0.353 OA
HETATM   15  C   UNK N   1      -4.257   1.599  -5.229  0.00  0.00     0.210 C 
ENDBRANCH  10  14
BRANCH  11  16
HETATM   16  O   UNK N   1      -6.023  -0.211  -1.971  0.00  0.00    -0.353 OA
HETATM   17  C   UNK N   1      -6.050  -1.554  -2.278  0.00  0.00     0.210 C 
ENDBRANCH  11  16
ENDBRANCH   7   8
ENDBRANCH   5   7
BRANCH   6  18
HETATM   18  C   UNK N   1       1.910   2.318   0.313  0.00  0.00     0.053 C 
BRANCH  18  19
HETATM   19  C   UNK N   1       1.970   0.987   1.026  0.00  0.00    -0.055 A 
HETATM   20  C   UNK N   1       3.115   0.185   0.921  0.00  0.00     0.046 A 
HETATM   21  C   UNK N   1       3.174  -1.069   1.562  0.00  0.00     0.101 A 
HETATM   22  C   UNK N   1       2.063  -1.513   2.308  0.00  0.00     0.099 A 
HETATM   23  C   UNK N   1       0.923  -0.706   2.410  0.00  0.00     0.040 A 
HETATM   24  C   UNK N   1       0.879   0.538   1.782  0.00  0.00     0.010 A 
BRANCH  21  25
HETATM   25  O   UNK N   1       4.277  -1.864   1.478  0.00  0.00    -0.353 OA
HETATM   26  C   UNK N   1       5.428  -1.551   0.782  0.00  0.00     0.210 C 
ENDBRANCH  21  25
BRANCH  22  27
HETATM   27  O   UNK N   1       2.075  -2.710   2.931  0.00  0.00    -0.358 OA
HETATM   28  H   UNK N   1       2.837  -3.305   2.897  0.00  0.00     0.218 HD
ENDBRANCH  22  27
ENDBRANCH  18  19
ENDBRANCH   6  18
TORSDOF 8
