REMARK  5 active torsions:
REMARK  status: ('A' for Active; 'I' for Inactive)
REMARK    1  A    between atoms: C_7  and  C_8 
REMARK    2  A    between atoms: C_8  and  C_9 
REMARK    3  A    between atoms: C_9  and  O_11 
REMARK    4  A    between atoms: C_17  and  C_18 
REMARK    5  A    between atoms: C_18  and  O_20 
ROOT
HETATM    1  O   UNK N   1      -1.502  -2.020   1.515  0.00  0.00    -0.265 OA
HETATM    2  C   UNK N   1      -1.805  -0.847   1.691  0.00  0.00     0.264 C 
HETATM    3  O   UNK N   1      -0.860   0.067   1.953  0.00  0.00    -0.277 OA
HETATM    4  C   UNK N   1       0.270   0.082   1.228  0.00  0.00     0.105 A 
HETATM    5  C   UNK N   1       0.286   0.603  -0.090  0.00  0.00     0.063 A 
HETATM    6  N   UNK N   1      -0.878   1.116  -0.760  0.00  0.00    -0.383 N 
HETATM    7  C   UNK N   1      -2.169   0.411  -0.872  0.00  0.00     0.092 C 
HETATM    8  C   UNK N   1      -3.125   0.734   0.318  0.00  0.00     0.035 C 
HETATM    9  C   UNK N   1      -3.177  -0.377   1.384  0.00  0.00     0.113 C 
HETATM   10  H   UNK N   1      -0.675   1.781  -1.524  0.00  0.00     0.160 HD
HETATM   11  C   UNK N   1       1.513   0.658  -0.775  0.00  0.00     0.050 A 
HETATM   12  C   UNK N   1       2.693   0.142  -0.208  0.00  0.00     0.040 A 
HETATM   13  C   UNK N   1       2.646  -0.384   1.094  0.00  0.00     0.021 A 
HETATM   14  C   UNK N   1       1.449  -0.394   1.808  0.00  0.00     0.041 A 
ENDROOT
BRANCH   7  15
HETATM   15  C   UNK N   1      -2.817   0.805  -2.224  0.00  0.00     0.135 C 
BRANCH  15  16
HETATM   16  C   UNK N   1      -4.075   0.038  -2.526  0.00  0.00     0.141 C 
HETATM   17  O   UNK N   1      -4.050  -1.182  -2.593  0.00  0.00    -0.650 OA
BRANCH  16  18
HETATM   18  O   UNK N   1      -5.229   0.703  -2.748  0.00  0.00    -0.776 OA
HETATM   19  H   UNK N   1      -6.044   0.231  -2.968  0.00  0.00     0.167 HD
ENDBRANCH  16  18
ENDBRANCH  15  16
ENDBRANCH   7  15
BRANCH  12  20
HETATM   20  C   UNK N   1       3.958   0.158  -1.002  0.00  0.00     0.176 C 
HETATM   21  O   UNK N   1       4.016   0.806  -2.035  0.00  0.00    -0.646 OA
BRANCH  20  22
HETATM   22  O   UNK N   1       5.039  -0.570  -0.635  0.00  0.00    -0.773 OA
HETATM   23  H   UNK N   1       5.026  -1.204   0.092  0.00  0.00     0.167 HD
ENDBRANCH  20  22
ENDBRANCH  12  20
TORSDOF 5
