REMARK  4 active torsions:
REMARK  status: ('A' for Active; 'I' for Inactive)
REMARK    1  A    between atoms: C_8  and  C_9 
REMARK    2  A    between atoms: C_9  and  C_10 
REMARK       I    between atoms: N_17  and  C_19 
REMARK    3  A    between atoms: C_19  and  O_21 
REMARK    4  A    between atoms: O_21  and  C_22 
ROOT
HETATM    1  C   UNK N   1       0.579  -0.062  -2.091  0.00  0.00    -0.027 A 
HETATM    2  C   UNK N   1       0.912  -0.051  -0.748  0.00  0.00    -0.001 A 
HETATM    3  C   UNK N   1       2.207   0.394  -0.653  0.00  0.00     0.054 A 
HETATM    4  C   UNK N   1       2.835   0.520   0.596  0.00  0.00     0.031 A 
HETATM    5  C   UNK N   1       2.101   0.180   1.748  0.00  0.00     0.002 A 
HETATM    6  C   UNK N   1       0.771  -0.275   1.640  0.00  0.00     0.001 A 
HETATM    7  C   UNK N   1       0.164  -0.393   0.380  0.00  0.00     0.014 A 
HETATM    8  N   UNK N   1       2.694   0.656  -1.895  0.00  0.00    -0.268 N 
HETATM    9  C   UNK N   1       1.698   0.382  -2.772  0.00  0.00     0.110 A 
HETATM   10  C   UNK N   1       3.939   1.108  -2.264  0.00  0.00     0.372 C 
HETATM   11  O   UNK N   1       4.792   1.332  -1.422  0.00  0.00    -0.238 OA
ENDROOT
BRANCH   1  12
HETATM   12  C   UNK N   1      -0.731  -0.492  -2.680  0.00  0.00     0.075 C 
BRANCH  12  13
HETATM   13  C   UNK N   1      -1.706   0.684  -2.878  0.00  0.00     0.181 C 
HETATM   14  C   UNK N   1      -1.461   1.568  -4.095  0.00  0.00     0.243 C 
HETATM   15  O   UNK N   1      -0.480   1.429  -4.811  0.00  0.00    -0.271 OA
HETATM   16  N   UNK N   1      -2.442   2.465  -4.412  0.00  0.00    -0.337 N 
HETATM   17  C   UNK N   1      -3.652   2.527  -3.622  0.00  0.00     0.179 C 
HETATM   18  C   UNK N   1      -2.473   3.293  -5.591  0.00  0.00     0.127 C 
HETATM   19  C   UNK N   1      -4.065   1.104  -3.287  0.00  0.00     0.241 C 
HETATM   20  C   UNK N   1      -4.624   3.259  -4.556  0.00  0.00     0.037 C 
HETATM   21  O   UNK N   1      -5.221   0.730  -3.411  0.00  0.00    -0.271 OA
HETATM   22  N   UNK N   1      -3.083   0.213  -2.971  0.00  0.00    -0.346 N 
HETATM   23  H   UNK N   1      -3.313  -0.784  -2.840  0.00  0.00     0.163 HD
HETATM   24  C   UNK N   1      -3.687   4.189  -5.317  0.00  0.00     0.022 C 
ENDBRANCH  12  13
ENDBRANCH   1  12
BRANCH  10  25
HETATM   25  O   UNK N   1       4.201   1.302  -3.589  0.00  0.00    -0.293 OA
BRANCH  25  26
HETATM   26  C   UNK N   1       5.373   1.786  -4.156  0.00  0.00     0.061 C 
HETATM   27  C   UNK N   1       5.665   3.211  -3.646  0.00  0.00     0.046 C 
HETATM   28  C   UNK N   1       5.154   1.842  -5.676  0.00  0.00     0.046 C 
HETATM   29  C   UNK N   1       6.553   0.836  -3.862  0.00  0.00     0.046 C 
ENDBRANCH  25  26
ENDBRANCH  10  25
TORSDOF 4
