REMARK  8 active torsions:
REMARK  status: ('A' for Active; 'I' for Inactive)
REMARK       I    between atoms: N_7  and  C_31 
REMARK    1  A    between atoms: C_8  and  C_9 
REMARK    2  A    between atoms: C_9  and  C_10 
REMARK       I    between atoms: N_17  and  C_24 
REMARK    3  A    between atoms: C_18  and  C_19 
REMARK    4  A    between atoms: C_19  and  C_20 
REMARK    5  A    between atoms: C_24  and  O_26 
REMARK    6  A    between atoms: O_26  and  C_27 
REMARK    7  A    between atoms: C_31  and  O_33 
REMARK    8  A    between atoms: O_33  and  C_34 
ROOT
HETATM    1  C   UNK N   1       0.645   1.545  -1.736  0.00  0.00    -0.020 A 
HETATM    2  C   UNK N   1       0.890   2.593  -2.610  0.00  0.00    -0.000 A 
HETATM    3  C   UNK N   1       2.253   2.693  -2.766  0.00  0.00     0.055 A 
HETATM    4  C   UNK N   1       2.804   3.684  -3.604  0.00  0.00     0.031 A 
HETATM    5  C   UNK N   1       1.935   4.559  -4.274  0.00  0.00     0.002 A 
HETATM    6  C   UNK N   1       0.545   4.458  -4.095  0.00  0.00     0.001 A 
HETATM    7  C   UNK N   1       0.011   3.474  -3.254  0.00  0.00     0.014 A 
HETATM    8  N   UNK N   1       2.890   1.775  -1.983  0.00  0.00    -0.260 N 
HETATM    9  C   UNK N   1       1.902   1.055  -1.357  0.00  0.00     0.033 A 
HETATM   10  C   UNK N   1       4.263   1.647  -1.817  0.00  0.00     0.372 C 
HETATM   11  O   UNK N   1       5.026   2.268  -2.537  0.00  0.00    -0.238 OA
ENDROOT
BRANCH   1  12
HETATM   12  C   UNK N   1      -0.719   1.080  -1.270  0.00  0.00     0.077 C 
BRANCH  12  13
HETATM   13  C   UNK N   1      -1.668   0.605  -2.415  0.00  0.00     0.194 C 
HETATM   14  C   UNK N   1      -1.257  -0.680  -3.117  0.00  0.00     0.244 C 
HETATM   15  O   UNK N   1      -0.297  -1.345  -2.757  0.00  0.00    -0.271 OA
HETATM   16  N   UNK N   1      -2.070  -1.100  -4.130  0.00  0.00    -0.337 N 
HETATM   17  C   UNK N   1      -3.235  -0.321  -4.479  0.00  0.00     0.180 C 
HETATM   18  C   UNK N   1      -1.962  -2.345  -4.845  0.00  0.00     0.127 C 
HETATM   19  C   UNK N   1      -3.917   0.060  -3.175  0.00  0.00     0.252 C 
HETATM   20  C   UNK N   1      -4.043  -1.291  -5.353  0.00  0.00     0.037 C 
HETATM   21  O   UNK N   1      -5.125  -0.102  -3.054  0.00  0.00    -0.271 OA
HETATM   22  N   UNK N   1      -3.118   0.444  -2.106  0.00  0.00    -0.248 N 
HETATM   23  C   UNK N   1      -3.656   0.569  -0.836  0.00  0.00     0.371 C 
HETATM   24  O   UNK N   1      -2.952   0.846   0.119  0.00  0.00    -0.238 OA
HETATM   25  C   UNK N   1      -2.943  -2.123  -6.002  0.00  0.00     0.022 C 
BRANCH  23  26
HETATM   26  O   UNK N   1      -4.975   0.289  -0.627  0.00  0.00    -0.293 OA
BRANCH  26  27
HETATM   27  C   UNK N   1      -5.600   0.027   0.586  0.00  0.00     0.061 C 
HETATM   28  C   UNK N   1      -4.943  -1.194   1.265  0.00  0.00     0.046 C 
HETATM   29  C   UNK N   1      -5.563   1.255   1.517  0.00  0.00     0.046 C 
HETATM   30  C   UNK N   1      -7.064  -0.315   0.274  0.00  0.00     0.046 C 
ENDBRANCH  26  27
ENDBRANCH  23  26
ENDBRANCH  12  13
ENDBRANCH   1  12
BRANCH   9  31
HETATM   31  C   UNK N   1       2.117  -0.154  -0.468  0.00  0.00     0.085 C 
BRANCH  31  32
HETATM   32  C   UNK N   1       2.190   0.207   0.997  0.00  0.00    -0.019 C 
HETATM   33  C   UNK N   1       1.414  -0.303   1.989  0.00  0.00    -0.091 C 
HETATM   34  C   UNK N   1       0.306  -1.314   1.779  0.00  0.00     0.042 C 
HETATM   35  C   UNK N   1       1.661   0.136   3.410  0.00  0.00     0.042 C 
ENDBRANCH  31  32
ENDBRANCH   9  31
BRANCH  10  36
HETATM   36  O   UNK N   1       4.762   0.923  -0.776  0.00  0.00    -0.293 OA
BRANCH  36  37
HETATM   37  C   UNK N   1       6.098   0.735  -0.424  0.00  0.00     0.061 C 
HETATM   38  C   UNK N   1       6.769  -0.215  -1.427  0.00  0.00     0.046 C 
HETATM   39  C   UNK N   1       6.881   2.069  -0.334  0.00  0.00     0.046 C 
HETATM   40  C   UNK N   1       6.111   0.094   0.974  0.00  0.00     0.046 C 
ENDBRANCH  36  37
ENDBRANCH  10  36
TORSDOF 8
