REMARK  7 active torsions:
REMARK  status: ('A' for Active; 'I' for Inactive)
REMARK    1  A    between atoms: C_8  and  O_10 
REMARK    2  A    between atoms: O_10  and  C_11 
REMARK    3  A    between atoms: C_11  and  C_12 
REMARK    4  A    between atoms: C_15  and  O_16 
REMARK    5  A    between atoms: C_18  and  O_19 
REMARK    6  A    between atoms: C_23  and  O_24 
REMARK    7  A    between atoms: O_24  and  C_25 
ROOT
HETATM    1  C   UNK N   1      -0.548   3.600   2.438  0.00  0.00     0.049 C 
HETATM    2  C   UNK N   1      -1.020   3.132   3.806  0.00  0.00    -0.051 C 
HETATM    3  C   UNK N   1      -1.604   4.003   4.652  0.00  0.00     0.017 C 
HETATM    4  C   UNK N   1      -0.775   1.681   4.182  0.00  0.00     0.176 C 
HETATM    5  C   UNK N   1       0.722   1.311   3.973  0.00  0.00     0.156 C 
HETATM    6  C   UNK N   1       1.294   1.755   2.569  0.00  0.00     0.036 C 
HETATM    7  C   UNK N   1       2.789   1.284   2.245  0.00  0.00    -0.014 C 
HETATM    8  C   UNK N   1       3.210   1.824   0.835  0.00  0.00     0.140 C 
HETATM    9  C   UNK N   1       3.000   3.345   0.690  0.00  0.00     0.034 C 
HETATM   10  C   UNK N   1       1.520   3.705   0.905  0.00  0.00     0.013 C 
HETATM   11  C   UNK N   1       1.004   3.308   2.320  0.00  0.00    -0.028 C 
HETATM   12  C   UNK N   1       1.676   4.262   3.366  0.00  0.00     0.016 C 
HETATM   13  C   UNK N   1       3.840   1.701   3.307  0.00  0.00     0.018 C 
HETATM   14  C   UNK N   1       2.884  -0.270   2.169  0.00  0.00     0.018 C 
ENDROOT
BRANCH   1  15
HETATM   15  C   UNK N   1      -1.474   3.042   1.325  0.00  0.00     0.185 C 
BRANCH  15  16
HETATM   16  O   UNK N   1      -1.459   1.666   1.272  0.00  0.00    -0.350 OA
BRANCH  16  17
HETATM   17  C   UNK N   1      -2.174   0.896   0.419  0.00  0.00     0.071 A 
HETATM   18  C   UNK N   1      -2.089  -0.497   0.545  0.00  0.00     0.038 A 
HETATM   19  C   UNK N   1      -2.807  -1.332  -0.314  0.00  0.00     0.017 A 
HETATM   20  C   UNK N   1      -3.616  -0.776  -1.313  0.00  0.00    -0.002 A 
HETATM   21  C   UNK N   1      -3.707   0.627  -1.446  0.00  0.00     0.092 A 
HETATM   22  C   UNK N   1      -4.344  -1.578  -2.194  0.00  0.00     0.020 A 
HETATM   23  O   UNK N   1      -4.471   1.164  -2.392  0.00  0.00    -0.275 OA
HETATM   24  C   UNK N   1      -2.991   1.455  -0.582  0.00  0.00     0.075 A 
HETATM   25  C   UNK N   1      -5.174   0.425  -3.247  0.00  0.00     0.288 A 
HETATM   26  O   UNK N   1      -5.855   0.968  -4.095  0.00  0.00    -0.260 OA
HETATM   27  C   UNK N   1      -5.130  -0.973  -3.172  0.00  0.00     0.083 A 
ENDBRANCH  16  17
ENDBRANCH  15  16
ENDBRANCH   1  15
BRANCH   4  28
HETATM   28  O   UNK N   1      -1.153   1.425   5.514  0.00  0.00    -0.389 OA
HETATM   29  H   UNK N   1      -1.142   0.441   5.643  0.00  0.00     0.210 HD
ENDBRANCH   4  28
BRANCH   5  30
HETATM   30  O   UNK N   1       0.858  -0.069   4.185  0.00  0.00    -0.392 OA
HETATM   31  H   UNK N   1       0.334  -0.531   3.477  0.00  0.00     0.210 HD
ENDBRANCH   5  30
BRANCH   8  32
HETATM   32  O   UNK N   1       2.495   1.164  -0.157  0.00  0.00    -0.316 OA
BRANCH  32  33
HETATM   33  C   UNK N   1       2.927   1.009  -1.437  0.00  0.00     0.255 C 
HETATM   34  O   UNK N   1       4.010   1.454  -1.793  0.00  0.00    -0.266 OA
HETATM   35  C   UNK N   1       2.076   0.263  -2.411  0.00  0.00     0.126 C 
ENDBRANCH  32  33
ENDBRANCH   8  32
TORSDOF 7
