REMARK  5 active torsions:
REMARK  status: ('A' for Active; 'I' for Inactive)
REMARK    1  A    between atoms: C_8  and  O_10 
REMARK    2  A    between atoms: O_10  and  C_11 
REMARK    3  A    between atoms: C_11  and  C_12 
REMARK    4  A    between atoms: C_15  and  O_16 
REMARK    5  A    between atoms: C_22  and  O_23 
ROOT
HETATM    1  C   UNK N   1       1.437  -1.022   0.022  0.00  0.00     0.047 C 
HETATM    2  C   UNK N   1       1.868   0.265   0.850  0.00  0.00    -0.028 C 
HETATM    3  C   UNK N   1       2.678   1.297  -0.073  0.00  0.00     0.034 C 
HETATM    4  C   UNK N   1       3.909   0.571  -0.744  0.00  0.00     0.127 C 
HETATM    5  C   UNK N   1       3.482  -0.692  -1.526  0.00  0.00     0.065 C 
HETATM    6  C   UNK N   1       2.664  -1.599  -0.652  0.00  0.00    -0.080 C 
HETATM    7  C   UNK N   1       3.026  -2.877  -0.454  0.00  0.00     0.015 C 
HETATM    8  C   UNK N   1       2.971   2.728   0.588  0.00  0.00    -0.015 C 
HETATM    9  C   UNK N   1       1.639   3.280   1.205  0.00  0.00     0.126 C 
HETATM   10  C   UNK N   1       0.949   2.284   2.155  0.00  0.00     0.033 C 
HETATM   11  C   UNK N   1       0.610   0.984   1.412  0.00  0.00     0.013 C 
HETATM   12  C   UNK N   1       4.114   2.729   1.638  0.00  0.00     0.018 C 
HETATM   13  C   UNK N   1       3.401   3.759  -0.500  0.00  0.00     0.018 C 
HETATM   14  C   UNK N   1       2.697  -0.290   2.053  0.00  0.00     0.016 C 
ENDROOT
BRANCH   1  15
HETATM   15  C   UNK N   1       0.281  -0.864  -0.997  0.00  0.00     0.185 C 
BRANCH  15  16
HETATM   16  O   UNK N   1       0.518   0.146  -1.903  0.00  0.00    -0.350 OA
BRANCH  16  17
HETATM   17  C   UNK N   1      -0.449   0.873  -2.511  0.00  0.00     0.071 A 
HETATM   18  C   UNK N   1      -0.130   2.159  -2.962  0.00  0.00     0.038 A 
HETATM   19  C   UNK N   1      -1.106   2.969  -3.544  0.00  0.00     0.017 A 
HETATM   20  C   UNK N   1      -2.413   2.490  -3.694  0.00  0.00    -0.002 A 
HETATM   21  C   UNK N   1      -2.740   1.185  -3.265  0.00  0.00     0.092 A 
HETATM   22  C   UNK N   1      -3.415   3.279  -4.261  0.00  0.00     0.020 A 
HETATM   23  O   UNK N   1      -3.978   0.722  -3.412  0.00  0.00    -0.275 OA
HETATM   24  C   UNK N   1      -1.761   0.384  -2.674  0.00  0.00     0.075 A 
HETATM   25  C   UNK N   1      -4.953   1.450  -3.955  0.00  0.00     0.288 A 
HETATM   26  O   UNK N   1      -6.068   0.978  -4.067  0.00  0.00    -0.260 OA
HETATM   27  C   UNK N   1      -4.699   2.756  -4.392  0.00  0.00     0.083 A 
ENDBRANCH  16  17
ENDBRANCH  15  16
ENDBRANCH   1  15
BRANCH   4  28
HETATM   28  O   UNK N   1       4.619   1.400  -1.625  0.00  0.00    -0.395 OA
HETATM   29  H   UNK N   1       3.998   1.669  -2.352  0.00  0.00     0.210 HD
ENDBRANCH   4  28
BRANCH   9  30
HETATM   30  O   UNK N   1       1.881   4.491   1.881  0.00  0.00    -0.395 OA
HETATM   31  H   UNK N   1       0.999   4.879   2.121  0.00  0.00     0.210 HD
ENDBRANCH   9  30
TORSDOF 5
