REMARK  10 active torsions:
REMARK  status: ('A' for Active; 'I' for Inactive)
REMARK    1  A    between atoms: C_5  and  O_6 
REMARK    2  A    between atoms: C_9  and  C_28 
REMARK    3  A    between atoms: C_11  and  O_12 
REMARK    4  A    between atoms: O_12  and  C_13 
REMARK    5  A    between atoms: C_15  and  C_25 
REMARK    6  A    between atoms: C_16  and  O_17 
REMARK    7  A    between atoms: C_19  and  O_20 
REMARK    8  A    between atoms: C_22  and  O_23 
REMARK    9  A    between atoms: C_25  and  O_26 
REMARK   10  A    between atoms: C_28  and  O_29 
ROOT
HETATM    1  C   UNK N   1      -1.952   2.047  -0.977  0.00  0.00     0.294 C 
HETATM    2  O   UNK N   1      -2.190   0.671  -1.248  0.00  0.00    -0.348 OA
HETATM    3  C   UNK N   1      -3.534   0.465  -1.662  0.00  0.00     0.179 C 
HETATM    4  C   UNK N   1      -3.770   1.156  -3.030  0.00  0.00     0.180 C 
HETATM    5  C   UNK N   1      -3.469   2.658  -2.877  0.00  0.00     0.183 C 
HETATM    6  C   UNK N   1      -2.065   2.855  -2.286  0.00  0.00     0.204 C 
ENDROOT
BRANCH   1   7
HETATM    7  O   UNK N   1      -0.640   2.227  -0.480  0.00  0.00    -0.328 OA
BRANCH   7   8
HETATM    8  C   UNK N   1      -0.448   1.601   0.775  0.00  0.00     0.277 C 
HETATM    9  O   UNK N   1      -1.321   2.101   1.733  0.00  0.00    -0.332 OA
HETATM   10  C   UNK N   1      -1.189   1.790   3.054  0.00  0.00     0.134 C 
HETATM   11  C   UNK N   1      -0.010   1.367   3.549  0.00  0.00     0.006 C 
HETATM   12  C   UNK N   1       1.205   1.282   2.655  0.00  0.00     0.055 C 
HETATM   13  C   UNK N   1       1.763  -0.134   2.447  0.00  0.00     0.149 C 
HETATM   14  C   UNK N   1       0.990   1.866   1.248  0.00  0.00     0.083 C 
HETATM   15  C   UNK N   1       2.414   0.008   1.107  0.00  0.00     0.010 C 
HETATM   16  C   UNK N   1       1.990   1.086   0.455  0.00  0.00    -0.048 C 
BRANCH  13  17
HETATM   17  O   UNK N   1       2.678  -0.442   3.464  0.00  0.00    -0.391 OA
HETATM   18  H   UNK N   1       3.048  -1.338   3.252  0.00  0.00     0.210 HD
ENDBRANCH  13  17
BRANCH  16  19
HETATM   19  C   UNK N   1       2.387   1.405  -0.962  0.00  0.00     0.198 C 
BRANCH  19  20
HETATM   20  O   UNK N   1       3.782   1.469  -1.089  0.00  0.00    -0.397 OA
HETATM   21  H   UNK N   1       4.083   2.263  -0.576  0.00  0.00     0.209 HD
ENDBRANCH  19  20
ENDBRANCH  16  19
ENDBRANCH   7   8
ENDBRANCH   1   7
BRANCH   6  22
HETATM   22  O   UNK N   1      -1.851   4.221  -2.043  0.00  0.00    -0.388 OA
HETATM   23  H   UNK N   1      -0.870   4.354  -1.981  0.00  0.00     0.210 HD
ENDBRANCH   6  22
BRANCH   3  24
HETATM   24  C   UNK N   1      -3.782  -1.050  -1.730  0.00  0.00     0.198 C 
BRANCH  24  25
HETATM   25  O   UNK N   1      -5.129  -1.332  -2.009  0.00  0.00    -0.398 OA
HETATM   26  H   UNK N   1      -5.185  -1.590  -2.965  0.00  0.00     0.209 HD
ENDBRANCH  24  25
ENDBRANCH   3  24
BRANCH   5  27
HETATM   27  O   UNK N   1      -3.603   3.336  -4.102  0.00  0.00    -0.390 OA
HETATM   28  H   UNK N   1      -2.947   2.943  -4.737  0.00  0.00     0.210 HD
ENDBRANCH   5  27
BRANCH   4  29
HETATM   29  O   UNK N   1      -5.099   0.984  -3.449  0.00  0.00    -0.390 OA
HETATM   30  H   UNK N   1      -5.107   1.095  -4.435  0.00  0.00     0.210 HD
ENDBRANCH   4  29
TORSDOF 10
