REMARK  9 active torsions:
REMARK  status: ('A' for Active; 'I' for Inactive)
REMARK    1  A    between atoms: C_2  and  C_4 
REMARK    2  A    between atoms: C_7  and  C_8 
REMARK    3  A    between atoms: C_12  and  C_14 
REMARK    4  A    between atoms: C_15  and  N_16 
REMARK    5  A    between atoms: N_16  and  C_17 
REMARK    6  A    between atoms: C_17  and  C_18 
REMARK    7  A    between atoms: C_18  and  C_19 
REMARK    8  A    between atoms: C_21  and  O_22 
REMARK    9  A    between atoms: C_24  and  O_25 
ROOT
HETATM    1  C   UNK N   1      -2.289  -1.441  -1.732  0.00  0.00     0.024 C 
HETATM    2  C   UNK N   1      -2.053  -1.849  -0.474  0.00  0.00     0.083 C 
ENDROOT
BRANCH   2   3
HETATM    3  N   UNK N   1      -0.844  -2.539  -0.174  0.00  0.00    -0.398 N 
HETATM    4  H   UNK N   1      -0.244  -2.875  -0.942  0.00  0.00     0.158 HD
BRANCH   3   5
HETATM    5  C   UNK N   1      -0.414  -2.765   1.190  0.00  0.00     0.123 C 
BRANCH   5   6
HETATM    6  C   UNK N   1      -0.068  -1.442   1.890  0.00  0.00     0.058 C 
BRANCH   6   7
HETATM    7  C   UNK N   1       1.020  -0.689   1.154  0.00  0.00    -0.054 A 
HETATM    8  C   UNK N   1       0.683   0.226   0.145  0.00  0.00     0.046 A 
HETATM    9  C   UNK N   1       1.686   0.933  -0.552  0.00  0.00     0.101 A 
HETATM   10  C   UNK N   1       3.038   0.711  -0.220  0.00  0.00     0.099 A 
HETATM   11  C   UNK N   1       3.370  -0.203   0.787  0.00  0.00     0.040 A 
HETATM   12  C   UNK N   1       2.370  -0.900   1.470  0.00  0.00     0.010 A 
BRANCH   9  13
HETATM   13  O   UNK N   1       1.384   1.823  -1.536  0.00  0.00    -0.353 OA
HETATM   14  C   UNK N   1       0.110   2.129  -1.971  0.00  0.00     0.210 C 
ENDBRANCH   9  13
BRANCH  10  15
HETATM   15  O   UNK N   1       4.030   1.369  -0.860  0.00  0.00    -0.358 OA
HETATM   16  H   UNK N   1       3.857   2.014  -1.560  0.00  0.00     0.218 HD
ENDBRANCH  10  15
ENDBRANCH   6   7
ENDBRANCH   5   6
ENDBRANCH   3   5
ENDBRANCH   2   3
BRANCH   1  17
HETATM   17  C   UNK N   1      -3.511  -0.710  -2.168  0.00  0.00    -0.052 C 
HETATM   18  C   UNK N   1      -3.473   0.015  -3.499  0.00  0.00     0.074 C 
HETATM   19  C   UNK N   1      -4.349   1.271  -3.388  0.00  0.00     0.187 C 
HETATM   20  N   UNK N   1      -5.682   0.890  -2.955  0.00  0.00    -0.370 N 
HETATM   21  C   UNK N   1      -5.855   0.017  -2.015  0.00  0.00     0.106 C 
ATOM     22  HN  UNK N   1      -6.495   1.317  -3.399  1.00  0.00     0.160 HD
HETATM   23  C   UNK N   1      -4.676  -0.728  -1.474  0.00  0.00     0.043 C 
BRANCH  19  24
HETATM   24  C   UNK N   1      -4.415   2.035  -4.679  0.00  0.00     0.197 C 
HETATM   25  O   UNK N   1      -4.031   3.193  -4.724  0.00  0.00    -0.646 OA
HETATM   26  O   UNK N   1      -4.897   1.448  -5.792  0.00  0.00    -0.646 OA
ENDBRANCH  19  24
BRANCH  21  27
HETATM   27  C   UNK N   1      -7.216  -0.257  -1.507  0.00  0.00     0.226 C 
HETATM   28  O   UNK N   1      -8.178   0.323  -1.990  0.00  0.00    -0.643 OA
HETATM   29  O   UNK N   1      -7.409  -1.150  -0.519  0.00  0.00    -0.643 OA
ENDBRANCH  21  27
ENDBRANCH   1  17
TORSDOF 9
