REMARK  10 active torsions:
REMARK  status: ('A' for Active; 'I' for Inactive)
REMARK    1  A    between atoms: C_5  and  C_10 
REMARK    2  A    between atoms: C_10  and  C_11 
REMARK    3  A    between atoms: C_11  and  C_12 
REMARK    4  A    between atoms: C_12  and  O_13 
REMARK    5  A    between atoms: O_13  and  C_14 
REMARK    6  A    between atoms: C_16  and  C_26 
REMARK    7  A    between atoms: C_17  and  O_18 
REMARK    8  A    between atoms: C_20  and  O_21 
REMARK    9  A    between atoms: C_23  and  O_24 
REMARK   10  A    between atoms: C_26  and  O_27 
ROOT
HETATM    1  C   UNK N   1      -3.787   1.259  -1.289  0.00  0.00     0.292 C 
HETATM    2  O   UNK N   1      -3.873   0.680   0.007  0.00  0.00    -0.348 OA
HETATM    3  C   UNK N   1      -5.173   0.849   0.548  0.00  0.00     0.179 C 
HETATM    4  C   UNK N   1      -6.178   0.006  -0.272  0.00  0.00     0.180 C 
HETATM    5  C   UNK N   1      -6.139   0.478  -1.739  0.00  0.00     0.183 C 
HETATM    6  C   UNK N   1      -4.694   0.479  -2.267  0.00  0.00     0.204 C 
ENDROOT
BRANCH   1   7
HETATM    7  O   UNK N   1      -2.459   1.157  -1.773  0.00  0.00    -0.354 OA
BRANCH   7   8
HETATM    8  C   UNK N   1      -1.543   1.894  -0.984  0.00  0.00     0.120 C 
HETATM    9  C   UNK N   1      -1.420   3.327  -1.518  0.00  0.00     0.039 C 
BRANCH   8  10
HETATM   10  C   UNK N   1      -0.169   1.214  -1.052  0.00  0.00     0.032 C 
BRANCH  10  11
HETATM   11  C   UNK N   1      -0.188  -0.236  -0.542  0.00  0.00     0.012 C 
BRANCH  11  12
HETATM   12  C   UNK N   1       1.189  -0.967  -0.586  0.00  0.00     0.022 C 
HETATM   13  C   UNK N   1       1.704  -1.076  -2.023  0.00  0.00    -0.075 C 
HETATM   14  C   UNK N   1       2.724  -0.305  -2.460  0.00  0.00     0.053 C 
HETATM   15  C   UNK N   1       1.032  -2.034  -2.977  0.00  0.00     0.044 C 
HETATM   16  C   UNK N   1       3.386   0.695  -1.589  0.00  0.00     0.150 C 
HETATM   17  O   UNK N   1       4.168   1.490  -2.081  0.00  0.00    -0.293 OA
HETATM   18  C   UNK N   1       3.054   0.794  -0.123  0.00  0.00     0.092 C 
HETATM   19  C   UNK N   1       2.326  -0.477   0.392  0.00  0.00    -0.034 C 
HETATM   20  C   UNK N   1       3.387  -1.609   0.510  0.00  0.00     0.016 C 
HETATM   21  C   UNK N   1       1.778  -0.219   1.812  0.00  0.00     0.016 C 
ENDBRANCH  11  12
ENDBRANCH  10  11
ENDBRANCH   8  10
ENDBRANCH   7   8
ENDBRANCH   1   7
BRANCH   6  22
HETATM   22  O   UNK N   1      -4.677   1.066  -3.544  0.00  0.00    -0.388 OA
HETATM   23  H   UNK N   1      -3.756   0.977  -3.900  0.00  0.00     0.210 HD
ENDBRANCH   6  22
BRANCH   3  24
HETATM   24  C   UNK N   1      -5.153   0.420   2.022  0.00  0.00     0.198 C 
BRANCH  24  25
HETATM   25  O   UNK N   1      -4.290   1.241   2.762  0.00  0.00    -0.398 OA
HETATM   26  H   UNK N   1      -3.364   0.968   2.533  0.00  0.00     0.209 HD
ENDBRANCH  24  25
ENDBRANCH   3  24
BRANCH   5  27
HETATM   27  O   UNK N   1      -6.973  -0.314  -2.548  0.00  0.00    -0.390 OA
HETATM   28  H   UNK N   1      -6.626  -1.244  -2.515  0.00  0.00     0.210 HD
ENDBRANCH   5  27
BRANCH   4  29
HETATM   29  O   UNK N   1      -7.483   0.098   0.245  0.00  0.00    -0.390 OA
HETATM   30  H   UNK N   1      -7.747   1.056   0.228  0.00  0.00     0.210 HD
ENDBRANCH   4  29
TORSDOF 10
