REMARK  9 active torsions:
REMARK  status: ('A' for Active; 'I' for Inactive)
REMARK    1  A    between atoms: C_6  and  C_7 
REMARK    2  A    between atoms: C_9  and  C_20 
REMARK    3  A    between atoms: C_10  and  O_11 
REMARK    4  A    between atoms: C_13  and  C_15 
REMARK    5  A    between atoms: C_15  and  C_16 
REMARK    6  A    between atoms: C_21  and  C_22 
REMARK    7  A    between atoms: C_22  and  O_23 
REMARK    8  A    between atoms: C_29  and  O_30 
REMARK    9  A    between atoms: C_33  and  O_34 
ROOT
HETATM    1  C   UNK N   1      -0.264   1.842  -2.751  0.00  0.00    -0.027 A 
HETATM    2  C   UNK N   1       0.521   1.758  -3.910  0.00  0.00     0.024 A 
HETATM    3  C   UNK N   1       1.921   1.669  -3.830  0.00  0.00    -0.002 A 
HETATM    4  C   UNK N   1       2.554   1.644  -2.547  0.00  0.00     0.085 A 
HETATM    5  C   UNK N   1       1.750   1.757  -1.389  0.00  0.00    -0.020 A 
HETATM    6  C   UNK N   1       0.358   1.851  -1.501  0.00  0.00     0.020 A 
ENDROOT
BRANCH   1   7
HETATM    7  C   UNK N   1      -1.773   1.899  -2.822  0.00  0.00     0.169 C 
HETATM    8  O   UNK N   1      -2.201   2.625  -3.928  0.00  0.00    -0.340 OA
HETATM    9  C   UNK N   1      -3.518   2.692  -4.269  0.00  0.00     0.089 A 
HETATM   10  C   UNK N   1      -4.427   1.732  -3.777  0.00  0.00     0.076 A 
HETATM   11  C   UNK N   1      -3.967   3.729  -5.090  0.00  0.00     0.074 A 
HETATM   12  C   UNK N   1      -3.877   0.630  -2.945  0.00  0.00     0.167 C 
HETATM   13  C   UNK N   1      -5.801   1.851  -4.079  0.00  0.00     0.085 A 
HETATM   14  O   UNK N   1      -4.606  -0.142  -2.343  0.00  0.00    -0.292 OA
HETATM   15  C   UNK N   1      -2.380   0.490  -2.853  0.00  0.00     0.121 C 
HETATM   16  C   UNK N   1      -6.240   2.910  -4.891  0.00  0.00     0.074 A 
HETATM   17  C   UNK N   1      -5.325   3.842  -5.402  0.00  0.00     0.071 A 
BRANCH  13  18
HETATM   18  O   UNK N   1      -6.688   0.955  -3.599  0.00  0.00    -0.360 OA
HETATM   19  H   UNK N   1      -7.636   1.024  -3.785  0.00  0.00     0.217 HD
ENDBRANCH  13  18
BRANCH  17  20
HETATM   20  O   UNK N   1      -5.744   4.858  -6.184  0.00  0.00    -0.361 OA
HETATM   21  H   UNK N   1      -6.677   4.973  -6.412  0.00  0.00     0.217 HD
ENDBRANCH  17  20
ENDBRANCH   1   7
BRANCH   3  22
HETATM   22  C   UNK N   1       2.670   1.598  -5.103  0.00  0.00     0.013 C 
HETATM   23  C   UNK N   1       3.080   2.720  -5.731  0.00  0.00     0.011 C 
BRANCH  23  24
HETATM   24  C   UNK N   1       3.852   2.708  -7.046  0.00  0.00     0.068 C 
HETATM   25  C   UNK N   1       5.215   3.395  -6.834  0.00  0.00     0.050 C 
HETATM   26  C   UNK N   1       3.036   3.475  -8.101  0.00  0.00     0.050 C 
BRANCH  24  27
HETATM   27  O   UNK N   1       4.057   1.383  -7.482  0.00  0.00    -0.387 OA
HETATM   28  H   UNK N   1       4.568   1.411  -8.333  0.00  0.00     0.211 HD
ENDBRANCH  24  27
ENDBRANCH  23  24
ENDBRANCH   3  22
BRANCH   5  29
HETATM   29  C   UNK N   1       2.365   1.746  -0.010  0.00  0.00     0.068 C 
BRANCH  29  30
HETATM   30  C   UNK N   1       2.552   0.323   0.467  0.00  0.00    -0.020 C 
HETATM   31  C   UNK N   1       1.992  -0.233   1.573  0.00  0.00    -0.091 C 
HETATM   32  C   UNK N   1       2.307  -1.668   1.912  0.00  0.00     0.042 C 
HETATM   33  C   UNK N   1       1.053   0.490   2.514  0.00  0.00     0.042 C 
ENDBRANCH  29  30
ENDBRANCH   5  29
BRANCH   4  34
HETATM   34  O   UNK N   1       3.899   1.500  -2.355  0.00  0.00    -0.355 OA
HETATM   35  C   UNK N   1       4.860   1.098  -3.256  0.00  0.00     0.210 C 
ENDBRANCH   4  34
TORSDOF 9
