REMARK  12 active torsions:
REMARK  status: ('A' for Active; 'I' for Inactive)
REMARK    1  A    between atoms: S_1  and  O_4 
REMARK    2  A    between atoms: S_1  and  O_33 
REMARK    3  A    between atoms: O_4  and  C_5 
REMARK    4  A    between atoms: C_5  and  C_6 
REMARK    5  A    between atoms: C_8  and  O_9 
REMARK    6  A    between atoms: O_9  and  C_10 
REMARK    7  A    between atoms: C_10  and  C_11 
REMARK    8  A    between atoms: C_11  and  C_12 
REMARK    9  A    between atoms: C_12  and  C_13 
REMARK   10  A    between atoms: C_24  and  O_25 
REMARK   11  A    between atoms: C_27  and  O_28 
REMARK   12  A    between atoms: C_30  and  O_31 
ROOT
HETATM    1  C   UNK N   1      -3.725  -2.891  -2.755  0.00  0.00     0.181 C 
HETATM    2  O   UNK N   1      -3.160  -2.133  -1.690  0.00  0.00    -0.348 OA
HETATM    3  C   UNK N   1      -2.153  -2.859  -0.987  0.00  0.00     0.292 C 
HETATM    4  C   UNK N   1      -2.733  -4.151  -0.358  0.00  0.00     0.204 C 
HETATM    5  C   UNK N   1      -3.403  -5.000  -1.456  0.00  0.00     0.183 C 
HETATM    6  C   UNK N   1      -4.440  -4.160  -2.227  0.00  0.00     0.180 C 
ENDROOT
BRANCH   3   7
HETATM    7  O   UNK N   1      -1.027  -3.169  -1.801  0.00  0.00    -0.354 OA
BRANCH   7   8
HETATM    8  C   UNK N   1      -0.409  -2.032  -2.399  0.00  0.00     0.120 C 
HETATM    9  C   UNK N   1       0.710  -2.575  -3.297  0.00  0.00     0.039 C 
BRANCH   8  10
HETATM   10  C   UNK N   1       0.173  -1.045  -1.348  0.00  0.00     0.032 C 
BRANCH  10  11
HETATM   11  C   UNK N   1       0.858   0.201  -1.942  0.00  0.00     0.012 C 
BRANCH  11  12
HETATM   12  C   UNK N   1       1.244   1.255  -0.858  0.00  0.00     0.022 C 
HETATM   13  C   UNK N   1       2.252   0.676   0.146  0.00  0.00    -0.075 C 
HETATM   14  C   UNK N   1       3.577   0.743  -0.107  0.00  0.00     0.053 C 
HETATM   15  C   UNK N   1       1.770   0.065   1.443  0.00  0.00     0.044 C 
HETATM   16  C   UNK N   1       4.096   1.438  -1.308  0.00  0.00     0.150 C 
HETATM   17  O   UNK N   1       5.272   1.324  -1.609  0.00  0.00    -0.293 OA
HETATM   18  C   UNK N   1       3.185   2.288  -2.163  0.00  0.00     0.092 C 
HETATM   19  C   UNK N   1       1.825   2.582  -1.466  0.00  0.00    -0.034 C 
HETATM   20  C   UNK N   1       2.027   3.620  -0.328  0.00  0.00     0.016 C 
HETATM   21  C   UNK N   1       0.868   3.232  -2.494  0.00  0.00     0.016 C 
ENDBRANCH  11  12
ENDBRANCH  10  11
ENDBRANCH   8  10
ENDBRANCH   7   8
ENDBRANCH   3   7
BRANCH   4  22
HETATM   22  O   UNK N   1      -3.637  -3.861   0.687  0.00  0.00    -0.388 OA
HETATM   23  H   UNK N   1      -4.131  -3.027   0.479  0.00  0.00     0.210 HD
ENDBRANCH   4  22
BRANCH   1  24
HETATM   24  C   UNK N   1      -4.701  -2.000  -3.537  0.00  0.00     0.226 C 
BRANCH  24  25
HETATM   25  O   UNK N   1      -4.003  -0.927  -4.132  0.00  0.00    -0.261 OA
BRANCH  25  26
HETATM   26  S   UNK N   1      -4.445   0.564  -3.371  0.00  0.00     0.240 S 
HETATM   27  O   UNK N   1      -3.758   1.720  -4.113  0.00  0.00    -0.579 OA
HETATM   28  O   UNK N   1      -5.941   0.836  -3.593  0.00  0.00    -0.579 OA
BRANCH  26  29
HETATM   29  O   UNK N   1      -4.081   0.692  -1.698  0.00  0.00    -0.274 OA
HETATM   30  H   UNK N   1      -3.101   0.562  -1.645  0.00  0.00     0.234 HD
ENDBRANCH  26  29
ENDBRANCH  25  26
ENDBRANCH  24  25
ENDBRANCH   1  24
BRANCH   5  31
HETATM   31  O   UNK N   1      -3.954  -6.191  -0.950  0.00  0.00    -0.390 OA
HETATM   32  H   UNK N   1      -4.582  -5.959  -0.218  0.00  0.00     0.210 HD
ENDBRANCH   5  31
BRANCH   6  33
HETATM   33  O   UNK N   1      -5.518  -3.795  -1.400  0.00  0.00    -0.390 OA
HETATM   34  H   UNK N   1      -6.136  -4.571  -1.367  0.00  0.00     0.210 HD
ENDBRANCH   6  33
TORSDOF 12
