REMARK  11 active torsions:
REMARK  status: ('A' for Active; 'I' for Inactive)
REMARK       I    between atoms: C_2  and  N_3 
REMARK    1  A    between atoms: C_2  and  C_28 
REMARK    2  A    between atoms: N_3  and  C_4 
REMARK    3  A    between atoms: C_4  and  C_5 
REMARK    4  A    between atoms: C_5  and  C_6 
REMARK    5  A    between atoms: N_10  and  C_12 
REMARK    6  A    between atoms: C_14  and  C_24 
REMARK    7  A    between atoms: C_15  and  O_16 
REMARK    8  A    between atoms: C_18  and  O_19 
REMARK    9  A    between atoms: C_21  and  O_22 
REMARK   10  A    between atoms: C_24  and  O_25 
REMARK   11  A    between atoms: C_29  and  C_30 
ROOT
HETATM    1  C   UNK N   1      -0.840   3.117  -2.831  0.00  0.00     0.027 A 
HETATM    2  N   UNK N   1      -1.509   3.457  -3.950  0.00  0.00    -0.354 N 
ATOM      3  HN  UNK N   1      -1.120   3.789  -4.832  1.00  0.00     0.166 HD
HETATM    4  C   UNK N   1      -2.810   3.263  -3.645  0.00  0.00     0.185 A 
HETATM    5  N   UNK N   1      -2.969   2.818  -2.379  0.00  0.00    -0.321 N 
HETATM    6  C   UNK N   1      -1.733   2.736  -1.858  0.00  0.00     0.119 A 
ENDROOT
BRANCH   5   7
HETATM    7  C   UNK N   1      -4.231   2.464  -1.720  0.00  0.00     0.260 C 
HETATM    8  O   UNK N   1      -3.994   2.250  -0.335  0.00  0.00    -0.353 OA
HETATM    9  C   UNK N   1      -5.201   1.969   0.358  0.00  0.00     0.179 C 
HETATM   10  C   UNK N   1      -5.762   0.607  -0.116  0.00  0.00     0.180 C 
HETATM   11  C   UNK N   1      -6.041   0.686  -1.629  0.00  0.00     0.182 C 
HETATM   12  C   UNK N   1      -4.778   1.162  -2.365  0.00  0.00     0.198 C 
BRANCH   9  13
HETATM   13  C   UNK N   1      -4.908   1.952   1.865  0.00  0.00     0.198 C 
BRANCH  13  14
HETATM   14  O   UNK N   1      -4.458   3.210   2.292  0.00  0.00    -0.398 OA
HETATM   15  H   UNK N   1      -3.496   3.268   2.057  0.00  0.00     0.209 HD
ENDBRANCH  13  14
ENDBRANCH   9  13
BRANCH  10  16
HETATM   16  O   UNK N   1      -6.927   0.246   0.584  0.00  0.00    -0.390 OA
HETATM   17  H   UNK N   1      -7.602   0.959   0.436  0.00  0.00     0.210 HD
ENDBRANCH  10  16
BRANCH  11  18
HETATM   18  O   UNK N   1      -6.485  -0.550  -2.131  0.00  0.00    -0.390 OA
HETATM   19  H   UNK N   1      -5.757  -1.211  -1.989  0.00  0.00     0.210 HD
ENDBRANCH  11  18
BRANCH  12  20
HETATM   20  O   UNK N   1      -5.035   1.319  -3.738  0.00  0.00    -0.388 OA
HETATM   21  H   UNK N   1      -5.699   2.051  -3.835  0.00  0.00     0.210 HD
ENDBRANCH  12  20
ENDBRANCH   5   7
BRANCH   1  22
HETATM   22  C   UNK N   1       0.645   3.151  -2.689  0.00  0.00     0.078 C 
BRANCH  22  23
HETATM   23  C   UNK N   1       1.350   2.215  -3.696  0.00  0.00     0.131 C 
BRANCH  23  24
HETATM   24  N   UNK N   1       2.795   2.317  -3.514  0.00  0.00    -0.353 N 
HETATM   25  C   UNK N   1       3.397   1.873  -2.357  0.00  0.00     0.243 C 
HETATM   26  O   UNK N   1       4.552   2.177  -2.104  0.00  0.00    -0.268 OA
HETATM   27  C   UNK N   1       3.563   3.010  -4.541  0.00  0.00     0.152 C 
BRANCH  25  28
HETATM   28  C   UNK N   1       2.653   1.033  -1.382  0.00  0.00     0.075 C 
HETATM   29  C   UNK N   1       2.693   1.290  -0.067  0.00  0.00     0.017 C 
BRANCH  29  30
HETATM   30  C   UNK N   1       1.891   0.501   0.895  0.00  0.00    -0.036 A 
HETATM   31  C   UNK N   1       1.269   1.156   1.968  0.00  0.00     0.011 A 
HETATM   32  C   UNK N   1       0.486   0.435   2.875  0.00  0.00     0.001 A 
HETATM   33  C   UNK N   1       0.348  -0.949   2.737  0.00  0.00     0.000 A 
HETATM   34  C   UNK N   1       0.981  -1.613   1.683  0.00  0.00     0.001 A 
HETATM   35  C   UNK N   1       1.737  -0.892   0.753  0.00  0.00     0.011 A 
ENDBRANCH  29  30
ENDBRANCH  25  28
ENDBRANCH  23  24
ENDBRANCH  22  23
ENDBRANCH   1  22
TORSDOF 11
