REMARK  11 active torsions:
REMARK  status: ('A' for Active; 'I' for Inactive)
REMARK    1  A    between atoms: C_2  and  O_3 
REMARK    2  A    between atoms: C_2  and  C_28 
REMARK    3  A    between atoms: O_3  and  C_4 
REMARK    4  A    between atoms: C_5  and  C_18 
REMARK    5  A    between atoms: C_9  and  O_10 
REMARK    6  A    between atoms: C_13  and  O_16 
REMARK    7  A    between atoms: C_20  and  O_21 
REMARK    8  A    between atoms: C_23  and  O_24 
REMARK    9  A    between atoms: C_30  and  O_31 
REMARK   10  A    between atoms: C_33  and  O_34 
REMARK   11  A    between atoms: C_36  and  O_38 
ROOT
HETATM    1  C   UNK N   1       1.433   1.621  -1.169  0.00  0.00     0.170 C 
HETATM    2  C   UNK N   1       0.479   1.209  -0.043  0.00  0.00     0.192 C 
HETATM    3  O   UNK N   1      -0.639   0.614  -0.599  0.00  0.00    -0.338 OA
HETATM    4  C   UNK N   1      -1.286   1.152  -1.662  0.00  0.00     0.081 A 
HETATM    5  C   UNK N   1      -2.571   0.712  -1.974  0.00  0.00     0.074 A 
HETATM    6  C   UNK N   1      -3.273   1.284  -3.042  0.00  0.00     0.071 A 
HETATM    7  C   UNK N   1      -2.681   2.301  -3.800  0.00  0.00     0.073 A 
HETATM    8  C   UNK N   1      -1.384   2.747  -3.503  0.00  0.00     0.077 A 
HETATM    9  C   UNK N   1      -0.674   2.162  -2.440  0.00  0.00     0.011 A 
HETATM   10  C   UNK N   1       0.727   2.620  -2.104  0.00  0.00     0.080 C 
ENDROOT
BRANCH   1  11
HETATM   11  O   UNK N   1       2.554   2.207  -0.625  0.00  0.00    -0.309 OA
BRANCH  11  12
HETATM   12  C   UNK N   1       3.786   2.199  -1.188  0.00  0.00     0.294 C 
HETATM   13  O   UNK N   1       3.988   1.613  -2.242  0.00  0.00    -0.259 OA
BRANCH  12  14
HETATM   14  C   UNK N   1       4.880   2.915  -0.502  0.00  0.00     0.045 A 
HETATM   15  C   UNK N   1       4.620   3.608   0.688  0.00  0.00     0.057 A 
HETATM   16  C   UNK N   1       5.635   4.302   1.345  0.00  0.00     0.102 A 
HETATM   17  C   UNK N   1       6.941   4.309   0.815  0.00  0.00     0.132 A 
HETATM   18  C   UNK N   1       7.214   3.590  -0.378  0.00  0.00     0.102 A 
HETATM   19  C   UNK N   1       6.180   2.908  -1.027  0.00  0.00     0.057 A 
BRANCH  16  20
HETATM   20  O   UNK N   1       5.339   4.963   2.484  0.00  0.00    -0.358 OA
HETATM   21  H   UNK N   1       6.003   5.455   2.987  0.00  0.00     0.218 HD
ENDBRANCH  16  20
BRANCH  17  22
HETATM   22  O   UNK N   1       7.897   5.013   1.462  0.00  0.00    -0.356 OA
HETATM   23  H   UNK N   1       8.796   5.131   1.134  0.00  0.00     0.218 HD
ENDBRANCH  17  22
BRANCH  18  24
HETATM   24  O   UNK N   1       8.451   3.526  -0.919  0.00  0.00    -0.358 OA
HETATM   25  H   UNK N   1       9.239   3.900  -0.509  0.00  0.00     0.218 HD
ENDBRANCH  18  24
ENDBRANCH  12  14
ENDBRANCH  11  12
ENDBRANCH   1  11
BRANCH   2  26
HETATM   26  C   UNK N   1       1.127   0.250   0.928  0.00  0.00    -0.024 A 
HETATM   27  C   UNK N   1       1.574  -1.011   0.495  0.00  0.00     0.049 A 
HETATM   28  C   UNK N   1       2.172  -1.901   1.394  0.00  0.00     0.099 A 
HETATM   29  C   UNK N   1       2.328  -1.532   2.743  0.00  0.00     0.098 A 
HETATM   30  C   UNK N   1       1.884  -0.274   3.175  0.00  0.00     0.040 A 
HETATM   31  C   UNK N   1       1.287   0.611   2.275  0.00  0.00     0.013 A 
BRANCH  28  32
HETATM   32  O   UNK N   1       2.589  -3.105   0.947  0.00  0.00    -0.358 OA
HETATM   33  H   UNK N   1       3.006  -3.756   1.528  0.00  0.00     0.218 HD
ENDBRANCH  28  32
BRANCH  29  34
HETATM   34  O   UNK N   1       2.901  -2.387   3.616  0.00  0.00    -0.358 OA
HETATM   35  H   UNK N   1       3.017  -2.159   4.549  0.00  0.00     0.218 HD
ENDBRANCH  29  34
ENDBRANCH   2  26
BRANCH   8  36
HETATM   36  O   UNK N   1      -0.814   3.725  -4.238  0.00  0.00    -0.360 OA
HETATM   37  H   UNK N   1      -1.277   4.143  -4.979  0.00  0.00     0.217 HD
ENDBRANCH   8  36
BRANCH   6  38
HETATM   38  O   UNK N   1      -4.519   0.867  -3.341  0.00  0.00    -0.361 OA
HETATM   39  H   UNK N   1      -4.955   0.170  -2.830  0.00  0.00     0.217 HD
ENDBRANCH   6  38
TORSDOF 11
