REMARK  11 active torsions:
REMARK  status: ('A' for Active; 'I' for Inactive)
REMARK    1  A    between atoms: C_2  and  O_3 
REMARK    2  A    between atoms: C_2  and  C_20 
REMARK    3  A    between atoms: O_3  and  C_4 
REMARK    4  A    between atoms: C_5  and  O_6 
REMARK    5  A    between atoms: C_8  and  O_9 
REMARK    6  A    between atoms: C_12  and  O_13 
REMARK    7  A    between atoms: C_12  and  C_15 
REMARK    8  A    between atoms: C_15  and  O_17 
REMARK    9  A    between atoms: C_21  and  C_22 
REMARK   10  A    between atoms: C_24  and  O_25 
REMARK   11  A    between atoms: C_27  and  O_28 
ROOT
HETATM    1  C   UNK N   1      -4.432   3.293  -1.273  0.00  0.00     0.166 C 
HETATM    2  C   UNK N   1      -4.026   4.278  -2.410  0.00  0.00     0.176 C 
HETATM    3  C   UNK N   1      -3.725   3.503  -3.709  0.00  0.00     0.152 C 
HETATM    4  C   UNK N   1      -4.954   2.673  -4.148  0.00  0.00     0.083 C 
HETATM    5  C   UNK N   1      -5.431   1.678  -3.044  0.00  0.00     0.147 C 
HETATM    6  C   UNK N   1      -5.669   2.479  -1.730  0.00  0.00     0.084 C 
ENDROOT
BRANCH   1   7
HETATM    7  O   UNK N   1      -3.403   2.424  -0.925  0.00  0.00    -0.310 OA
BRANCH   7   8
HETATM    8  C   UNK N   1      -2.177   2.808  -0.469  0.00  0.00     0.283 C 
HETATM    9  O   UNK N   1      -1.907   3.992  -0.330  0.00  0.00    -0.260 OA
BRANCH   8  10
HETATM   10  C   UNK N   1      -1.155   1.780  -0.170  0.00  0.00     0.083 C 
HETATM   11  C   UNK N   1       0.145   2.120  -0.053  0.00  0.00     0.017 C 
BRANCH  11  12
HETATM   12  C   UNK N   1       1.245   1.156   0.217  0.00  0.00    -0.033 A 
HETATM   13  C   UNK N   1       2.561   1.554  -0.072  0.00  0.00     0.050 A 
HETATM   14  C   UNK N   1       3.642   0.693   0.145  0.00  0.00     0.099 A 
HETATM   15  C   UNK N   1       3.407  -0.594   0.692  0.00  0.00     0.098 A 
HETATM   16  C   UNK N   1       2.095  -0.984   0.993  0.00  0.00     0.040 A 
HETATM   17  C   UNK N   1       1.019  -0.125   0.751  0.00  0.00     0.014 A 
BRANCH  14  18
HETATM   18  O   UNK N   1       4.880   1.130  -0.185  0.00  0.00    -0.358 OA
HETATM   19  H   UNK N   1       5.686   0.607  -0.104  0.00  0.00     0.218 HD
ENDBRANCH  14  18
BRANCH  15  20
HETATM   20  O   UNK N   1       4.409  -1.468   0.939  0.00  0.00    -0.358 OA
HETATM   21  H   UNK N   1       5.340  -1.283   0.769  0.00  0.00     0.218 HD
ENDBRANCH  15  20
ENDBRANCH  11  12
ENDBRANCH   8  10
ENDBRANCH   7   8
ENDBRANCH   1   7
BRANCH   2  22
HETATM   22  O   UNK N   1      -5.063   5.200  -2.636  0.00  0.00    -0.390 OA
HETATM   23  H   UNK N   1      -5.035   5.853  -1.888  0.00  0.00     0.210 HD
ENDBRANCH   2  22
BRANCH   3  24
HETATM   24  O   UNK N   1      -3.316   4.375  -4.734  0.00  0.00    -0.393 OA
HETATM   25  H   UNK N   1      -4.072   4.983  -4.943  0.00  0.00     0.210 HD
ENDBRANCH   3  24
BRANCH   5  26
HETATM   26  O   UNK N   1      -6.664   1.121  -3.436  0.00  0.00    -0.379 OA
HETATM   27  H   UNK N   1      -6.534   0.673  -4.314  0.00  0.00     0.211 HD
ENDBRANCH   5  26
BRANCH   5  28
HETATM   28  C   UNK N   1      -4.452   0.526  -2.809  0.00  0.00     0.176 C 
HETATM   29  O   UNK N   1      -3.419   0.442  -3.455  0.00  0.00    -0.648 OA
BRANCH  28  30
HETATM   30  O   UNK N   1      -4.739  -0.441  -1.910  0.00  0.00    -0.774 OA
HETATM   31  H   UNK N   1      -5.565  -0.439  -1.406  0.00  0.00     0.167 HD
ENDBRANCH  28  30
ENDBRANCH   5  28
TORSDOF 11
