REMARK  11 active torsions:
REMARK  status: ('A' for Active; 'I' for Inactive)
REMARK    1  A    between atoms: C_6  and  C_8 
REMARK    2  A    between atoms: C_10  and  O_11 
REMARK    3  A    between atoms: C_13  and  O_14 
REMARK    4  A    between atoms: C_19  and  O_20 
REMARK    5  A    between atoms: O_20  and  C_21 
REMARK    6  A    between atoms: C_23  and  C_33 
REMARK    7  A    between atoms: C_24  and  O_25 
REMARK    8  A    between atoms: C_27  and  O_28 
REMARK    9  A    between atoms: C_30  and  O_31 
REMARK   10  A    between atoms: C_33  and  O_34 
REMARK   11  A    between atoms: C_37  and  O_38 
ROOT
HETATM    1  O   UNK N   1       3.582   1.655  -2.518  0.00  0.00    -0.287 OA
HETATM    2  C   UNK N   1       2.661   1.229  -1.843  0.00  0.00     0.190 A 
HETATM    3  C   UNK N   1       1.338   1.209  -2.337  0.00  0.00     0.081 A 
HETATM    4  C   UNK N   1       0.333   0.692  -1.495  0.00  0.00     0.095 A 
HETATM    5  O   UNK N   1       0.631   0.225  -0.290  0.00  0.00    -0.309 OA
HETATM    6  C   UNK N   1       1.857   0.250   0.220  0.00  0.00     0.090 A 
HETATM    7  C   UNK N   1       2.916   0.763  -0.549  0.00  0.00     0.094 A 
HETATM    8  C   UNK N   1      -0.995   0.679  -1.904  0.00  0.00     0.075 A 
HETATM    9  C   UNK N   1      -1.367   1.185  -3.163  0.00  0.00     0.077 A 
HETATM   10  C   UNK N   1      -0.372   1.676  -4.018  0.00  0.00     0.074 A 
HETATM   11  C   UNK N   1       0.980   1.689  -3.622  0.00  0.00     0.085 A 
ENDROOT
BRANCH   9  12
HETATM   12  O   UNK N   1      -2.669   1.213  -3.571  0.00  0.00    -0.318 OA
BRANCH  12  13
HETATM   13  C   UNK N   1      -3.740   0.745  -2.817  0.00  0.00     0.298 C 
HETATM   14  O   UNK N   1      -3.851   1.438  -1.579  0.00  0.00    -0.348 OA
HETATM   15  C   UNK N   1      -4.162   2.813  -1.760  0.00  0.00     0.179 C 
HETATM   16  C   UNK N   1      -5.553   2.958  -2.420  0.00  0.00     0.180 C 
HETATM   17  C   UNK N   1      -5.519   2.252  -3.794  0.00  0.00     0.183 C 
HETATM   18  C   UNK N   1      -5.075   0.795  -3.593  0.00  0.00     0.205 C 
BRANCH  15  19
HETATM   19  C   UNK N   1      -4.120   3.500  -0.386  0.00  0.00     0.198 C 
BRANCH  19  20
HETATM   20  O   UNK N   1      -2.827   3.435   0.156  0.00  0.00    -0.398 OA
HETATM   21  H   UNK N   1      -2.686   2.500   0.460  0.00  0.00     0.209 HD
ENDBRANCH  19  20
ENDBRANCH  15  19
BRANCH  16  22
HETATM   22  O   UNK N   1      -5.884   4.315  -2.574  0.00  0.00    -0.390 OA
HETATM   23  H   UNK N   1      -6.829   4.344  -2.877  0.00  0.00     0.210 HD
ENDBRANCH  16  22
BRANCH  17  24
HETATM   24  O   UNK N   1      -4.621   2.901  -4.660  0.00  0.00    -0.390 OA
HETATM   25  H   UNK N   1      -5.059   3.744  -4.949  0.00  0.00     0.210 HD
ENDBRANCH  17  24
BRANCH  18  26
HETATM   26  O   UNK N   1      -6.064   0.120  -2.857  0.00  0.00    -0.388 OA
HETATM   27  H   UNK N   1      -5.846  -0.848  -2.900  0.00  0.00     0.210 HD
ENDBRANCH  18  26
ENDBRANCH  12  13
ENDBRANCH   9  12
BRANCH  11  28
HETATM   28  O   UNK N   1       1.920   2.168  -4.465  0.00  0.00    -0.360 OA
HETATM   29  H   UNK N   1       1.698   2.487  -5.352  0.00  0.00     0.217 HD
ENDBRANCH  11  28
BRANCH   6  30
HETATM   30  C   UNK N   1       2.043  -0.261   1.601  0.00  0.00     0.001 A 
HETATM   31  C   UNK N   1       1.123  -1.193   2.112  0.00  0.00     0.054 A 
HETATM   32  C   UNK N   1       1.261  -1.694   3.410  0.00  0.00     0.102 A 
HETATM   33  C   UNK N   1       2.297  -1.234   4.232  0.00  0.00     0.099 A 
HETATM   34  C   UNK N   1       3.214  -0.297   3.734  0.00  0.00     0.040 A 
HETATM   35  C   UNK N   1       3.100   0.177   2.422  0.00  0.00     0.017 A 
BRANCH  32  36
HETATM   36  O   UNK N   1       0.395  -2.628   3.860  0.00  0.00    -0.353 OA
HETATM   37  C   UNK N   1       0.641  -3.970   3.658  0.00  0.00     0.210 C 
ENDBRANCH  32  36
BRANCH  33  38
HETATM   38  O   UNK N   1       2.406  -1.697   5.494  0.00  0.00    -0.358 OA
HETATM   39  H   UNK N   1       3.099  -1.384   6.094  0.00  0.00     0.218 HD
ENDBRANCH  33  38
ENDBRANCH   6  30
TORSDOF 11
