REMARK  11 active torsions:
REMARK  status: ('A' for Active; 'I' for Inactive)
REMARK    1  A    between atoms: C_6  and  C_8 
REMARK    2  A    between atoms: C_10  and  O_11 
REMARK    3  A    between atoms: C_13  and  O_14 
REMARK    4  A    between atoms: C_19  and  O_20 
REMARK    5  A    between atoms: O_20  and  C_21 
REMARK    6  A    between atoms: C_23  and  C_33 
REMARK    7  A    between atoms: C_24  and  O_25 
REMARK    8  A    between atoms: C_27  and  O_28 
REMARK    9  A    between atoms: C_30  and  O_31 
REMARK   10  A    between atoms: C_33  and  O_34 
REMARK   11  A    between atoms: C_37  and  O_38 
ROOT
HETATM    1  O   UNK N   1      -2.307  -2.331   3.006  0.00  0.00    -0.287 OA
HETATM    2  C   UNK N   1      -1.840  -1.729   2.060  0.00  0.00     0.190 A 
HETATM    3  C   UNK N   1      -2.595  -1.469   0.887  0.00  0.00     0.081 A 
HETATM    4  C   UNK N   1      -1.941  -0.755  -0.152  0.00  0.00     0.095 A 
HETATM    5  O   UNK N   1      -0.675  -0.367  -0.024  0.00  0.00    -0.309 OA
HETATM    6  C   UNK N   1       0.045  -0.573   1.075  0.00  0.00     0.090 A 
HETATM    7  C   UNK N   1      -0.528  -1.263   2.152  0.00  0.00     0.094 A 
HETATM    8  C   UNK N   1      -2.624  -0.411  -1.318  0.00  0.00     0.075 A 
HETATM    9  C   UNK N   1      -3.967  -0.738  -1.481  0.00  0.00     0.077 A 
HETATM   10  C   UNK N   1      -4.624  -1.474  -0.483  0.00  0.00     0.074 A 
HETATM   11  C   UNK N   1      -3.963  -1.856   0.692  0.00  0.00     0.085 A 
ENDROOT
BRANCH   9  12
HETATM   12  O   UNK N   1      -4.605  -0.293  -2.595  0.00  0.00    -0.318 OA
BRANCH  12  13
HETATM   13  C   UNK N   1      -5.974  -0.122  -2.709  0.00  0.00     0.298 C 
HETATM   14  O   UNK N   1      -6.595  -1.352  -3.045  0.00  0.00    -0.348 OA
HETATM   15  C   UNK N   1      -8.010  -1.199  -3.050  0.00  0.00     0.179 C 
HETATM   16  C   UNK N   1      -8.444  -0.220  -4.172  0.00  0.00     0.180 C 
HETATM   17  C   UNK N   1      -7.753   1.139  -3.957  0.00  0.00     0.183 C 
HETATM   18  C   UNK N   1      -6.240   0.922  -3.810  0.00  0.00     0.205 C 
BRANCH  15  19
HETATM   19  C   UNK N   1      -8.650  -2.577  -3.255  0.00  0.00     0.198 C 
BRANCH  19  20
HETATM   20  O   UNK N   1      -8.246  -3.439  -2.228  0.00  0.00    -0.398 OA
HETATM   21  H   UNK N   1      -8.684  -4.311  -2.414  0.00  0.00     0.209 HD
ENDBRANCH  19  20
ENDBRANCH  15  19
BRANCH  16  22
HETATM   22  O   UNK N   1      -9.840  -0.058  -4.143  0.00  0.00    -0.390 OA
HETATM   23  H   UNK N   1     -10.111   0.306  -5.025  0.00  0.00     0.210 HD
ENDBRANCH  16  22
BRANCH  17  24
HETATM   24  O   UNK N   1      -7.993   1.999  -5.041  0.00  0.00    -0.390 OA
HETATM   25  H   UNK N   1      -8.907   2.368  -4.926  0.00  0.00     0.210 HD
ENDBRANCH  17  24
BRANCH  18  26
HETATM   26  O   UNK N   1      -5.588   2.136  -3.527  0.00  0.00    -0.388 OA
HETATM   27  H   UNK N   1      -5.903   2.450  -2.638  0.00  0.00     0.210 HD
ENDBRANCH  18  26
ENDBRANCH  12  13
ENDBRANCH   9  12
BRANCH  11  28
HETATM   28  O   UNK N   1      -4.685  -2.562   1.593  0.00  0.00    -0.360 OA
HETATM   29  H   UNK N   1      -4.370  -2.920   2.428  0.00  0.00     0.217 HD
ENDBRANCH  11  28
BRANCH   6  30
HETATM   30  C   UNK N   1       1.441  -0.054   1.121  0.00  0.00     0.001 A 
HETATM   31  C   UNK N   1       2.117   0.220  -0.082  0.00  0.00     0.054 A 
HETATM   32  C   UNK N   1       3.438   0.690  -0.069  0.00  0.00     0.102 A 
HETATM   33  C   UNK N   1       4.085   0.924   1.150  0.00  0.00     0.099 A 
HETATM   34  C   UNK N   1       3.413   0.677   2.353  0.00  0.00     0.040 A 
HETATM   35  C   UNK N   1       2.106   0.181   2.343  0.00  0.00     0.017 A 
BRANCH  32  36
HETATM   36  O   UNK N   1       4.094   0.902  -1.230  0.00  0.00    -0.353 OA
HETATM   37  C   UNK N   1       3.923   2.053  -1.963  0.00  0.00     0.210 C 
ENDBRANCH  32  36
BRANCH  33  38
HETATM   38  O   UNK N   1       5.351   1.391   1.157  0.00  0.00    -0.358 OA
HETATM   39  H   UNK N   1       5.822   1.577   1.982  0.00  0.00     0.218 HD
ENDBRANCH  33  38
ENDBRANCH   6  30
TORSDOF 11
