REMARK  5 active torsions:
REMARK  status: ('A' for Active; 'I' for Inactive)
REMARK    1  A    between atoms: C_4  and  O_5 
REMARK    2  A    between atoms: C_7  and  O_8 
REMARK    3  A    between atoms: C_10  and  O_11 
REMARK    4  A    between atoms: C_16  and  C_18 
REMARK    5  A    between atoms: C_21  and  O_22 
ROOT
HETATM    1  O   UNK N   1       3.806   1.583  -2.143  0.00  0.00    -0.287 OA
HETATM    2  C   UNK N   1       2.865   1.177  -1.492  0.00  0.00     0.190 A 
HETATM    3  C   UNK N   1       3.018   0.644  -0.182  0.00  0.00     0.084 A 
HETATM    4  C   UNK N   1       4.270   0.535   0.514  0.00  0.00     0.119 A 
HETATM    5  C   UNK N   1       4.290   0.012   1.843  0.00  0.00     0.136 A 
HETATM    6  C   UNK N   1       3.094  -0.393   2.458  0.00  0.00     0.107 A 
HETATM    7  C   UNK N   1       1.883  -0.302   1.759  0.00  0.00     0.078 A 
HETATM    8  C   UNK N   1       1.840   0.202   0.466  0.00  0.00     0.096 A 
HETATM    9  O   UNK N   1       0.658   0.268  -0.139  0.00  0.00    -0.309 OA
HETATM   10  C   UNK N   1       0.489   0.776  -1.353  0.00  0.00     0.090 A 
HETATM   11  C   UNK N   1       1.596   1.251  -2.062  0.00  0.00     0.094 A 
ENDROOT
BRANCH  10  12
HETATM   12  C   UNK N   1      -0.882   0.818  -1.923  0.00  0.00    -0.002 A 
HETATM   13  C   UNK N   1      -1.860  -0.064  -1.430  0.00  0.00     0.017 A 
HETATM   14  C   UNK N   1      -3.153  -0.053  -1.958  0.00  0.00     0.037 A 
HETATM   15  C   UNK N   1      -3.494   0.856  -2.968  0.00  0.00     0.065 A 
HETATM   16  C   UNK N   1      -2.533   1.749  -3.451  0.00  0.00     0.037 A 
HETATM   17  C   UNK N   1      -1.233   1.727  -2.942  0.00  0.00     0.017 A 
BRANCH  15  18
HETATM   18  O   UNK N   1      -4.740   0.880  -3.480  0.00  0.00    -0.361 OA
HETATM   19  H   UNK N   1      -5.426   0.270  -3.174  0.00  0.00     0.217 HD
ENDBRANCH  15  18
ENDBRANCH  10  12
BRANCH   4  20
HETATM   20  O   UNK N   1       5.443   0.916  -0.041  0.00  0.00    -0.357 OA
HETATM   21  H   UNK N   1       5.597   1.263  -0.923  0.00  0.00     0.218 HD
ENDBRANCH   4  20
BRANCH   6  22
HETATM   22  O   UNK N   1       3.142  -0.868   3.735  0.00  0.00    -0.353 OA
HETATM   23  C   UNK N   1       2.046  -1.254   4.484  0.00  0.00     0.210 C 
ENDBRANCH   6  22
BRANCH   5  24
HETATM   24  O   UNK N   1       5.438  -0.116   2.574  0.00  0.00    -0.351 OA
HETATM   25  C   UNK N   1       6.724   0.208   2.191  0.00  0.00     0.210 C 
ENDBRANCH   5  24
TORSDOF 5
