REMARK  5 active torsions:
REMARK  status: ('A' for Active; 'I' for Inactive)
REMARK    1  A    between atoms: C_8  and  O_10 
REMARK    2  A    between atoms: O_10  and  C_11 
REMARK    3  A    between atoms: C_11  and  C_12 
REMARK    4  A    between atoms: C_16  and  O_17 
REMARK    5  A    between atoms: O_17  and  C_18 
ROOT
HETATM    1  C   UNK N   1      -2.369  -0.886   1.945  0.00  0.00     0.047 C 
HETATM    2  C   UNK N   1      -3.480  -1.390   0.934  0.00  0.00    -0.030 C 
HETATM    3  C   UNK N   1      -4.621  -0.279   0.899  0.00  0.00     0.005 C 
HETATM    4  C   UNK N   1      -5.703  -0.416  -0.256  0.00  0.00    -0.017 C 
HETATM    5  C   UNK N   1      -4.948  -0.600  -1.614  0.00  0.00     0.140 C 
HETATM    6  C   UNK N   1      -3.939  -1.755  -1.578  0.00  0.00     0.034 C 
HETATM    7  C   UNK N   1      -2.879  -1.509  -0.498  0.00  0.00     0.013 C 
HETATM    8  C   UNK N   1      -6.517   0.905  -0.355  0.00  0.00     0.018 C 
HETATM    9  C   UNK N   1      -6.750  -1.543  -0.035  0.00  0.00     0.018 C 
HETATM   10  C   UNK N   1      -5.232  -0.060   2.317  0.00  0.00     0.010 C 
HETATM   11  C   UNK N   1      -4.155   0.344   3.328  0.00  0.00     0.034 C 
HETATM   12  C   UNK N   1      -3.029  -0.652   3.305  0.00  0.00    -0.082 C 
HETATM   13  C   UNK N   1      -2.674  -1.291   4.438  0.00  0.00     0.015 C 
HETATM   14  C   UNK N   1      -3.971  -2.799   1.396  0.00  0.00     0.016 C 
ENDROOT
BRANCH   1  15
HETATM   15  C   UNK N   1      -1.090  -1.760   1.988  0.00  0.00     0.185 C 
BRANCH  15  16
HETATM   16  O   UNK N   1      -0.134  -1.193   2.817  0.00  0.00    -0.350 OA
BRANCH  16  17
HETATM   17  C   UNK N   1       1.079  -0.728   2.417  0.00  0.00     0.071 A 
HETATM   18  C   UNK N   1       2.141  -0.771   3.328  0.00  0.00     0.038 A 
HETATM   19  C   UNK N   1       3.419  -0.349   2.952  0.00  0.00     0.017 A 
HETATM   20  C   UNK N   1       3.644   0.134   1.658  0.00  0.00    -0.002 A 
HETATM   21  C   UNK N   1       2.575   0.211   0.739  0.00  0.00     0.092 A 
HETATM   22  C   UNK N   1       4.913   0.546   1.244  0.00  0.00     0.020 A 
HETATM   23  O   UNK N   1       2.780   0.678  -0.491  0.00  0.00    -0.275 OA
HETATM   24  C   UNK N   1       1.300  -0.217   1.119  0.00  0.00     0.075 A 
HETATM   25  C   UNK N   1       3.979   1.079  -0.912  0.00  0.00     0.288 A 
HETATM   26  O   UNK N   1       4.112   1.495  -2.047  0.00  0.00    -0.260 OA
HETATM   27  C   UNK N   1       5.085   1.021  -0.054  0.00  0.00     0.083 A 
ENDBRANCH  16  17
ENDBRANCH  15  16
ENDBRANCH   1  15
BRANCH   5  28
HETATM   28  O   UNK N   1      -5.847  -0.841  -2.641  0.00  0.00    -0.316 OA
BRANCH  28  29
HETATM   29  C   UNK N   1      -6.058  -0.031  -3.709  0.00  0.00     0.255 C 
HETATM   30  O   UNK N   1      -5.469   1.035  -3.821  0.00  0.00    -0.266 OA
HETATM   31  C   UNK N   1      -7.049  -0.448  -4.745  0.00  0.00     0.126 C 
ENDBRANCH  28  29
ENDBRANCH   5  28
TORSDOF 5
