REMARK  4 active torsions:
REMARK  status: ('A' for Active; 'I' for Inactive)
REMARK    1  A    between atoms: C_8  and  O_10 
REMARK    2  A    between atoms: O_10  and  C_11 
REMARK    3  A    between atoms: C_11  and  C_12 
REMARK    4  A    between atoms: C_16  and  O_17 
ROOT
HETATM    1  C   UNK N   1      -2.613  -1.028   0.007  0.00  0.00     0.047 C 
HETATM    2  C   UNK N   1      -3.441  -0.948  -1.344  0.00  0.00    -0.030 C 
HETATM    3  C   UNK N   1      -4.968  -1.190  -0.968  0.00  0.00     0.005 C 
HETATM    4  C   UNK N   1      -6.033  -0.877  -2.106  0.00  0.00    -0.017 C 
HETATM    5  C   UNK N   1      -5.736   0.544  -2.692  0.00  0.00     0.126 C 
HETATM    6  C   UNK N   1      -4.273   0.702  -3.145  0.00  0.00     0.033 C 
HETATM    7  C   UNK N   1      -3.317   0.474  -1.965  0.00  0.00     0.013 C 
HETATM    8  C   UNK N   1      -6.103  -1.940  -3.237  0.00  0.00     0.018 C 
HETATM    9  C   UNK N   1      -7.453  -0.829  -1.475  0.00  0.00     0.018 C 
HETATM   10  C   UNK N   1      -5.160  -2.581  -0.287  0.00  0.00     0.010 C 
HETATM   11  C   UNK N   1      -4.291  -2.716   0.968  0.00  0.00     0.034 C 
HETATM   12  C   UNK N   1      -2.860  -2.398   0.637  0.00  0.00    -0.082 C 
HETATM   13  C   UNK N   1      -1.892  -3.303   0.885  0.00  0.00     0.015 C 
HETATM   14  C   UNK N   1      -2.856  -1.991  -2.351  0.00  0.00     0.016 C 
ENDROOT
BRANCH   1  15
HETATM   15  C   UNK N   1      -1.125  -0.631  -0.133  0.00  0.00     0.185 C 
BRANCH  15  16
HETATM   16  O   UNK N   1      -0.480  -0.676   1.089  0.00  0.00    -0.350 OA
BRANCH  16  17
HETATM   17  C   UNK N   1       0.835  -0.374   1.257  0.00  0.00     0.071 A 
HETATM   18  C   UNK N   1       1.409  -0.514   2.529  0.00  0.00     0.038 A 
HETATM   19  C   UNK N   1       2.761  -0.214   2.735  0.00  0.00     0.017 A 
HETATM   20  C   UNK N   1       3.550   0.232   1.666  0.00  0.00    -0.002 A 
HETATM   21  C   UNK N   1       2.981   0.375   0.384  0.00  0.00     0.092 A 
HETATM   22  C   UNK N   1       4.902   0.545   1.833  0.00  0.00     0.020 A 
HETATM   23  O   UNK N   1       3.719   0.797  -0.638  0.00  0.00    -0.275 OA
HETATM   24  C   UNK N   1       1.637   0.073   0.185  0.00  0.00     0.075 A 
HETATM   25  C   UNK N   1       5.008   1.103  -0.510  0.00  0.00     0.288 A 
HETATM   26  O   UNK N   1       5.636   1.486  -1.478  0.00  0.00    -0.260 OA
HETATM   27  C   UNK N   1       5.639   0.986   0.735  0.00  0.00     0.083 A 
ENDBRANCH  16  17
ENDBRANCH  15  16
ENDBRANCH   1  15
BRANCH   5  28
HETATM   28  O   UNK N   1      -6.605   0.817  -3.766  0.00  0.00    -0.395 OA
HETATM   29  H   UNK N   1      -6.461   1.764  -4.029  0.00  0.00     0.210 HD
ENDBRANCH   5  28
TORSDOF 4
