REMARK  8 active torsions:
REMARK  status: ('A' for Active; 'I' for Inactive)
REMARK    1  A    between atoms: S_1  and  O_4 
REMARK    2  A    between atoms: S_1  and  O_19 
REMARK    3  A    between atoms: O_4  and  C_5 
REMARK    4  A    between atoms: C_6  and  O_7 
REMARK    5  A    between atoms: C_10  and  C_11 
REMARK    6  A    between atoms: C_12  and  C_13 
REMARK    7  A    between atoms: C_13  and  C_14 
REMARK    8  A    between atoms: C_14  and  O_15 
ROOT
HETATM    1  C   UNK N   1      -2.072   0.687  -0.912  0.00  0.00     0.124 A 
HETATM    2  C   UNK N   1      -2.081   0.217   0.409  0.00  0.00     0.103 A 
HETATM    3  C   UNK N   1      -0.866  -0.093   1.048  0.00  0.00     0.051 A 
HETATM    4  C   UNK N   1       0.358   0.118   0.404  0.00  0.00    -0.034 A 
HETATM    5  C   UNK N   1       0.365   0.617  -0.910  0.00  0.00     0.014 A 
HETATM    6  C   UNK N   1      -0.840   0.886  -1.569  0.00  0.00     0.042 A 
ENDROOT
BRANCH   1   7
HETATM    7  O   UNK N   1      -3.263   0.925  -1.516  0.00  0.00    -0.218 OA
BRANCH   7   8
HETATM    8  S   UNK N   1      -3.520   1.047  -3.195  0.00  0.00     0.245 S 
HETATM    9  O   UNK N   1      -2.874   2.321  -3.759  0.00  0.00    -0.579 OA
HETATM   10  O   UNK N   1      -2.790  -0.118  -3.883  0.00  0.00    -0.579 OA
BRANCH   8  11
HETATM   11  O   UNK N   1      -5.176   0.975  -3.646  0.00  0.00    -0.273 OA
HETATM   12  H   UNK N   1      -5.628   1.619  -3.044  0.00  0.00     0.234 HD
ENDBRANCH   8  11
ENDBRANCH   7   8
ENDBRANCH   1   7
BRANCH   2  13
HETATM   13  O   UNK N   1      -3.281   0.070   1.036  0.00  0.00    -0.353 OA
HETATM   14  C   UNK N   1      -3.445  -0.295   2.357  0.00  0.00     0.210 C 
ENDBRANCH   2  13
BRANCH   4  15
HETATM   15  C   UNK N   1       1.601  -0.246   1.133  0.00  0.00     0.007 C 
HETATM   16  C   UNK N   1       2.743   0.470   1.191  0.00  0.00    -0.024 C 
BRANCH  16  17
HETATM   17  C   UNK N   1       2.952   1.846   0.607  0.00  0.00     0.053 C 
BRANCH  17  18
HETATM   18  C   UNK N   1       4.170   1.902  -0.311  0.00  0.00     0.168 C 
BRANCH  18  19
HETATM   19  O   UNK N   1       3.966   1.139  -1.468  0.00  0.00    -0.401 OA
HETATM   20  H   UNK N   1       4.160   0.197  -1.227  0.00  0.00     0.209 HD
ENDBRANCH  18  19
ENDBRANCH  17  18
ENDBRANCH  16  17
ENDBRANCH   4  15
TORSDOF 8
