REMARK  10 active torsions:
REMARK  status: ('A' for Active; 'I' for Inactive)
REMARK    1  A    between atoms: C_5  and  O_6 
REMARK    2  A    between atoms: C_5  and  C_12 
REMARK    3  A    between atoms: C_13  and  C_14 
REMARK    4  A    between atoms: C_14  and  O_15 
REMARK    5  A    between atoms: O_15  and  C_16 
REMARK    6  A    between atoms: C_18  and  C_28 
REMARK    7  A    between atoms: C_19  and  O_20 
REMARK    8  A    between atoms: C_22  and  O_23 
REMARK    9  A    between atoms: C_25  and  O_26 
REMARK   10  A    between atoms: C_28  and  O_29 
ROOT
HETATM    1  C   UNK N   1      -2.040  -3.058   0.311  0.00  0.00     0.143 C 
HETATM    2  C   UNK N   1      -1.939  -4.242   1.271  0.00  0.00     0.044 C 
ENDROOT
BRANCH   1   3
HETATM    3  C   UNK N   1      -0.693  -2.853  -0.345  0.00  0.00     0.004 C 
HETATM    4  C   UNK N   1      -0.026  -1.691  -0.210  0.00  0.00     0.014 C 
BRANCH   4   5
HETATM    5  C   UNK N   1       1.331  -1.407  -0.865  0.00  0.00     0.106 C 
HETATM    6  C   UNK N   1       1.208  -0.200  -1.826  0.00  0.00    -0.042 C 
HETATM    7  C   UNK N   1       2.230   0.665  -2.007  0.00  0.00     0.056 C 
HETATM    8  C   UNK N   1      -0.067   0.007  -2.606  0.00  0.00     0.047 C 
HETATM    9  C   UNK N   1       3.507   0.506  -1.288  0.00  0.00     0.150 C 
HETATM   10  O   UNK N   1       4.352   1.384  -1.343  0.00  0.00    -0.293 OA
HETATM   11  C   UNK N   1       3.738  -0.718  -0.450  0.00  0.00     0.095 C 
HETATM   12  C   UNK N   1       2.426  -1.137   0.255  0.00  0.00    -0.002 C 
HETATM   13  C   UNK N   1       2.697  -2.420   1.075  0.00  0.00     0.019 C 
HETATM   14  C   UNK N   1       2.001  -0.022   1.253  0.00  0.00     0.019 C 
BRANCH   5  15
HETATM   15  O   UNK N   1       1.756  -2.520  -1.626  0.00  0.00    -0.380 OA
HETATM   16  H   UNK N   1       1.163  -2.615  -2.417  0.00  0.00     0.211 HD
ENDBRANCH   5  15
ENDBRANCH   4   5
ENDBRANCH   1   3
BRANCH   1  17
HETATM   17  O   UNK N   1      -3.044  -3.359  -0.645  0.00  0.00    -0.350 OA
BRANCH  17  18
HETATM   18  C   UNK N   1      -3.332  -2.270  -1.511  0.00  0.00     0.292 C 
HETATM   19  O   UNK N   1      -3.727  -1.129  -0.762  0.00  0.00    -0.348 OA
HETATM   20  C   UNK N   1      -3.938  -0.015  -1.618  0.00  0.00     0.179 C 
HETATM   21  C   UNK N   1      -5.158  -0.274  -2.526  0.00  0.00     0.180 C 
HETATM   22  C   UNK N   1      -4.879  -1.540  -3.360  0.00  0.00     0.183 C 
HETATM   23  C   UNK N   1      -4.495  -2.702  -2.432  0.00  0.00     0.204 C 
BRANCH  20  24
HETATM   24  C   UNK N   1      -4.128   1.238  -0.752  0.00  0.00     0.198 C 
BRANCH  24  25
HETATM   25  O   UNK N   1      -2.975   1.488   0.007  0.00  0.00    -0.398 OA
HETATM   26  H   UNK N   1      -2.974   0.835   0.755  0.00  0.00     0.209 HD
ENDBRANCH  24  25
ENDBRANCH  20  24
BRANCH  21  27
HETATM   27  O   UNK N   1      -5.354   0.828  -3.377  0.00  0.00    -0.390 OA
HETATM   28  H   UNK N   1      -6.290   0.783  -3.703  0.00  0.00     0.210 HD
ENDBRANCH  21  27
BRANCH  22  29
HETATM   29  O   UNK N   1      -6.011  -1.899  -4.109  0.00  0.00    -0.390 OA
HETATM   30  H   UNK N   1      -6.042  -1.298  -4.898  0.00  0.00     0.210 HD
ENDBRANCH  22  29
BRANCH  23  31
HETATM   31  O   UNK N   1      -4.124  -3.809  -3.214  0.00  0.00    -0.388 OA
HETATM   32  H   UNK N   1      -4.062  -4.590  -2.605  0.00  0.00     0.210 HD
ENDBRANCH  23  31
ENDBRANCH  17  18
ENDBRANCH   1  17
TORSDOF 10
