REMARK  11 active torsions:
REMARK  status: ('A' for Active; 'I' for Inactive)
REMARK    1  A    between atoms: C_2  and  O_3 
REMARK    2  A    between atoms: C_2  and  C_19 
REMARK    3  A    between atoms: O_3  and  C_4 
REMARK    4  A    between atoms: C_6  and  C_16 
REMARK    5  A    between atoms: C_7  and  O_8 
REMARK    6  A    between atoms: C_10  and  O_11 
REMARK    7  A    between atoms: C_13  and  O_14 
REMARK    8  A    between atoms: C_16  and  O_17 
REMARK    9  A    between atoms: C_25  and  O_26 
REMARK   10  A    between atoms: C_25  and  C_28 
REMARK   11  A    between atoms: C_28  and  O_29 
ROOT
HETATM    1  C   UNK N   1      -0.929   0.593  -0.645  0.00  0.00     0.049 C 
HETATM    2  C   UNK N   1       0.457  -0.163  -0.881  0.00  0.00     0.012 C 
HETATM    3  C   UNK N   1       1.664   0.298   0.048  0.00  0.00    -0.035 C 
HETATM    4  C   UNK N   1       3.019  -0.438  -0.406  0.00  0.00     0.003 C 
HETATM    5  C   UNK N   1       3.318  -0.496  -1.957  0.00  0.00    -0.033 C 
HETATM    6  C   UNK N   1       3.979   0.786  -2.558  0.00  0.00     0.050 C 
HETATM    7  C   UNK N   1       5.528   0.602  -2.400  0.00  0.00     0.083 C 
HETATM    8  C   UNK N   1       5.656  -0.768  -1.679  0.00  0.00     0.023 C 
HETATM    9  C   UNK N   1       4.441  -1.521  -2.205  0.00  0.00     0.017 C 
HETATM   10  C   UNK N   1       5.541  -0.682  -0.133  0.00  0.00     0.008 C 
HETATM   11  C   UNK N   1       4.289   0.071   0.329  0.00  0.00     0.007 C 
HETATM   12  C   UNK N   1       2.056  -0.945  -2.699  0.00  0.00     0.010 C 
HETATM   13  C   UNK N   1       0.876  -0.044  -2.387  0.00  0.00     0.007 C 
HETATM   14  C   UNK N   1       1.747   1.859  -0.003  0.00  0.00     0.010 C 
HETATM   15  C   UNK N   1       0.409   2.560   0.311  0.00  0.00     0.002 C 
HETATM   16  C   UNK N   1      -0.685   2.128  -0.684  0.00  0.00     0.020 C 
HETATM   17  C   UNK N   1       1.438  -0.150   1.527  0.00  0.00     0.016 C 
HETATM   18  C   UNK N   1      -1.676   0.217   0.666  0.00  0.00     0.026 C 
ENDROOT
BRANCH   1  19
HETATM   19  C   UNK N   1      -1.914   0.158  -1.726  0.00  0.00     0.270 C 
HETATM   20  O   UNK N   1      -2.402   0.970  -2.500  0.00  0.00    -0.264 OA
BRANCH  19  21
HETATM   21  O   UNK N   1      -2.238  -1.159  -1.808  0.00  0.00    -0.286 OA
BRANCH  21  22
HETATM   22  C   UNK N   1      -3.144  -1.690  -2.700  0.00  0.00     0.301 C 
HETATM   23  O   UNK N   1      -4.400  -1.072  -2.484  0.00  0.00    -0.348 OA
HETATM   24  C   UNK N   1      -5.352  -1.530  -3.426  0.00  0.00     0.179 C 
HETATM   25  C   UNK N   1      -5.640  -3.030  -3.187  0.00  0.00     0.180 C 
HETATM   26  C   UNK N   1      -4.322  -3.817  -3.334  0.00  0.00     0.183 C 
HETATM   27  C   UNK N   1      -3.248  -3.204  -2.426  0.00  0.00     0.205 C 
BRANCH  24  28
HETATM   28  C   UNK N   1      -6.621  -0.682  -3.266  0.00  0.00     0.198 C 
BRANCH  28  29
HETATM   29  O   UNK N   1      -6.346   0.668  -3.532  0.00  0.00    -0.398 OA
HETATM   30  H   UNK N   1      -5.864   1.027  -2.742  0.00  0.00     0.209 HD
ENDBRANCH  28  29
ENDBRANCH  24  28
BRANCH  25  31
HETATM   31  O   UNK N   1      -6.581  -3.486  -4.125  0.00  0.00    -0.390 OA
HETATM   32  H   UNK N   1      -6.986  -4.312  -3.752  0.00  0.00     0.210 HD
ENDBRANCH  25  31
BRANCH  26  33
HETATM   33  O   UNK N   1      -4.505  -5.165  -2.983  0.00  0.00    -0.390 OA
HETATM   34  H   UNK N   1      -4.961  -5.607  -3.745  0.00  0.00     0.210 HD
ENDBRANCH  26  33
BRANCH  27  35
HETATM   35  O   UNK N   1      -2.019  -3.841  -2.668  0.00  0.00    -0.388 OA
HETATM   36  H   UNK N   1      -1.386  -3.537  -1.967  0.00  0.00     0.210 HD
ENDBRANCH  27  35
ENDBRANCH  21  22
ENDBRANCH  19  21
ENDBRANCH   1  19
BRANCH   7  37
HETATM   37  O   UNK N   1       6.118   1.624  -1.632  0.00  0.00    -0.387 OA
HETATM   38  H   UNK N   1       5.913   2.486  -2.079  0.00  0.00     0.210 HD
ENDBRANCH   7  37
BRANCH   7  39
HETATM   39  C   UNK N   1       6.218   0.556  -3.795  0.00  0.00     0.202 C 
BRANCH  39  40
HETATM   40  O   UNK N   1       7.590   0.291  -3.673  0.00  0.00    -0.398 OA
HETATM   41  H   UNK N   1       8.018   1.131  -3.367  0.00  0.00     0.209 HD
ENDBRANCH  39  40
ENDBRANCH   7  39
TORSDOF 11
