REMARK  8 active torsions:
REMARK  status: ('A' for Active; 'I' for Inactive)
REMARK    1  A    between atoms: C_6  and  O_7 
REMARK    2  A    between atoms: O_7  and  C_8 
REMARK    3  A    between atoms: C_10  and  C_20 
REMARK    4  A    between atoms: C_11  and  O_12 
REMARK    5  A    between atoms: C_14  and  O_15 
REMARK    6  A    between atoms: C_17  and  O_18 
REMARK    7  A    between atoms: C_20  and  O_21 
REMARK    8  A    between atoms: C_28  and  O_29 
ROOT
HETATM    1  O   UNK N   1      -2.127   0.289   2.367  0.00  0.00    -0.265 OA
HETATM    2  C   UNK N   1      -1.757   0.226   1.206  0.00  0.00     0.263 C 
HETATM    3  O   UNK N   1      -0.482   0.002   0.879  0.00  0.00    -0.315 OA
HETATM    4  C   UNK N   1      -0.336  -0.261  -0.462  0.00  0.00     0.144 C 
HETATM    5  C   UNK N   1      -1.653   0.290  -1.115  0.00  0.00     0.058 C 
HETATM    6  C   UNK N   1      -2.092  -0.459  -2.424  0.00  0.00     0.136 C 
HETATM    7  C   UNK N   1      -1.101  -0.283  -3.615  0.00  0.00     0.066 C 
HETATM    8  C   UNK N   1       0.312  -0.620  -3.227  0.00  0.00    -0.082 C 
HETATM    9  C   UNK N   1       1.107   0.467  -2.514  0.00  0.00     0.023 C 
HETATM   10  C   UNK N   1       0.978   0.365  -0.988  0.00  0.00     0.030 C 
HETATM   11  C   UNK N   1       2.278  -0.343  -0.585  0.00  0.00     0.017 C 
HETATM   12  C   UNK N   1       3.308   0.424  -1.430  0.00  0.00     0.123 C 
HETATM   13  C   UNK N   1       2.632   0.476  -2.806  0.00  0.00     0.041 C 
HETATM   14  C   UNK N   1       2.589  -0.342   0.915  0.00  0.00     0.013 C 
HETATM   15  C   UNK N   1       0.757  -1.884  -3.389  0.00  0.00     0.015 C 
HETATM   16  C   UNK N   1      -2.679   0.172   0.047  0.00  0.00     0.090 C 
HETATM   17  C   UNK N   1      -3.710   1.304   0.067  0.00  0.00     0.021 C 
ENDROOT
BRANCH   6  18
HETATM   18  O   UNK N   1      -3.409  -0.048  -2.788  0.00  0.00    -0.352 OA
BRANCH  18  19
HETATM   19  C   UNK N   1      -4.043  -0.849  -3.792  0.00  0.00     0.292 C 
HETATM   20  O   UNK N   1      -5.254  -0.201  -4.209  0.00  0.00    -0.348 OA
HETATM   21  C   UNK N   1      -6.451  -0.762  -3.690  0.00  0.00     0.179 C 
HETATM   22  C   UNK N   1      -6.625  -2.264  -4.075  0.00  0.00     0.180 C 
HETATM   23  C   UNK N   1      -5.275  -2.963  -4.314  0.00  0.00     0.183 C 
HETATM   24  C   UNK N   1      -4.209  -2.366  -3.403  0.00  0.00     0.204 C 
BRANCH  21  25
HETATM   25  C   UNK N   1      -6.600  -0.451  -2.180  0.00  0.00     0.198 C 
BRANCH  25  26
HETATM   26  O   UNK N   1      -6.727   0.930  -1.963  0.00  0.00    -0.398 OA
HETATM   27  H   UNK N   1      -5.947   1.375  -2.382  0.00  0.00     0.209 HD
ENDBRANCH  25  26
ENDBRANCH  21  25
BRANCH  22  28
HETATM   28  O   UNK N   1      -7.393  -2.374  -5.247  0.00  0.00    -0.390 OA
HETATM   29  H   UNK N   1      -7.709  -3.314  -5.299  0.00  0.00     0.210 HD
ENDBRANCH  22  28
BRANCH  23  30
HETATM   30  O   UNK N   1      -5.396  -4.356  -4.171  0.00  0.00    -0.390 OA
HETATM   31  H   UNK N   1      -5.570  -4.544  -3.212  0.00  0.00     0.210 HD
ENDBRANCH  23  30
BRANCH  24  32
HETATM   32  O   UNK N   1      -3.002  -3.080  -3.537  0.00  0.00    -0.388 OA
HETATM   33  H   UNK N   1      -2.725  -3.042  -4.490  0.00  0.00     0.210 HD
ENDBRANCH  24  32
ENDBRANCH  18  19
ENDBRANCH   6  18
BRANCH  12  34
HETATM   34  O   UNK N   1       3.461   1.730  -0.929  0.00  0.00    -0.395 OA
HETATM   35  H   UNK N   1       4.269   2.106  -1.365  0.00  0.00     0.210 HD
ENDBRANCH  12  34
TORSDOF 8
