REMARK  8 active torsions:
REMARK  status: ('A' for Active; 'I' for Inactive)
REMARK    1  A    between atoms: C_6  and  O_7 
REMARK    2  A    between atoms: O_7  and  C_8 
REMARK    3  A    between atoms: C_10  and  C_20 
REMARK    4  A    between atoms: C_11  and  O_12 
REMARK    5  A    between atoms: C_14  and  O_15 
REMARK    6  A    between atoms: C_17  and  O_18 
REMARK    7  A    between atoms: C_20  and  O_21 
REMARK    8  A    between atoms: C_28  and  O_29 
ROOT
HETATM    1  O   UNK N   1       4.272   1.682  -1.987  0.00  0.00    -0.265 OA
HETATM    2  C   UNK N   1       3.089   1.439  -1.811  0.00  0.00     0.263 C 
HETATM    3  O   UNK N   1       2.634   0.916  -0.671  0.00  0.00    -0.315 OA
HETATM    4  C   UNK N   1       1.262   0.951  -0.606  0.00  0.00     0.144 C 
HETATM    5  C   UNK N   1       0.799   1.151  -2.081  0.00  0.00     0.058 C 
HETATM    6  C   UNK N   1      -0.549   1.935  -2.239  0.00  0.00     0.136 C 
HETATM    7  C   UNK N   1      -1.786   1.265  -1.556  0.00  0.00     0.066 C 
HETATM    8  C   UNK N   1      -1.585   0.663  -0.185  0.00  0.00    -0.082 C 
HETATM    9  C   UNK N   1      -0.754  -0.609  -0.129  0.00  0.00     0.023 C 
HETATM   10  C   UNK N   1       0.726  -0.318   0.100  0.00  0.00     0.030 C 
HETATM   11  C   UNK N   1       0.797  -0.229   1.632  0.00  0.00     0.017 C 
HETATM   12  C   UNK N   1      -0.057  -1.419   2.087  0.00  0.00     0.123 C 
HETATM   13  C   UNK N   1      -1.123  -1.597   0.992  0.00  0.00     0.041 C 
HETATM   14  C   UNK N   1       2.213  -0.251   2.216  0.00  0.00     0.013 C 
HETATM   15  C   UNK N   1      -2.208   1.190   0.887  0.00  0.00     0.015 C 
HETATM   16  C   UNK N   1       2.008   1.890  -2.721  0.00  0.00     0.090 C 
HETATM   17  C   UNK N   1       2.261   1.507  -4.183  0.00  0.00     0.021 C 
ENDROOT
BRANCH   6  18
HETATM   18  O   UNK N   1      -0.772   2.133  -3.638  0.00  0.00    -0.352 OA
BRANCH  18  19
HETATM   19  C   UNK N   1      -1.891   2.955  -3.943  0.00  0.00     0.292 C 
HETATM   20  O   UNK N   1      -3.073   2.202  -3.740  0.00  0.00    -0.348 OA
HETATM   21  C   UNK N   1      -4.225   3.003  -3.890  0.00  0.00     0.179 C 
HETATM   22  C   UNK N   1      -4.383   3.341  -5.382  0.00  0.00     0.180 C 
HETATM   23  C   UNK N   1      -3.121   4.117  -5.823  0.00  0.00     0.183 C 
HETATM   24  C   UNK N   1      -1.835   3.347  -5.439  0.00  0.00     0.204 C 
BRANCH  21  25
HETATM   25  C   UNK N   1      -5.418   2.231  -3.312  0.00  0.00     0.198 C 
BRANCH  25  26
HETATM   26  O   UNK N   1      -5.597   1.004  -3.968  0.00  0.00    -0.398 OA
HETATM   27  H   UNK N   1      -4.932   0.374  -3.582  0.00  0.00     0.209 HD
ENDBRANCH  25  26
ENDBRANCH  21  25
BRANCH  22  28
HETATM   28  O   UNK N   1      -5.532   4.124  -5.580  0.00  0.00    -0.390 OA
HETATM   29  H   UNK N   1      -5.763   4.055  -6.543  0.00  0.00     0.210 HD
ENDBRANCH  22  28
BRANCH  23  30
HETATM   30  O   UNK N   1      -3.151   4.393  -7.202  0.00  0.00    -0.390 OA
HETATM   31  H   UNK N   1      -3.208   3.523  -7.679  0.00  0.00     0.210 HD
ENDBRANCH  23  30
BRANCH  24  32
HETATM   32  O   UNK N   1      -0.719   4.157  -5.705  0.00  0.00    -0.388 OA
HETATM   33  H   UNK N   1       0.078   3.567  -5.693  0.00  0.00     0.210 HD
ENDBRANCH  24  32
ENDBRANCH  18  19
ENDBRANCH   6  18
BRANCH  12  34
HETATM   34  O   UNK N   1      -0.639  -1.211   3.346  0.00  0.00    -0.395 OA
HETATM   35  H   UNK N   1       0.091  -1.289   4.013  0.00  0.00     0.210 HD
ENDBRANCH  12  34
TORSDOF 8
