REMARK  13 active torsions:
REMARK  status: ('A' for Active; 'I' for Inactive)
REMARK    1  A    between atoms: C_3  and  C_32 
REMARK    2  A    between atoms: C_5  and  C_7 
REMARK    3  A    between atoms: C_7  and  C_8 
REMARK    4  A    between atoms: C_8  and  C_9 
REMARK    5  A    between atoms: C_9  and  C_10 
REMARK    6  A    between atoms: C_11  and  C_12 
REMARK    7  A    between atoms: C_12  and  C_14 
REMARK    8  A    between atoms: C_14  and  C_15 
REMARK    9  A    between atoms: C_16  and  C_17 
REMARK   10  A    between atoms: C_17  and  C_18 
REMARK   11  A    between atoms: C_19  and  O_20 
REMARK   12  A    between atoms: C_24  and  O_26 
REMARK   13  A    between atoms: C_32  and  O_33 
ROOT
HETATM    1  C   UNK N   1      -1.591  -1.334  -2.315  0.00  0.00    -0.080 C 
HETATM    2  C   UNK N   1      -2.345  -2.386  -1.909  0.00  0.00     0.052 C 
HETATM    3  C   UNK N   1      -1.142  -1.244  -3.750  0.00  0.00     0.043 C 
ENDROOT
BRANCH   2   4
HETATM    4  C   UNK N   1      -2.771  -2.606  -0.501  0.00  0.00     0.153 C 
HETATM    5  O   UNK N   1      -2.097  -2.179   0.425  0.00  0.00    -0.293 OA
BRANCH   4   6
HETATM    6  C   UNK N   1      -4.004  -3.392  -0.180  0.00  0.00     0.116 C 
BRANCH   6   7
HETATM    7  C   UNK N   1      -4.868  -2.570   0.763  0.00  0.00    -0.080 C 
HETATM    8  C   UNK N   1      -5.491  -1.414   0.405  0.00  0.00    -0.019 C 
HETATM    9  C   UNK N   1      -5.002  -3.069   2.180  0.00  0.00     0.043 C 
BRANCH   8  10
HETATM   10  C   UNK N   1      -5.480  -0.794  -0.981  0.00  0.00     0.068 C 
BRANCH  10  11
HETATM   11  C   UNK N   1      -4.947   0.636  -1.089  0.00  0.00    -0.018 A 
HETATM   12  C   UNK N   1      -4.971   1.377  -2.325  0.00  0.00     0.080 A 
HETATM   13  C   UNK N   1      -4.432   2.684  -2.356  0.00  0.00    -0.025 A 
HETATM   14  C   UNK N   1      -3.899   3.263  -1.200  0.00  0.00     0.046 A 
HETATM   15  C   UNK N   1      -4.443   3.474  -3.639  0.00  0.00     0.051 C 
HETATM   16  C   UNK N   1      -3.884   2.559  -0.001  0.00  0.00     0.066 A 
HETATM   17  C   UNK N   1      -4.394   1.263   0.057  0.00  0.00     0.046 A 
BRANCH  12  18
HETATM   18  O   UNK N   1      -5.497   0.924  -3.505  0.00  0.00    -0.355 OA
HETATM   19  C   UNK N   1      -6.362  -0.115  -3.764  0.00  0.00     0.210 C 
ENDBRANCH  12  18
BRANCH  16  20
HETATM   20  O   UNK N   1      -3.375   3.124   1.115  0.00  0.00    -0.361 OA
HETATM   21  H   UNK N   1      -3.025   4.026   1.115  0.00  0.00     0.217 HD
ENDBRANCH  16  20
ENDBRANCH  10  11
ENDBRANCH   8  10
ENDBRANCH   6   7
ENDBRANCH   4   6
ENDBRANCH   2   4
BRANCH   1  22
HETATM   22  C   UNK N   1      -1.265  -0.174  -1.395  0.00  0.00     0.034 C 
BRANCH  22  23
HETATM   23  C   UNK N   1       0.123  -0.270  -0.767  0.00  0.00     0.007 C 
BRANCH  23  24
HETATM   24  C   UNK N   1       0.323   0.912   0.198  0.00  0.00     0.038 C 
BRANCH  24  25
HETATM   25  C   UNK N   1       1.722   0.946   0.881  0.00  0.00     0.065 C 
HETATM   26  O   UNK N   1       2.714   0.929  -0.133  0.00  0.00    -0.364 OA
HETATM   27  C   UNK N   1       2.920   2.273  -0.540  0.00  0.00     0.225 C 
HETATM   28  C   UNK N   1       2.432   3.090   0.607  0.00  0.00     0.161 C 
HETATM   29  O   UNK N   1       2.503   4.306   0.676  0.00  0.00    -0.295 OA
HETATM   30  C   UNK N   1       1.891   2.255   1.674  0.00  0.00     0.119 C 
HETATM   31  C   UNK N   1       1.903  -0.251   1.831  0.00  0.00     0.046 C 
BRANCH  27  32
HETATM   32  C   UNK N   1       4.423   2.469  -0.906  0.00  0.00     0.083 C 
HETATM   33  C   UNK N   1       4.680   3.892  -1.433  0.00  0.00     0.048 C 
HETATM   34  C   UNK N   1       5.348   2.205   0.303  0.00  0.00     0.048 C 
BRANCH  32  35
HETATM   35  O   UNK N   1       4.753   1.585  -1.954  0.00  0.00    -0.388 OA
HETATM   36  H   UNK N   1       4.706   0.655  -1.610  0.00  0.00     0.210 HD
ENDBRANCH  32  35
ENDBRANCH  27  32
ENDBRANCH  24  25
ENDBRANCH  23  24
ENDBRANCH  22  23
ENDBRANCH   1  22
TORSDOF 13
