REMARK  8 active torsions:
REMARK  status: ('A' for Active; 'I' for Inactive)
REMARK    1  A    between atoms: C_2  and  C_3 
REMARK    2  A    between atoms: C_2  and  C_11 
REMARK    3  A    between atoms: C_6  and  O_7 
REMARK    4  A    between atoms: C_11  and  C_12 
REMARK    5  A    between atoms: C_12  and  O_13 
REMARK    6  A    between atoms: C_12  and  C_15 
REMARK    7  A    between atoms: C_15  and  C_16 
REMARK    8  A    between atoms: C_16  and  C_17 
ROOT
HETATM    1  C   UNK N   1       1.736   0.396  -2.437  0.00  0.00     0.115 C 
ENDROOT
BRANCH   1   2
HETATM    2  C   UNK N   1       0.831   1.603  -2.585  0.00  0.00     0.162 C 
HETATM    3  O   UNK N   1       1.241   2.709  -2.268  0.00  0.00    -0.292 OA
BRANCH   2   4
HETATM    4  C   UNK N   1      -0.602   1.435  -2.977  0.00  0.00     0.010 A 
HETATM    5  C   UNK N   1      -1.481   2.533  -2.886  0.00  0.00     0.018 A 
HETATM    6  C   UNK N   1      -2.840   2.378  -3.174  0.00  0.00     0.037 A 
HETATM    7  C   UNK N   1      -3.341   1.131  -3.566  0.00  0.00     0.065 A 
HETATM    8  C   UNK N   1      -2.474   0.040  -3.679  0.00  0.00     0.037 A 
HETATM    9  C   UNK N   1      -1.114   0.187  -3.385  0.00  0.00     0.018 A 
BRANCH   7  10
HETATM   10  O   UNK N   1      -4.654   0.968  -3.827  0.00  0.00    -0.361 OA
HETATM   11  H   UNK N   1      -5.285   1.696  -3.734  0.00  0.00     0.217 HD
ENDBRANCH   7  10
ENDBRANCH   2   4
ENDBRANCH   1   2
BRANCH   1  12
HETATM   12  C   UNK N   1       3.052   0.690  -1.674  0.00  0.00     0.125 C 
BRANCH  12  13
HETATM   13  O   UNK N   1       3.879   1.509  -2.465  0.00  0.00    -0.395 OA
HETATM   14  H   UNK N   1       3.840   2.429  -2.094  0.00  0.00     0.210 HD
ENDBRANCH  12  13
BRANCH  12  15
HETATM   15  C   UNK N   1       3.842  -0.586  -1.291  0.00  0.00     0.037 C 
BRANCH  15  16
HETATM   16  C   UNK N   1       3.051  -1.595  -0.425  0.00  0.00     0.041 C 
BRANCH  16  17
HETATM   17  C   UNK N   1       2.585  -1.024   0.896  0.00  0.00    -0.058 A 
HETATM   18  C   UNK N   1       1.239  -0.653   1.078  0.00  0.00     0.007 A 
HETATM   19  C   UNK N   1       0.808  -0.135   2.302  0.00  0.00     0.001 A 
HETATM   20  C   UNK N   1       1.707  -0.005   3.362  0.00  0.00     0.000 A 
HETATM   21  C   UNK N   1       3.042  -0.383   3.197  0.00  0.00     0.001 A 
HETATM   22  C   UNK N   1       3.485  -0.882   1.966  0.00  0.00     0.007 A 
ENDBRANCH  16  17
ENDBRANCH  15  16
ENDBRANCH  12  15
ENDBRANCH   1  12
TORSDOF 8
