REMARK  9 active torsions:
REMARK  status: ('A' for Active; 'I' for Inactive)
REMARK    1  A    between atoms: C_2  and  O_3 
REMARK    2  A    between atoms: C_2  and  C_5 
REMARK    3  A    between atoms: C_7  and  O_8 
REMARK    4  A    between atoms: O_8  and  C_9 
REMARK    5  A    between atoms: C_10  and  O_11 
REMARK    6  A    between atoms: C_13  and  O_14 
REMARK    7  A    between atoms: C_16  and  O_17 
REMARK    8  A    between atoms: C_21  and  O_22 
REMARK    9  A    between atoms: C_24  and  O_26 
ROOT
HETATM    1  C   UNK N   1      -3.013   1.050  -1.252  0.00  0.00     0.043 A 
HETATM    2  C   UNK N   1      -1.699   1.383  -0.880  0.00  0.00     0.058 A 
HETATM    3  C   UNK N   1      -1.419   1.876   0.405  0.00  0.00     0.113 A 
HETATM    4  C   UNK N   1      -2.448   2.022   1.345  0.00  0.00     0.133 A 
HETATM    5  C   UNK N   1      -3.774   1.677   0.985  0.00  0.00     0.102 A 
HETATM    6  C   UNK N   1      -4.042   1.209  -0.307  0.00  0.00     0.057 A 
ENDROOT
BRANCH   3   7
HETATM    7  O   UNK N   1      -0.154   2.224   0.738  0.00  0.00    -0.305 OA
BRANCH   7   8
HETATM    8  C   UNK N   1       0.901   1.404   0.522  0.00  0.00     0.112 A 
HETATM    9  C   UNK N   1       1.934   1.776  -0.357  0.00  0.00     0.136 A 
HETATM   10  C   UNK N   1       3.025   0.911  -0.565  0.00  0.00     0.135 A 
HETATM   11  C   UNK N   1       3.077  -0.330   0.126  0.00  0.00     0.101 A 
HETATM   12  C   UNK N   1       2.043  -0.675   1.001  0.00  0.00     0.042 A 
HETATM   13  C   UNK N   1       0.962   0.180   1.194  0.00  0.00     0.043 A 
BRANCH   9  14
HETATM   14  O   UNK N   1       1.887   2.951  -1.022  0.00  0.00    -0.356 OA
HETATM   15  H   UNK N   1       1.147   3.568  -0.933  0.00  0.00     0.218 HD
ENDBRANCH   9  14
BRANCH  10  16
HETATM   16  O   UNK N   1       3.994   1.296  -1.426  0.00  0.00    -0.356 OA
HETATM   17  H   UNK N   1       4.775   0.771  -1.634  0.00  0.00     0.218 HD
ENDBRANCH  10  16
BRANCH  11  18
HETATM   18  O   UNK N   1       4.096  -1.205  -0.030  0.00  0.00    -0.358 OA
HETATM   19  H   UNK N   1       4.846  -1.067  -0.618  0.00  0.00     0.218 HD
ENDBRANCH  11  18
ENDBRANCH   7   8
ENDBRANCH   3   7
BRANCH   4  20
HETATM   20  O   UNK N   1      -2.127   2.474   2.579  0.00  0.00    -0.356 OA
HETATM   21  H   UNK N   1      -2.755   2.566   3.304  0.00  0.00     0.218 HD
ENDBRANCH   4  20
BRANCH   1  22
HETATM   22  C   UNK N   1      -3.339   0.542  -2.621  0.00  0.00     0.176 C 
HETATM   23  O   UNK N   1      -4.506   0.424  -2.956  0.00  0.00    -0.646 OA
BRANCH  22  24
HETATM   24  O   UNK N   1      -2.376   0.189  -3.506  0.00  0.00    -0.773 OA
HETATM   25  H   UNK N   1      -1.436   0.165  -3.293  0.00  0.00     0.167 HD
ENDBRANCH  22  24
ENDBRANCH   1  22
BRANCH   5  26
HETATM   26  O   UNK N   1      -4.809   1.780   1.851  0.00  0.00    -0.358 OA
HETATM   27  H   UNK N   1      -4.725   2.072   2.766  0.00  0.00     0.218 HD
ENDBRANCH   5  26
TORSDOF 9
