REMARK  4 active torsions:
REMARK  status: ('A' for Active; 'I' for Inactive)
REMARK    1  A    between atoms: O_1  and  C_2 
REMARK    2  A    between atoms: O_1  and  C_11 
REMARK    3  A    between atoms: C_4  and  O_5 
REMARK    4  A    between atoms: C_13  and  O_14 
ROOT
HETATM    1  O   UNK N   1      -0.117   1.706  -2.839  0.00  0.00    -0.311 OA
ENDROOT
BRANCH   1   2
HETATM    2  C   UNK N   1      -1.132   0.831  -3.049  0.00  0.00     0.079 A 
HETATM    3  C   UNK N   1      -2.458   1.279  -3.066  0.00  0.00     0.073 A 
HETATM    4  C   UNK N   1      -3.506   0.364  -3.234  0.00  0.00     0.068 A 
HETATM    5  C   UNK N   1      -3.224  -1.002  -3.405  0.00  0.00     0.043 A 
HETATM    6  C   UNK N   1      -1.897  -1.453  -3.418  0.00  0.00    -0.057 A 
HETATM    7  C   UNK N   1      -0.858  -0.536  -3.238  0.00  0.00     0.044 A 
HETATM    8  C   UNK N   1      -1.594  -2.909  -3.618  0.00  0.00     0.048 C 
BRANCH   4   9
HETATM    9  O   UNK N   1      -4.781   0.803  -3.220  0.00  0.00    -0.361 OA
HETATM   10  H   UNK N   1      -5.528   0.195  -3.319  0.00  0.00     0.217 HD
ENDBRANCH   4   9
ENDBRANCH   1   2
BRANCH   1  11
HETATM   11  C   UNK N   1       0.910   1.407  -2.000  0.00  0.00     0.079 A 
HETATM   12  C   UNK N   1       2.226   1.698  -2.370  0.00  0.00     0.073 A 
HETATM   13  C   UNK N   1       3.288   1.349  -1.522  0.00  0.00     0.068 A 
HETATM   14  C   UNK N   1       3.024   0.729  -0.289  0.00  0.00     0.043 A 
HETATM   15  C   UNK N   1       1.706   0.458   0.099  0.00  0.00    -0.057 A 
HETATM   16  C   UNK N   1       0.653   0.793  -0.760  0.00  0.00     0.044 A 
HETATM   17  C   UNK N   1       1.426  -0.191   1.423  0.00  0.00     0.048 C 
BRANCH  13  18
HETATM   18  O   UNK N   1       4.555   1.604  -1.904  0.00  0.00    -0.361 OA
HETATM   19  H   UNK N   1       5.311   1.355  -1.352  0.00  0.00     0.217 HD
ENDBRANCH  13  18
ENDBRANCH   1  11
TORSDOF 4
