REMARK  11 active torsions:
REMARK  status: ('A' for Active; 'I' for Inactive)
REMARK    1  A    between atoms: C_6  and  C_8 
REMARK    2  A    between atoms: C_10  and  O_11 
REMARK    3  A    between atoms: C_13  and  O_14 
REMARK    4  A    between atoms: C_19  and  O_20 
REMARK    5  A    between atoms: O_20  and  C_21 
REMARK    6  A    between atoms: C_23  and  C_33 
REMARK    7  A    between atoms: C_24  and  O_25 
REMARK    8  A    between atoms: C_27  and  O_28 
REMARK    9  A    between atoms: C_30  and  O_31 
REMARK   10  A    between atoms: C_33  and  O_34 
REMARK   11  A    between atoms: C_37  and  O_38 
ROOT
HETATM    1  O   UNK N   1      -1.971  -0.954   4.893  0.00  0.00    -0.287 OA
HETATM    2  C   UNK N   1      -1.861  -0.785   3.691  0.00  0.00     0.190 A 
HETATM    3  C   UNK N   1      -2.983  -0.874   2.828  0.00  0.00     0.081 A 
HETATM    4  C   UNK N   1      -2.769  -0.650   1.451  0.00  0.00     0.095 A 
HETATM    5  O   UNK N   1      -1.560  -0.355   0.992  0.00  0.00    -0.309 OA
HETATM    6  C   UNK N   1      -0.483  -0.279   1.767  0.00  0.00     0.090 A 
HETATM    7  C   UNK N   1      -0.601  -0.495   3.148  0.00  0.00     0.094 A 
HETATM    8  C   UNK N   1      -3.826  -0.744   0.546  0.00  0.00     0.075 A 
HETATM    9  C   UNK N   1      -5.121  -1.051   0.990  0.00  0.00     0.077 A 
HETATM   10  C   UNK N   1      -5.350  -1.248   2.344  0.00  0.00     0.074 A 
HETATM   11  C   UNK N   1      -4.300  -1.172   3.271  0.00  0.00     0.085 A 
ENDROOT
BRANCH   9  12
HETATM   12  O   UNK N   1      -6.156  -1.191   0.129  0.00  0.00    -0.318 OA
BRANCH  12  13
HETATM   13  C   UNK N   1      -6.009  -1.626  -1.176  0.00  0.00     0.298 C 
HETATM   14  O   UNK N   1      -5.795  -0.509  -2.014  0.00  0.00    -0.348 OA
HETATM   15  C   UNK N   1      -5.540  -0.917  -3.351  0.00  0.00     0.179 C 
HETATM   16  C   UNK N   1      -6.789  -1.604  -3.955  0.00  0.00     0.180 C 
HETATM   17  C   UNK N   1      -7.219  -2.785  -3.064  0.00  0.00     0.183 C 
HETATM   18  C   UNK N   1      -7.287  -2.385  -1.580  0.00  0.00     0.205 C 
BRANCH  15  19
HETATM   19  C   UNK N   1      -5.179   0.342  -4.161  0.00  0.00     0.198 C 
BRANCH  19  20
HETATM   20  O   UNK N   1      -6.230   1.273  -4.143  0.00  0.00    -0.398 OA
HETATM   21  H   UNK N   1      -6.408   1.495  -3.191  0.00  0.00     0.209 HD
ENDBRANCH  19  20
ENDBRANCH  15  19
BRANCH  16  22
HETATM   22  O   UNK N   1      -6.499  -2.056  -5.255  0.00  0.00    -0.390 OA
HETATM   23  H   UNK N   1      -7.314  -2.503  -5.602  0.00  0.00     0.210 HD
ENDBRANCH  16  22
BRANCH  17  24
HETATM   24  O   UNK N   1      -8.465  -3.284  -3.484  0.00  0.00    -0.390 OA
HETATM   25  H   UNK N   1      -9.121  -2.539  -3.399  0.00  0.00     0.210 HD
ENDBRANCH  17  24
BRANCH  18  26
HETATM   26  O   UNK N   1      -7.432  -3.555  -0.814  0.00  0.00    -0.388 OA
HETATM   27  H   UNK N   1      -7.427  -3.293   0.142  0.00  0.00     0.210 HD
ENDBRANCH  18  26
ENDBRANCH  12  13
ENDBRANCH   9  12
BRANCH  11  28
HETATM   28  O   UNK N   1      -4.573  -1.395   4.567  0.00  0.00    -0.360 OA
HETATM   29  H   UNK N   1      -5.481  -1.603   4.836  0.00  0.00     0.217 HD
ENDBRANCH  11  28
BRANCH   6  30
HETATM   30  C   UNK N   1       0.813   0.040   1.128  0.00  0.00     0.001 A 
HETATM   31  C   UNK N   1       0.816   0.785  -0.056  0.00  0.00     0.053 A 
HETATM   32  C   UNK N   1       2.015   1.105  -0.698  0.00  0.00     0.099 A 
HETATM   33  C   UNK N   1       3.234   0.660  -0.173  0.00  0.00     0.101 A 
HETATM   34  C   UNK N   1       3.230  -0.101   1.014  0.00  0.00     0.040 A 
HETATM   35  C   UNK N   1       2.035  -0.398   1.661  0.00  0.00     0.017 A 
BRANCH  32  36
HETATM   36  O   UNK N   1       1.984   1.845  -1.819  0.00  0.00    -0.358 OA
HETATM   37  H   UNK N   1       1.136   2.158  -2.165  0.00  0.00     0.218 HD
ENDBRANCH  32  36
BRANCH  33  38
HETATM   38  O   UNK N   1       4.391   0.969  -0.815  0.00  0.00    -0.353 OA
HETATM   39  C   UNK N   1       5.628   0.562  -0.362  0.00  0.00     0.210 C 
ENDBRANCH  33  38
ENDBRANCH   6  30
TORSDOF 11
