REMARK  10 active torsions:
REMARK  status: ('A' for Active; 'I' for Inactive)
REMARK    1  A    between atoms: C_6  and  C_8 
REMARK    2  A    between atoms: C_10  and  O_11 
REMARK    3  A    between atoms: C_13  and  O_14 
REMARK    4  A    between atoms: C_19  and  O_20 
REMARK    5  A    between atoms: O_20  and  C_21 
REMARK    6  A    between atoms: C_24  and  O_25 
REMARK    7  A    between atoms: C_24  and  C_30 
REMARK    8  A    between atoms: C_27  and  O_28 
REMARK    9  A    between atoms: C_30  and  O_31 
REMARK   10  A    between atoms: C_34  and  O_35 
ROOT
HETATM    1  O   UNK N   1      -2.284  -2.938   2.840  0.00  0.00    -0.287 OA
HETATM    2  C   UNK N   1      -1.896  -2.061   2.088  0.00  0.00     0.190 A 
HETATM    3  C   UNK N   1      -2.792  -1.363   1.252  0.00  0.00     0.081 A 
HETATM    4  C   UNK N   1      -2.260  -0.371   0.401  0.00  0.00     0.095 A 
HETATM    5  O   UNK N   1      -0.957  -0.115   0.390  0.00  0.00    -0.309 OA
HETATM    6  C   UNK N   1      -0.085  -0.734   1.181  0.00  0.00     0.090 A 
HETATM    7  C   UNK N   1      -0.539  -1.734   2.061  0.00  0.00     0.094 A 
HETATM    8  C   UNK N   1      -3.096   0.361  -0.439  0.00  0.00     0.075 A 
HETATM    9  C   UNK N   1      -4.484   0.128  -0.446  0.00  0.00     0.077 A 
HETATM   10  C   UNK N   1      -5.018  -0.855   0.392  0.00  0.00     0.074 A 
HETATM   11  C   UNK N   1      -4.187  -1.612   1.235  0.00  0.00     0.085 A 
ENDROOT
BRANCH   9  12
HETATM   12  O   UNK N   1      -5.326   0.825  -1.255  0.00  0.00    -0.318 OA
BRANCH  12  13
HETATM   13  C   UNK N   1      -4.924   1.536  -2.375  0.00  0.00     0.298 C 
HETATM   14  O   UNK N   1      -4.387   0.613  -3.307  0.00  0.00    -0.355 OA
HETATM   15  C   UNK N   1      -5.379   0.406  -4.302  0.00  0.00     0.214 C 
HETATM   16  C   UNK N   1      -6.695   1.020  -3.811  0.00  0.00     0.130 C 
HETATM   17  C   UNK N   1      -6.102   2.204  -3.079  0.00  0.00     0.212 C 
BRANCH  16  18
HETATM   18  O   UNK N   1      -7.314   0.115  -2.921  0.00  0.00    -0.383 OA
HETATM   19  H   UNK N   1      -8.153   0.530  -2.592  0.00  0.00     0.210 HD
ENDBRANCH  16  18
BRANCH  16  20
HETATM   20  C   UNK N   1      -7.642   1.374  -4.978  0.00  0.00     0.207 C 
BRANCH  20  21
HETATM   21  O   UNK N   1      -8.808   2.004  -4.518  0.00  0.00    -0.398 OA
HETATM   22  H   UNK N   1      -8.573   2.953  -4.350  0.00  0.00     0.209 HD
ENDBRANCH  20  21
ENDBRANCH  16  20
BRANCH  17  23
HETATM   23  O   UNK N   1      -6.978   2.921  -2.242  0.00  0.00    -0.387 OA
HETATM   24  H   UNK N   1      -7.253   2.333  -1.494  0.00  0.00     0.210 HD
ENDBRANCH  17  23
ENDBRANCH  12  13
ENDBRANCH   9  12
BRANCH  11  25
HETATM   25  O   UNK N   1      -4.726  -2.569   2.020  0.00  0.00    -0.360 OA
HETATM   26  H   UNK N   1      -5.673  -2.769   2.005  0.00  0.00     0.217 HD
ENDBRANCH  11  25
BRANCH   6  27
HETATM   27  C   UNK N   1       1.345  -0.329   1.103  0.00  0.00     0.001 A 
HETATM   28  C   UNK N   1       1.807   0.342  -0.043  0.00  0.00     0.053 A 
HETATM   29  C   UNK N   1       3.147   0.743  -0.148  0.00  0.00     0.099 A 
HETATM   30  C   UNK N   1       4.038   0.505   0.906  0.00  0.00     0.101 A 
HETATM   31  C   UNK N   1       3.577  -0.159   2.061  0.00  0.00     0.040 A 
HETATM   32  C   UNK N   1       2.249  -0.580   2.153  0.00  0.00     0.017 A 
BRANCH  29  33
HETATM   33  O   UNK N   1       3.585   1.362  -1.265  0.00  0.00    -0.358 OA
HETATM   34  H   UNK N   1       3.003   1.521  -2.023  0.00  0.00     0.218 HD
ENDBRANCH  29  33
BRANCH  30  35
HETATM   35  O   UNK N   1       5.326   0.926   0.781  0.00  0.00    -0.353 OA
HETATM   36  C   UNK N   1       6.297   0.815   1.754  0.00  0.00     0.210 C 
ENDBRANCH  30  35
ENDBRANCH   6  27
TORSDOF 10
