REMARK  11 active torsions:
REMARK  status: ('A' for Active; 'I' for Inactive)
REMARK    1  A    between atoms: C_6  and  C_8 
REMARK    2  A    between atoms: C_10  and  O_11 
REMARK    3  A    between atoms: C_13  and  O_14 
REMARK    4  A    between atoms: C_19  and  O_20 
REMARK    5  A    between atoms: O_20  and  C_21 
REMARK    6  A    between atoms: C_23  and  C_33 
REMARK    7  A    between atoms: C_24  and  O_25 
REMARK    8  A    between atoms: C_27  and  O_28 
REMARK    9  A    between atoms: C_30  and  O_31 
REMARK   10  A    between atoms: C_33  and  O_34 
REMARK   11  A    between atoms: C_37  and  O_38 
ROOT
HETATM    1  O   UNK N   1       4.730   1.632  -2.377  0.00  0.00    -0.287 OA
HETATM    2  C   UNK N   1       3.626   1.268  -2.013  0.00  0.00     0.190 A 
HETATM    3  C   UNK N   1       2.527   1.262  -2.899  0.00  0.00     0.081 A 
HETATM    4  C   UNK N   1       1.282   0.821  -2.400  0.00  0.00     0.095 A 
HETATM    5  O   UNK N   1       1.151   0.460  -1.130  0.00  0.00    -0.309 OA
HETATM    6  C   UNK N   1       2.166   0.443  -0.269  0.00  0.00     0.090 A 
HETATM    7  C   UNK N   1       3.445   0.839  -0.696  0.00  0.00     0.094 A 
HETATM    8  C   UNK N   1       0.173   0.735  -3.242  0.00  0.00     0.075 A 
HETATM    9  C   UNK N   1       0.276   1.102  -4.594  0.00  0.00     0.077 A 
HETATM   10  C   UNK N   1       1.493   1.587  -5.084  0.00  0.00     0.074 A 
HETATM   11  C   UNK N   1       2.625   1.663  -4.254  0.00  0.00     0.085 A 
ENDROOT
BRANCH   9  12
HETATM   12  O   UNK N   1      -0.770   0.970  -5.450  0.00  0.00    -0.318 OA
BRANCH  12  13
HETATM   13  C   UNK N   1      -1.774   0.020  -5.308  0.00  0.00     0.298 C 
HETATM   14  O   UNK N   1      -2.817   0.470  -4.457  0.00  0.00    -0.348 OA
HETATM   15  C   UNK N   1      -3.522   1.577  -5.002  0.00  0.00     0.179 C 
HETATM   16  C   UNK N   1      -4.177   1.228  -6.365  0.00  0.00     0.180 C 
HETATM   17  C   UNK N   1      -3.092   0.727  -7.338  0.00  0.00     0.183 C 
HETATM   18  C   UNK N   1      -2.317  -0.424  -6.678  0.00  0.00     0.205 C 
BRANCH  15  19
HETATM   19  C   UNK N   1      -4.591   2.001  -3.979  0.00  0.00     0.198 C 
BRANCH  19  20
HETATM   20  O   UNK N   1      -5.525   0.976  -3.760  0.00  0.00    -0.398 OA
HETATM   21  H   UNK N   1      -5.057   0.257  -3.260  0.00  0.00     0.209 HD
ENDBRANCH  19  20
ENDBRANCH  15  19
BRANCH  16  22
HETATM   22  O   UNK N   1      -4.812   2.367  -6.888  0.00  0.00    -0.390 OA
HETATM   23  H   UNK N   1      -5.309   2.081  -7.698  0.00  0.00     0.210 HD
ENDBRANCH  16  22
BRANCH  17  24
HETATM   24  O   UNK N   1      -3.654   0.314  -8.559  0.00  0.00    -0.390 OA
HETATM   25  H   UNK N   1      -4.283  -0.432  -8.365  0.00  0.00     0.210 HD
ENDBRANCH  17  24
BRANCH  18  26
HETATM   26  O   UNK N   1      -1.285  -0.895  -7.510  0.00  0.00    -0.388 OA
HETATM   27  H   UNK N   1      -0.677  -0.134  -7.704  0.00  0.00     0.210 HD
ENDBRANCH  18  26
ENDBRANCH  12  13
ENDBRANCH   9  12
BRANCH  11  28
HETATM   28  O   UNK N   1       3.797   2.102  -4.761  0.00  0.00    -0.360 OA
HETATM   29  H   UNK N   1       3.885   2.371  -5.686  0.00  0.00     0.217 HD
ENDBRANCH  11  28
BRANCH   6  30
HETATM   30  C   UNK N   1       1.895  -0.002   1.121  0.00  0.00     0.001 A 
HETATM   31  C   UNK N   1       0.589   0.097   1.627  0.00  0.00     0.053 A 
HETATM   32  C   UNK N   1       0.294  -0.312   2.935  0.00  0.00     0.099 A 
HETATM   33  C   UNK N   1       1.299  -0.857   3.745  0.00  0.00     0.101 A 
HETATM   34  C   UNK N   1       2.610  -0.967   3.235  0.00  0.00     0.040 A 
HETATM   35  C   UNK N   1       2.906  -0.532   1.942  0.00  0.00     0.017 A 
BRANCH  32  36
HETATM   36  O   UNK N   1      -0.959  -0.181   3.421  0.00  0.00    -0.358 OA
HETATM   37  H   UNK N   1      -1.669   0.219   2.898  0.00  0.00     0.218 HD
ENDBRANCH  32  36
BRANCH  33  38
HETATM   38  O   UNK N   1       0.976  -1.265   5.001  0.00  0.00    -0.353 OA
HETATM   39  C   UNK N   1       1.846  -1.862   5.889  0.00  0.00     0.210 C 
ENDBRANCH  33  38
ENDBRANCH   6  30
TORSDOF 11
