REMARK  7 active torsions:
REMARK  status: ('A' for Active; 'I' for Inactive)
REMARK    1  A    between atoms: C_2  and  O_3 
REMARK    2  A    between atoms: O_3  and  C_4 
REMARK    3  A    between atoms: C_4  and  C_5 
REMARK    4  A    between atoms: C_6  and  O_7 
REMARK    5  A    between atoms: C_14  and  O_15 
REMARK    6  A    between atoms: C_22  and  C_24 
REMARK    7  A    between atoms: C_24  and  O_25 
ROOT
HETATM    1  C   UNK N   1       1.497  -0.382  -2.126  0.00  0.00     0.008 C 
HETATM    2  C   UNK N   1       1.441  -1.947  -2.124  0.00  0.00     0.128 C 
HETATM    3  C   UNK N   1       1.386  -2.520  -0.694  0.00  0.00     0.033 C 
HETATM    4  C   UNK N   1       0.117  -2.031   0.031  0.00  0.00     0.012 C 
HETATM    5  C   UNK N   1       0.030  -0.474   0.167  0.00  0.00    -0.035 C 
HETATM    6  C   UNK N   1       0.273   0.165  -1.257  0.00  0.00     0.009 C 
HETATM    7  C   UNK N   1       0.128   1.729  -1.251  0.00  0.00     0.039 C 
HETATM    8  C   UNK N   1      -0.971   2.298  -0.320  0.00  0.00     0.131 C 
HETATM    9  C   UNK N   1      -2.042   1.243  -0.037  0.00  0.00     0.009 C 
HETATM   10  C   UNK N   1      -1.419  -0.007   0.723  0.00  0.00     0.009 C 
HETATM   11  C   UNK N   1      -2.517  -1.116   0.849  0.00  0.00     0.007 C 
HETATM   12  C   UNK N   1      -3.869  -0.544   1.353  0.00  0.00     0.009 C 
HETATM   13  C   UNK N   1      -4.283   0.741   0.584  0.00  0.00     0.017 C 
HETATM   14  C   UNK N   1      -4.106   0.561  -0.896  0.00  0.00    -0.055 C 
HETATM   15  C   UNK N   1      -2.855   0.841  -1.253  0.00  0.00    -0.009 C 
HETATM   16  C   UNK N   1      -3.199   1.796   0.820  0.00  0.00     0.025 C 
HETATM   17  C   UNK N   1       1.103  -0.045   1.213  0.00  0.00     0.016 C 
HETATM   18  C   UNK N   1       1.340   0.096  -3.601  0.00  0.00     0.020 C 
ENDROOT
BRANCH   1  19
HETATM   19  C   UNK N   1       2.929   0.081  -1.689  0.00  0.00     0.191 C 
BRANCH  19  20
HETATM   20  O   UNK N   1       3.048   1.454  -1.760  0.00  0.00    -0.321 OA
BRANCH  20  21
HETATM   21  C   UNK N   1       4.204   2.138  -1.575  0.00  0.00     0.254 C 
HETATM   22  O   UNK N   1       5.262   1.551  -1.411  0.00  0.00    -0.266 OA
HETATM   23  C   UNK N   1       4.168   3.633  -1.590  0.00  0.00     0.126 C 
ENDBRANCH  20  21
ENDBRANCH  19  20
ENDBRANCH   1  19
BRANCH   2  24
HETATM   24  O   UNK N   1       0.309  -2.392  -2.836  0.00  0.00    -0.395 OA
HETATM   25  H   UNK N   1       0.493  -3.322  -3.128  0.00  0.00     0.210 HD
ENDBRANCH   2  24
BRANCH   8  26
HETATM   26  O   UNK N   1      -0.399   2.713   0.896  0.00  0.00    -0.394 OA
HETATM   27  H   UNK N   1      -0.950   3.461   1.247  0.00  0.00     0.210 HD
ENDBRANCH   8  26
BRANCH  14  28
HETATM   28  C   UNK N   1      -5.174   0.099  -1.847  0.00  0.00     0.198 C 
BRANCH  28  29
HETATM   29  O   UNK N   1      -5.305   0.982  -2.928  0.00  0.00    -0.397 OA
HETATM   30  H   UNK N   1      -5.571   1.863  -2.556  0.00  0.00     0.209 HD
ENDBRANCH  28  29
ENDBRANCH  14  28
TORSDOF 7
