REMARK  5 active torsions:
REMARK  status: ('A' for Active; 'I' for Inactive)
REMARK    1  A    between atoms: C_3  and  C_4 
REMARK    2  A    between atoms: C_4  and  O_5 
REMARK    3  A    between atoms: O_5  and  C_6 
REMARK    4  A    between atoms: C_13  and  O_14 
REMARK    5  A    between atoms: O_14  and  C_15 
ROOT
HETATM    1  O   UNK N   1      -2.925   1.976   2.194  0.00  0.00    -0.297 OA
HETATM    2  C   UNK N   1      -2.289   1.166   1.533  0.00  0.00     0.137 C 
HETATM    3  C   UNK N   1      -1.876   1.494   0.092  0.00  0.00     0.043 C 
HETATM    4  C   UNK N   1      -0.324   1.169  -0.022  0.00  0.00     0.014 C 
HETATM    5  C   UNK N   1       0.115  -0.305   0.472  0.00  0.00    -0.034 C 
HETATM    6  C   UNK N   1       0.454  -1.158  -0.805  0.00  0.00     0.005 C 
HETATM    7  C   UNK N   1       1.613  -0.548  -1.724  0.00  0.00    -0.005 C 
HETATM    8  C   UNK N   1       1.652   1.017  -1.654  0.00  0.00     0.141 C 
HETATM    9  C   UNK N   1       0.257   1.576  -1.429  0.00  0.00     0.040 C 
HETATM   10  C   UNK N   1       1.453  -1.132  -3.165  0.00  0.00     0.046 C 
HETATM   11  C   UNK N   1       2.133  -2.466  -3.019  0.00  0.00    -0.084 C 
HETATM   12  C   UNK N   1       2.096  -3.419  -3.953  0.00  0.00     0.014 C 
HETATM   13  C   UNK N   1       2.855  -2.589  -1.702  0.00  0.00     0.014 C 
HETATM   14  C   UNK N   1       2.994  -1.116  -1.351  0.00  0.00     0.021 C 
HETATM   15  C   UNK N   1       1.985  -3.262  -0.618  0.00  0.00     0.009 C 
HETATM   16  C   UNK N   1       0.550  -2.715  -0.670  0.00  0.00     0.007 C 
HETATM   17  C   UNK N   1      -1.040  -1.002   1.274  0.00  0.00     0.017 C 
HETATM   18  C   UNK N   1      -1.797  -0.079   2.225  0.00  0.00     0.080 C 
HETATM   19  C   UNK N   1       1.322  -0.218   1.449  0.00  0.00     0.016 C 
HETATM   20  C   UNK N   1      -2.117   3.011  -0.162  0.00  0.00     0.026 C 
ENDROOT
BRANCH   3  21
HETATM   21  C   UNK N   1      -2.753   0.722  -0.952  0.00  0.00     0.196 C 
BRANCH  21  22
HETATM   22  O   UNK N   1      -4.096   1.036  -0.814  0.00  0.00    -0.321 OA
BRANCH  22  23
HETATM   23  C   UNK N   1      -4.956   1.147  -1.868  0.00  0.00     0.254 C 
HETATM   24  O   UNK N   1      -4.592   0.900  -3.005  0.00  0.00    -0.266 OA
HETATM   25  C   UNK N   1      -6.368   1.571  -1.621  0.00  0.00     0.126 C 
ENDBRANCH  22  23
ENDBRANCH  21  22
ENDBRANCH   3  21
BRANCH   8  26
HETATM   26  O   UNK N   1       2.193   1.533  -2.823  0.00  0.00    -0.316 OA
BRANCH  26  27
HETATM   27  C   UNK N   1       3.465   1.995  -2.961  0.00  0.00     0.255 C 
HETATM   28  O   UNK N   1       4.251   1.969  -2.027  0.00  0.00    -0.266 OA
HETATM   29  C   UNK N   1       3.913   2.492  -4.298  0.00  0.00     0.126 C 
ENDBRANCH  26  27
ENDBRANCH   8  26
TORSDOF 5
