REMARK  5 active torsions:
REMARK  status: ('A' for Active; 'I' for Inactive)
REMARK    1  A    between atoms: O_1  and  C_2 
REMARK    2  A    between atoms: C_2  and  C_3 
REMARK    3  A    between atoms: C_2  and  C_6 
REMARK    4  A    between atoms: C_3  and  O_4 
REMARK    5  A    between atoms: C_13  and  O_14 
ROOT
HETATM    1  C   UNK N   1       3.539   0.101  -0.709  0.00  0.00     0.022 C 
HETATM    2  C   UNK N   1       2.594   1.258  -0.260  0.00  0.00     0.017 C 
HETATM    3  C   UNK N   1       1.117   0.809  -0.005  0.00  0.00    -0.039 C 
HETATM    4  C   UNK N   1       0.574   0.160  -1.336  0.00  0.00     0.002 C 
HETATM    5  C   UNK N   1      -0.993  -0.125  -1.389  0.00  0.00    -0.035 C 
HETATM    6  C   UNK N   1      -1.713   1.254  -1.068  0.00  0.00     0.004 C 
HETATM    7  C   UNK N   1      -3.277   1.309  -1.326  0.00  0.00    -0.017 C 
HETATM    8  C   UNK N   1      -3.542   0.810  -2.787  0.00  0.00     0.126 C 
HETATM    9  C   UNK N   1      -2.915  -0.564  -3.074  0.00  0.00     0.033 C 
HETATM   10  C   UNK N   1      -1.392  -0.526  -2.846  0.00  0.00     0.012 C 
HETATM   11  C   UNK N   1      -4.120   0.525  -0.287  0.00  0.00     0.018 C 
HETATM   12  C   UNK N   1      -3.773   2.782  -1.254  0.00  0.00     0.018 C 
HETATM   13  C   UNK N   1      -1.248   1.813   0.308  0.00  0.00     0.007 C 
HETATM   14  C   UNK N   1       0.272   2.074   0.298  0.00  0.00     0.010 C 
HETATM   15  C   UNK N   1      -1.386  -1.313  -0.456  0.00  0.00     0.016 C 
HETATM   16  C   UNK N   1       1.478  -1.027  -1.753  0.00  0.00     0.006 C 
HETATM   17  C   UNK N   1       2.924  -0.562  -1.968  0.00  0.00     0.008 C 
HETATM   18  C   UNK N   1       1.115  -0.108   1.256  0.00  0.00     0.015 C 
ENDROOT
BRANCH   1  19
HETATM   19  C   UNK N   1       5.042   0.551  -0.958  0.00  0.00     0.079 C 
HETATM   20  C   UNK N   1       5.907  -0.677  -1.327  0.00  0.00     0.048 C 
BRANCH  19  21
HETATM   21  O   UNK N   1       5.134   1.446  -2.044  0.00  0.00    -0.388 OA
HETATM   22  H   UNK N   1       4.667   2.286  -1.807  0.00  0.00     0.210 HD
ENDBRANCH  19  21
BRANCH  19  23
HETATM   23  C   UNK N   1       5.711   1.172   0.307  0.00  0.00     0.201 C 
BRANCH  23  24
HETATM   24  O   UNK N   1       5.177   2.424   0.651  0.00  0.00    -0.398 OA
HETATM   25  H   UNK N   1       5.712   3.113   0.177  0.00  0.00     0.209 HD
ENDBRANCH  23  24
ENDBRANCH  19  23
ENDBRANCH   1  19
BRANCH   8  26
HETATM   26  O   UNK N   1      -4.921   0.771  -3.053  0.00  0.00    -0.395 OA
HETATM   27  H   UNK N   1      -5.026   0.708  -4.038  0.00  0.00     0.210 HD
ENDBRANCH   8  26
TORSDOF 5
