REMARK  7 active torsions:
REMARK  status: ('A' for Active; 'I' for Inactive)
REMARK    1  A    between atoms: C_2  and  O_3 
REMARK    2  A    between atoms: O_3  and  C_4 
REMARK    3  A    between atoms: C_5  and  C_6 
REMARK    4  A    between atoms: C_6  and  O_7 
REMARK    5  A    between atoms: C_13  and  O_14 
REMARK    6  A    between atoms: C_18  and  C_19 
REMARK    7  A    between atoms: C_19  and  O_20 
ROOT
HETATM    1  C   UNK N   1       2.429   0.985  -0.182  0.00  0.00     0.142 C 
HETATM    2  C   UNK N   1       1.519  -0.068   0.538  0.00  0.00     0.009 C 
HETATM    3  C   UNK N   1       0.004   0.439   0.429  0.00  0.00     0.009 C 
HETATM    4  C   UNK N   1      -0.292   1.935   0.835  0.00  0.00    -0.035 C 
HETATM    5  C   UNK N   1      -1.799   2.332   0.412  0.00  0.00     0.009 C 
HETATM    6  C   UNK N   1      -2.763   1.098   0.147  0.00  0.00     0.009 C 
HETATM    7  C   UNK N   1      -2.482  -0.010   1.170  0.00  0.00     0.131 C 
HETATM    8  C   UNK N   1      -1.045  -0.560   1.026  0.00  0.00     0.039 C 
HETATM    9  C   UNK N   1      -2.764   0.643  -1.300  0.00  0.00    -0.009 C 
HETATM   10  C   UNK N   1      -3.636   1.370  -2.005  0.00  0.00    -0.055 C 
HETATM   11  C   UNK N   1      -4.301   2.390  -1.128  0.00  0.00     0.017 C 
HETATM   12  C   UNK N   1      -4.209   1.639   0.204  0.00  0.00     0.025 C 
HETATM   13  C   UNK N   1      -3.448   3.680  -1.026  0.00  0.00     0.009 C 
HETATM   14  C   UNK N   1      -1.959   3.370  -0.743  0.00  0.00     0.007 C 
HETATM   15  C   UNK N   1       0.750   2.846   0.113  0.00  0.00     0.012 C 
HETATM   16  C   UNK N   1       2.204   2.417   0.334  0.00  0.00     0.034 C 
HETATM   17  C   UNK N   1      -0.169   2.181   2.371  0.00  0.00     0.016 C 
HETATM   18  C   UNK N   1       2.033  -0.308   1.991  0.00  0.00     0.020 C 
ENDROOT
BRANCH   1  19
HETATM   19  O   UNK N   1       3.769   0.666  -0.016  0.00  0.00    -0.315 OA
BRANCH  19  20
HETATM   20  C   UNK N   1       4.736   0.872  -0.950  0.00  0.00     0.255 C 
HETATM   21  O   UNK N   1       4.467   1.331  -2.046  0.00  0.00    -0.266 OA
HETATM   22  C   UNK N   1       6.154   0.545  -0.603  0.00  0.00     0.126 C 
ENDBRANCH  19  20
ENDBRANCH   1  19
BRANCH   2  23
HETATM   23  C   UNK N   1       1.698  -1.427  -0.216  0.00  0.00     0.176 C 
BRANCH  23  24
HETATM   24  O   UNK N   1       1.032  -2.478   0.433  0.00  0.00    -0.400 OA
HETATM   25  H   UNK N   1       1.096  -3.265  -0.167  0.00  0.00     0.209 HD
ENDBRANCH  23  24
ENDBRANCH   2  23
BRANCH   7  26
HETATM   26  O   UNK N   1      -3.390  -1.080   1.060  0.00  0.00    -0.394 OA
HETATM   27  H   UNK N   1      -4.183  -0.859   1.614  0.00  0.00     0.210 HD
ENDBRANCH   7  26
BRANCH  10  28
HETATM   28  C   UNK N   1      -3.925   1.190  -3.468  0.00  0.00     0.198 C 
BRANCH  28  29
HETATM   29  O   UNK N   1      -5.266   0.826  -3.653  0.00  0.00    -0.397 OA
HETATM   30  H   UNK N   1      -5.811   1.644  -3.512  0.00  0.00     0.209 HD
ENDBRANCH  28  29
ENDBRANCH  10  28
TORSDOF 7
