REMARK  7 active torsions:
REMARK  status: ('A' for Active; 'I' for Inactive)
REMARK    1  A    between atoms: C_6  and  O_7 
REMARK    2  A    between atoms: O_7  and  C_8 
REMARK    3  A    between atoms: C_11  and  O_12 
REMARK    4  A    between atoms: O_12  and  C_13 
REMARK    5  A    between atoms: C_28  and  O_29 
REMARK    6  A    between atoms: O_29  and  C_30 
REMARK    7  A    between atoms: C_30  and  C_32 
ROOT
HETATM    1  O   UNK N   1       2.162   3.503  -3.938  0.00  0.00    -0.292 OA
HETATM    2  C   UNK N   1       2.148   3.497  -2.715  0.00  0.00     0.162 C 
HETATM    3  C   UNK N   1       1.009   2.903  -1.985  0.00  0.00    -0.019 C 
HETATM    4  C   UNK N   1       0.564   1.693  -2.410  0.00  0.00    -0.006 C 
HETATM    5  C   UNK N   1      -0.426   0.811  -1.663  0.00  0.00     0.076 C 
HETATM    6  C   UNK N   1       0.125  -0.625  -1.416  0.00  0.00     0.107 C 
HETATM    7  C   UNK N   1       1.629  -0.727  -0.930  0.00  0.00     0.175 C 
HETATM    8  C   UNK N   1       2.060   0.163   0.275  0.00  0.00     0.036 C 
HETATM    9  C   UNK N   1       3.554  -0.034   0.552  0.00  0.00    -0.023 C 
HETATM   10  C   UNK N   1       4.551   0.891   0.477  0.00  0.00    -0.014 C 
HETATM   11  C   UNK N   1       4.426   2.375   0.093  0.00  0.00     0.031 C 
HETATM   12  C   UNK N   1       3.920   2.513  -1.349  0.00  0.00     0.145 C 
HETATM   13  C   UNK N   1       3.414   3.817  -1.955  0.00  0.00     0.163 C 
HETATM   14  O   UNK N   1       4.037   1.551  -2.099  0.00  0.00    -0.296 OA
HETATM   15  C   UNK N   1       5.836   3.007   0.108  0.00  0.00     0.027 C 
HETATM   16  C   UNK N   1       3.593   3.106   1.171  0.00  0.00     0.027 C 
HETATM   17  C   UNK N   1       1.283  -0.159   1.556  0.00  0.00     0.017 C 
HETATM   18  C   UNK N   1      -0.035  -1.257  -2.829  0.00  0.00     0.049 C 
HETATM   19  C   UNK N   1      -1.209  -0.526  -3.518  0.00  0.00     0.015 C 
HETATM   20  C   UNK N   1      -1.694   0.508  -2.477  0.00  0.00     0.146 C 
HETATM   21  C   UNK N   1      -2.278  -1.499  -4.023  0.00  0.00     0.012 C 
HETATM   22  C   UNK N   1       0.481   3.656  -0.779  0.00  0.00     0.052 C 
ENDROOT
BRANCH  20  23
HETATM   23  O   UNK N   1      -2.240   1.659  -3.018  0.00  0.00    -0.315 OA
BRANCH  23  24
HETATM   24  C   UNK N   1      -3.457   1.729  -3.617  0.00  0.00     0.258 C 
HETATM   25  O   UNK N   1      -4.248   0.802  -3.534  0.00  0.00    -0.265 OA
BRANCH  24  26
HETATM   26  C   UNK N   1      -3.819   2.979  -4.371  0.00  0.00     0.106 C 
HETATM   27  C   UNK N   1      -5.167   2.876  -5.083  0.00  0.00     0.015 C 
ENDBRANCH  24  26
ENDBRANCH  23  24
ENDBRANCH  20  23
BRANCH   6  28
HETATM   28  O   UNK N   1      -0.783  -1.204  -0.524  0.00  0.00    -0.307 OA
BRANCH  28  29
HETATM   29  C   UNK N   1      -1.040  -2.516  -0.272  0.00  0.00     0.255 C 
HETATM   30  O   UNK N   1      -0.307  -3.402  -0.683  0.00  0.00    -0.266 OA
HETATM   31  C   UNK N   1      -2.292  -2.869   0.464  0.00  0.00     0.126 C 
ENDBRANCH  28  29
ENDBRANCH   6  28
BRANCH   7  32
HETATM   32  O   UNK N   1       1.952  -2.052  -0.672  0.00  0.00    -0.313 OA
BRANCH  32  33
HETATM   33  C   UNK N   1       2.865  -2.788  -1.363  0.00  0.00     0.255 C 
HETATM   34  O   UNK N   1       3.465  -2.315  -2.318  0.00  0.00    -0.266 OA
HETATM   35  C   UNK N   1       3.138  -4.195  -0.941  0.00  0.00     0.126 C 
ENDBRANCH  32  33
ENDBRANCH   7  32
TORSDOF 7
