REMARK  8 active torsions:
REMARK  status: ('A' for Active; 'I' for Inactive)
REMARK    1  A    between atoms: C_7  and  O_8 
REMARK    2  A    between atoms: O_8  and  C_9 
REMARK    3  A    between atoms: C_12  and  O_13 
REMARK    4  A    between atoms: O_13  and  C_14 
REMARK    5  A    between atoms: C_18  and  O_19 
REMARK    6  A    between atoms: O_19  and  C_20 
REMARK    7  A    between atoms: C_20  and  C_22 
REMARK    8  A    between atoms: C_33  and  O_34 
ROOT
HETATM    1  O   UNK N   1      -5.325   1.008  -3.765  0.00  0.00    -0.297 OA
HETATM    2  C   UNK N   1      -4.149   0.758  -3.538  0.00  0.00     0.141 C 
HETATM    3  C   UNK N   1      -3.064   1.754  -3.996  0.00  0.00     0.031 C 
HETATM    4  C   UNK N   1      -1.670   1.103  -4.023  0.00  0.00    -0.014 C 
HETATM    5  C   UNK N   1      -0.560   1.569  -3.409  0.00  0.00    -0.023 C 
HETATM    6  C   UNK N   1       0.782   0.879  -3.613  0.00  0.00     0.036 C 
HETATM    7  C   UNK N   1       1.537   0.453  -2.312  0.00  0.00     0.175 C 
HETATM    8  C   UNK N   1       0.861  -0.696  -1.452  0.00  0.00     0.107 C 
HETATM    9  C   UNK N   1      -0.376  -0.210  -0.644  0.00  0.00     0.076 C 
HETATM   10  C   UNK N   1       0.218   0.318   0.663  0.00  0.00     0.146 C 
HETATM   11  C   UNK N   1       1.235  -0.756   1.023  0.00  0.00     0.015 C 
HETATM   12  C   UNK N   1       1.839  -1.184  -0.330  0.00  0.00     0.049 C 
HETATM   13  C   UNK N   1       2.280  -0.308   2.047  0.00  0.00     0.012 C 
HETATM   14  C   UNK N   1      -1.373  -1.357  -0.373  0.00  0.00    -0.011 C 
HETATM   15  C   UNK N   1      -2.699  -1.362  -0.691  0.00  0.00    -0.058 C 
HETATM   16  C   UNK N   1      -3.413  -0.184  -1.344  0.00  0.00     0.153 C 
HETATM   17  C   UNK N   1      -3.817  -0.517  -2.791  0.00  0.00     0.115 C 
HETATM   18  C   UNK N   1      -3.517  -2.596  -0.380  0.00  0.00     0.046 C 
HETATM   19  C   UNK N   1       1.669   1.828  -4.435  0.00  0.00     0.017 C 
HETATM   20  C   UNK N   1      -3.357   2.155  -5.457  0.00  0.00     0.027 C 
HETATM   21  C   UNK N   1      -3.143   3.030  -3.127  0.00  0.00     0.027 C 
ENDROOT
BRANCH  10  22
HETATM   22  O   UNK N   1      -0.763   0.452   1.632  0.00  0.00    -0.311 OA
BRANCH  22  23
HETATM   23  C   UNK N   1      -1.159   1.616   2.210  0.00  0.00     0.293 C 
HETATM   24  O   UNK N   1      -0.678   2.682   1.857  0.00  0.00    -0.259 OA
BRANCH  23  25
HETATM   25  C   UNK N   1      -2.189   1.574   3.277  0.00  0.00     0.039 A 
HETATM   26  C   UNK N   1      -2.580   2.749   3.945  0.00  0.00     0.017 A 
HETATM   27  C   UNK N   1      -3.535   2.693   4.966  0.00  0.00     0.001 A 
HETATM   28  C   UNK N   1      -4.110   1.471   5.324  0.00  0.00     0.000 A 
HETATM   29  C   UNK N   1      -3.735   0.301   4.660  0.00  0.00     0.001 A 
HETATM   30  C   UNK N   1      -2.779   0.349   3.641  0.00  0.00     0.017 A 
ENDBRANCH  23  25
ENDBRANCH  22  23
ENDBRANCH  10  22
BRANCH   8  31
HETATM   31  O   UNK N   1       0.482  -1.743  -2.293  0.00  0.00    -0.307 OA
BRANCH  31  32
HETATM   32  C   UNK N   1       1.302  -2.527  -3.046  0.00  0.00     0.255 C 
HETATM   33  O   UNK N   1       2.517  -2.396  -3.006  0.00  0.00    -0.266 OA
HETATM   34  C   UNK N   1       0.698  -3.571  -3.927  0.00  0.00     0.126 C 
ENDBRANCH  31  32
ENDBRANCH   8  31
BRANCH   7  35
HETATM   35  O   UNK N   1       1.809   1.577  -1.545  0.00  0.00    -0.313 OA
BRANCH  35  36
HETATM   36  C   UNK N   1       3.050   2.067  -1.275  0.00  0.00     0.255 C 
HETATM   37  O   UNK N   1       4.054   1.514  -1.702  0.00  0.00    -0.266 OA
HETATM   38  C   UNK N   1       3.182   3.305  -0.449  0.00  0.00     0.126 C 
ENDBRANCH  35  36
ENDBRANCH   7  35
BRANCH  16  39
HETATM   39  O   UNK N   1      -4.541   0.157  -0.575  0.00  0.00    -0.391 OA
HETATM   40  H   UNK N   1      -4.896   1.016  -0.924  0.00  0.00     0.210 HD
ENDBRANCH  16  39
TORSDOF 8
