REMARK  7 active torsions:
REMARK  status: ('A' for Active; 'I' for Inactive)
REMARK    1  A    between atoms: C_3  and  O_4 
REMARK    2  A    between atoms: O_4  and  C_5 
REMARK    3  A    between atoms: C_9  and  O_10 
REMARK    4  A    between atoms: O_10  and  C_11 
REMARK    5  A    between atoms: C_11  and  C_13 
REMARK    6  A    between atoms: C_20  and  O_21 
REMARK    7  A    between atoms: O_21  and  C_22 
ROOT
HETATM    1  O   UNK N   1       1.707   0.336  -3.400  0.00  0.00    -0.294 OA
HETATM    2  C   UNK N   1       1.209   1.261  -2.771  0.00  0.00     0.170 C 
HETATM    3  C   UNK N   1       1.291   1.271  -1.246  0.00  0.00     0.141 C 
HETATM    4  C   UNK N   1      -0.093   1.401  -0.541  0.00  0.00     0.081 C 
HETATM    5  C   UNK N   1       0.319   1.056   0.904  0.00  0.00     0.146 C 
HETATM    6  C   UNK N   1       1.218  -0.177   0.756  0.00  0.00     0.015 C 
HETATM    7  C   UNK N   1       1.856  -0.046  -0.642  0.00  0.00     0.054 C 
HETATM    8  C   UNK N   1       2.231  -0.313   1.896  0.00  0.00     0.012 C 
HETATM    9  C   UNK N   1      -1.141   0.422  -1.089  0.00  0.00    -0.011 C 
HETATM   10  C   UNK N   1      -2.490   0.637  -1.115  0.00  0.00    -0.057 C 
HETATM   11  C   UNK N   1      -3.406  -0.442  -1.690  0.00  0.00     0.167 C 
HETATM   12  C   UNK N   1      -3.260  -0.598  -3.214  0.00  0.00     0.116 C 
HETATM   13  C   UNK N   1      -3.835   0.580  -3.980  0.00  0.00     0.141 C 
HETATM   14  C   UNK N   1      -2.990   1.371  -4.971  0.00  0.00     0.031 C 
HETATM   15  C   UNK N   1      -1.857   2.016  -4.182  0.00  0.00    -0.014 C 
HETATM   16  C   UNK N   1      -0.556   1.751  -4.379  0.00  0.00    -0.018 C 
HETATM   17  C   UNK N   1       0.517   2.375  -3.523  0.00  0.00     0.077 C 
HETATM   18  C   UNK N   1       1.502   3.149  -4.398  0.00  0.00     0.022 C 
HETATM   19  C   UNK N   1      -2.528   0.415  -6.100  0.00  0.00     0.027 C 
HETATM   20  C   UNK N   1      -3.810   2.504  -5.629  0.00  0.00     0.027 C 
HETATM   21  O   UNK N   1      -5.012   0.870  -3.811  0.00  0.00    -0.297 OA
HETATM   22  C   UNK N   1      -3.154   1.888  -0.581  0.00  0.00     0.046 C 
ENDROOT
BRANCH   5  23
HETATM   23  O   UNK N   1      -0.746   0.790   1.749  0.00  0.00    -0.315 OA
BRANCH  23  24
HETATM   24  C   UNK N   1      -1.414   1.719   2.478  0.00  0.00     0.258 C 
HETATM   25  O   UNK N   1      -1.095   2.898   2.432  0.00  0.00    -0.265 OA
BRANCH  24  26
HETATM   26  C   UNK N   1      -2.552   1.258   3.352  0.00  0.00     0.106 C 
HETATM   27  C   UNK N   1      -3.212   2.386   4.143  0.00  0.00     0.015 C 
ENDBRANCH  24  26
ENDBRANCH  23  24
ENDBRANCH   5  23
BRANCH   3  28
HETATM   28  O   UNK N   1       2.091   2.344  -0.849  0.00  0.00    -0.302 OA
BRANCH  28  29
HETATM   29  C   UNK N   1       3.393   2.534  -1.219  0.00  0.00     0.256 C 
HETATM   30  O   UNK N   1       3.956   1.746  -1.968  0.00  0.00    -0.266 OA
HETATM   31  C   UNK N   1       4.142   3.724  -0.715  0.00  0.00     0.126 C 
ENDBRANCH  28  29
ENDBRANCH   3  28
BRANCH  11  32
HETATM   32  O   UNK N   1      -3.137  -1.665  -1.099  0.00  0.00    -0.311 OA
BRANCH  32  33
HETATM   33  C   UNK N   1      -3.571  -2.041   0.130  0.00  0.00     0.255 C 
HETATM   34  O   UNK N   1      -4.302  -1.314   0.788  0.00  0.00    -0.266 OA
HETATM   35  C   UNK N   1      -3.177  -3.381   0.660  0.00  0.00     0.126 C 
ENDBRANCH  32  33
ENDBRANCH  11  32
TORSDOF 7
