REMARK  9 active torsions:
REMARK  status: ('A' for Active; 'I' for Inactive)
REMARK    1  A    between atoms: C_7  and  O_8 
REMARK    2  A    between atoms: O_8  and  C_9 
REMARK    3  A    between atoms: C_12  and  O_13 
REMARK    4  A    between atoms: O_13  and  C_14 
REMARK    5  A    between atoms: C_18  and  O_19 
REMARK    6  A    between atoms: O_19  and  C_20 
REMARK    7  A    between atoms: C_20  and  C_22 
REMARK    8  A    between atoms: C_29  and  O_30 
REMARK    9  A    between atoms: O_30  and  C_31 
ROOT
HETATM    1  O   UNK N   1      -4.147  -0.468  -1.338  0.00  0.00    -0.297 OA
HETATM    2  C   UNK N   1      -3.443  -0.012  -0.449  0.00  0.00     0.141 C 
HETATM    3  C   UNK N   1      -2.523  -0.958   0.336  0.00  0.00     0.031 C 
HETATM    4  C   UNK N   1      -1.032  -0.643   0.159  0.00  0.00    -0.014 C 
HETATM    5  C   UNK N   1      -0.423   0.460   0.636  0.00  0.00    -0.023 C 
HETATM    6  C   UNK N   1       1.078   0.616   0.571  0.00  0.00     0.036 C 
HETATM    7  C   UNK N   1       1.544   1.958  -0.075  0.00  0.00     0.175 C 
HETATM    8  C   UNK N   1       1.315   2.064  -1.630  0.00  0.00     0.107 C 
HETATM    9  C   UNK N   1      -0.160   2.297  -2.111  0.00  0.00     0.076 C 
HETATM   10  C   UNK N   1       0.105   2.689  -3.584  0.00  0.00     0.146 C 
HETATM   11  C   UNK N   1       1.271   3.683  -3.514  0.00  0.00     0.015 C 
HETATM   12  C   UNK N   1       2.027   3.314  -2.225  0.00  0.00     0.049 C 
HETATM   13  C   UNK N   1       2.144   3.647  -4.771  0.00  0.00     0.012 C 
HETATM   14  C   UNK N   1      -0.872   3.425  -1.345  0.00  0.00    -0.011 C 
HETATM   15  C   UNK N   1      -2.180   3.429  -0.961  0.00  0.00    -0.057 C 
HETATM   16  C   UNK N   1      -3.185   2.348  -1.354  0.00  0.00     0.167 C 
HETATM   17  C   UNK N   1      -3.556   1.467  -0.136  0.00  0.00     0.116 C 
HETATM   18  C   UNK N   1      -2.685   4.581  -0.119  0.00  0.00     0.046 C 
HETATM   19  C   UNK N   1       1.585   0.502   2.020  0.00  0.00     0.017 C 
HETATM   20  C   UNK N   1      -2.907  -0.921   1.831  0.00  0.00     0.027 C 
HETATM   21  C   UNK N   1      -2.737  -2.413  -0.157  0.00  0.00     0.027 C 
ENDROOT
BRANCH  10  22
HETATM   22  O   UNK N   1      -0.976   3.234  -4.259  0.00  0.00    -0.315 OA
BRANCH  22  23
HETATM   23  C   UNK N   1      -2.086   2.542  -4.628  0.00  0.00     0.258 C 
HETATM   24  O   UNK N   1      -2.137   1.329  -4.496  0.00  0.00    -0.265 OA
BRANCH  23  25
HETATM   25  C   UNK N   1      -3.262   3.283  -5.196  0.00  0.00     0.106 C 
HETATM   26  C   UNK N   1      -2.903   3.966  -6.511  0.00  0.00     0.015 C 
ENDBRANCH  23  25
ENDBRANCH  22  23
ENDBRANCH  10  22
BRANCH   8  27
HETATM   27  O   UNK N   1       1.763   0.890  -2.246  0.00  0.00    -0.307 OA
BRANCH  27  28
HETATM   28  C   UNK N   1       3.024   0.370  -2.257  0.00  0.00     0.255 C 
HETATM   29  O   UNK N   1       3.999   1.055  -1.990  0.00  0.00    -0.266 OA
HETATM   30  C   UNK N   1       3.208  -1.079  -2.574  0.00  0.00     0.126 C 
ENDBRANCH  27  28
ENDBRANCH   8  27
BRANCH   7  31
HETATM   31  O   UNK N   1       2.907   2.092   0.163  0.00  0.00    -0.313 OA
BRANCH  31  32
HETATM   32  C   UNK N   1       3.488   3.081   0.897  0.00  0.00     0.255 C 
HETATM   33  O   UNK N   1       2.814   3.952   1.429  0.00  0.00    -0.266 OA
HETATM   34  C   UNK N   1       4.973   3.094   1.055  0.00  0.00     0.126 C 
ENDBRANCH  31  32
ENDBRANCH   7  31
BRANCH  16  35
HETATM   35  O   UNK N   1      -4.318   2.984  -1.846  0.00  0.00    -0.311 OA
BRANCH  35  36
HETATM   36  C   UNK N   1      -5.373   2.376  -2.447  0.00  0.00     0.255 C 
HETATM   37  O   UNK N   1      -5.253   1.278  -2.968  0.00  0.00    -0.266 OA
HETATM   38  C   UNK N   1      -6.699   3.066  -2.466  0.00  0.00     0.126 C 
ENDBRANCH  35  36
ENDBRANCH  16  35
TORSDOF 9
