REMARK  8 active torsions:
REMARK  status: ('A' for Active; 'I' for Inactive)
REMARK    1  A    between atoms: C_7  and  O_8 
REMARK    2  A    between atoms: C_10  and  O_11 
REMARK    3  A    between atoms: O_11  and  C_12 
REMARK    4  A    between atoms: C_16  and  O_17 
REMARK    5  A    between atoms: O_17  and  C_18 
REMARK    6  A    between atoms: C_18  and  C_20 
REMARK    7  A    between atoms: C_31  and  O_32 
REMARK    8  A    between atoms: O_32  and  C_33 
ROOT
HETATM    1  O   UNK N   1      -0.857  -2.471  -3.371  0.00  0.00    -0.297 OA
HETATM    2  C   UNK N   1      -1.159  -2.553  -2.187  0.00  0.00     0.141 C 
HETATM    3  C   UNK N   1      -0.108  -3.004  -1.168  0.00  0.00     0.031 C 
HETATM    4  C   UNK N   1       0.077  -1.852  -0.195  0.00  0.00    -0.014 C 
HETATM    5  C   UNK N   1       1.226  -1.187   0.033  0.00  0.00    -0.023 C 
HETATM    6  C   UNK N   1       1.241  -0.009   0.981  0.00  0.00     0.035 C 
HETATM    7  C   UNK N   1       1.822   1.291   0.332  0.00  0.00     0.161 C 
HETATM    8  C   UNK N   1       1.166   1.799  -1.011  0.00  0.00     0.107 C 
HETATM    9  C   UNK N   1      -0.395   2.002  -0.875  0.00  0.00     0.076 C 
HETATM   10  C   UNK N   1      -0.653   3.422  -1.380  0.00  0.00     0.146 C 
HETATM   11  C   UNK N   1       0.570   4.167  -0.861  0.00  0.00     0.015 C 
HETATM   12  C   UNK N   1       1.673   3.242  -1.337  0.00  0.00     0.049 C 
HETATM   13  C   UNK N   1       0.697   5.589  -1.419  0.00  0.00     0.012 C 
HETATM   14  C   UNK N   1      -1.245   0.995  -1.650  0.00  0.00    -0.011 C 
HETATM   15  C   UNK N   1      -2.268   0.238  -1.175  0.00  0.00    -0.057 C 
HETATM   16  C   UNK N   1      -2.955  -0.749  -2.127  0.00  0.00     0.167 C 
HETATM   17  C   UNK N   1      -2.587  -2.208  -1.788  0.00  0.00     0.116 C 
HETATM   18  C   UNK N   1      -2.789   0.331   0.252  0.00  0.00     0.046 C 
HETATM   19  C   UNK N   1       2.018  -0.387   2.250  0.00  0.00     0.017 C 
HETATM   20  C   UNK N   1      -0.608  -4.245  -0.402  0.00  0.00     0.027 C 
HETATM   21  C   UNK N   1       1.208  -3.397  -1.887  0.00  0.00     0.027 C 
ENDROOT
BRANCH  10  22
HETATM   22  O   UNK N   1      -1.812   3.935  -0.833  0.00  0.00    -0.311 OA
BRANCH  22  23
HETATM   23  C   UNK N   1      -2.787   4.593  -1.510  0.00  0.00     0.293 C 
HETATM   24  O   UNK N   1      -2.680   4.808  -2.708  0.00  0.00    -0.259 OA
BRANCH  23  25
HETATM   25  C   UNK N   1      -3.946   5.117  -0.752  0.00  0.00     0.039 A 
HETATM   26  C   UNK N   1      -4.878   5.976  -1.361  0.00  0.00     0.017 A 
HETATM   27  C   UNK N   1      -5.950   6.487  -0.621  0.00  0.00     0.001 A 
HETATM   28  C   UNK N   1      -6.105   6.137   0.723  0.00  0.00     0.000 A 
HETATM   29  C   UNK N   1      -5.189   5.277   1.332  0.00  0.00     0.001 A 
HETATM   30  C   UNK N   1      -4.112   4.771   0.601  0.00  0.00     0.017 A 
ENDBRANCH  23  25
ENDBRANCH  22  23
ENDBRANCH  10  22
BRANCH   8  31
HETATM   31  O   UNK N   1       1.430   0.951  -2.091  0.00  0.00    -0.307 OA
BRANCH  31  32
HETATM   32  C   UNK N   1       2.541   0.921  -2.880  0.00  0.00     0.255 C 
HETATM   33  O   UNK N   1       3.570   1.495  -2.552  0.00  0.00    -0.266 OA
HETATM   34  C   UNK N   1       2.465   0.245  -4.209  0.00  0.00     0.126 C 
ENDBRANCH  31  32
ENDBRANCH   8  31
BRANCH   7  35
HETATM   35  O   UNK N   1       3.222   1.211   0.194  0.00  0.00    -0.392 OA
HETATM   36  H   UNK N   1       3.442   0.373  -0.284  0.00  0.00     0.210 HD
ENDBRANCH   7  35
BRANCH  16  37
HETATM   37  O   UNK N   1      -4.332  -0.620  -2.062  0.00  0.00    -0.311 OA
BRANCH  37  38
HETATM   38  C   UNK N   1      -5.038   0.411  -2.592  0.00  0.00     0.255 C 
HETATM   39  O   UNK N   1      -4.476   1.309  -3.203  0.00  0.00    -0.266 OA
HETATM   40  C   UNK N   1      -6.527   0.415  -2.457  0.00  0.00     0.126 C 
ENDBRANCH  37  38
ENDBRANCH  16  37
TORSDOF 8
