REMARK  7 active torsions:
REMARK  status: ('A' for Active; 'I' for Inactive)
REMARK    1  A    between atoms: C_5  and  O_6 
REMARK    2  A    between atoms: C_12  and  O_13 
REMARK    3  A    between atoms: C_18  and  O_19 
REMARK    4  A    between atoms: O_19  and  C_20 
REMARK    5  A    between atoms: C_25  and  O_26 
REMARK    6  A    between atoms: O_26  and  C_27 
REMARK    7  A    between atoms: C_27  and  C_29 
ROOT
HETATM    1  O   UNK N   1      -0.033   4.009  -3.193  0.00  0.00    -0.289 OA
HETATM    2  C   UNK N   1      -0.483   3.236  -2.357  0.00  0.00     0.190 C 
HETATM    3  C   UNK N   1      -1.451   2.185  -2.859  0.00  0.00    -0.014 C 
HETATM    4  C   UNK N   1      -2.090   1.323  -2.022  0.00  0.00     0.016 C 
HETATM    5  C   UNK N   1      -3.021   0.207  -2.494  0.00  0.00     0.156 C 
HETATM    6  C   UNK N   1      -3.327  -0.850  -1.372  0.00  0.00     0.042 C 
HETATM    7  C   UNK N   1      -2.016  -1.228  -0.664  0.00  0.00     0.140 C 
HETATM    8  O   UNK N   1      -1.927  -1.086   0.548  0.00  0.00    -0.297 OA
HETATM    9  C   UNK N   1      -0.789  -1.655  -1.459  0.00  0.00     0.115 C 
HETATM   10  C   UNK N   1       0.539  -1.577  -0.672  0.00  0.00     0.153 C 
HETATM   11  C   UNK N   1       0.772  -0.193  -0.050  0.00  0.00    -0.058 C 
HETATM   12  C   UNK N   1       0.810   0.914  -0.850  0.00  0.00    -0.011 C 
HETATM   13  C   UNK N   1       1.002   2.363  -0.405  0.00  0.00     0.082 C 
HETATM   14  C   UNK N   1      -0.068   3.423  -0.868  0.00  0.00     0.145 C 
HETATM   15  C   UNK N   1       0.706   4.779  -0.694  0.00  0.00     0.054 C 
HETATM   16  C   UNK N   1       2.189   4.417  -0.494  0.00  0.00     0.015 C 
HETATM   17  C   UNK N   1       2.324   2.952  -0.915  0.00  0.00     0.147 C 
HETATM   18  C   UNK N   1       3.167   5.389  -1.155  0.00  0.00     0.012 C 
HETATM   19  C   UNK N   1       0.967  -0.160   1.454  0.00  0.00     0.046 C 
HETATM   20  C   UNK N   1      -4.342  -0.276  -0.350  0.00  0.00     0.026 C 
HETATM   21  C   UNK N   1      -3.945  -2.116  -2.002  0.00  0.00     0.026 C 
HETATM   22  C   UNK N   1      -1.660   2.124  -4.362  0.00  0.00     0.052 C 
ENDROOT
BRANCH  17  23
HETATM   23  O   UNK N   1       2.429   2.837  -2.292  0.00  0.00    -0.311 OA
BRANCH  23  24
HETATM   24  C   UNK N   1       3.301   1.993  -2.914  0.00  0.00     0.293 C 
HETATM   25  O   UNK N   1       3.944   1.178  -2.266  0.00  0.00    -0.259 OA
BRANCH  24  26
HETATM   26  C   UNK N   1       3.422   2.019  -4.387  0.00  0.00     0.039 A 
HETATM   27  C   UNK N   1       2.815   3.045  -5.130  0.00  0.00     0.017 A 
HETATM   28  C   UNK N   1       2.921   3.060  -6.523  0.00  0.00     0.001 A 
HETATM   29  C   UNK N   1       3.624   2.050  -7.184  0.00  0.00     0.000 A 
HETATM   30  C   UNK N   1       4.232   1.027  -6.453  0.00  0.00     0.001 A 
HETATM   31  C   UNK N   1       4.139   1.012  -5.059  0.00  0.00     0.017 A 
ENDBRANCH  24  26
ENDBRANCH  23  24
ENDBRANCH  17  23
BRANCH  14  32
HETATM   32  O   UNK N   1      -1.238   3.432  -0.110  0.00  0.00    -0.301 OA
BRANCH  32  33
HETATM   33  C   UNK N   1      -1.361   3.595   1.240  0.00  0.00     0.256 C 
HETATM   34  O   UNK N   1      -0.382   3.753   1.954  0.00  0.00    -0.266 OA
HETATM   35  C   UNK N   1      -2.723   3.592   1.853  0.00  0.00     0.126 C 
ENDBRANCH  32  33
ENDBRANCH  14  32
BRANCH  10  36
HETATM   36  O   UNK N   1       1.591  -1.889  -1.547  0.00  0.00    -0.391 OA
HETATM   37  H   UNK N   1       2.389  -2.070  -0.985  0.00  0.00     0.210 HD
ENDBRANCH  10  36
BRANCH   5  38
HETATM   38  O   UNK N   1      -4.200   0.763  -3.024  0.00  0.00    -0.391 OA
HETATM   39  H   UNK N   1      -4.549   0.127  -3.701  0.00  0.00     0.210 HD
ENDBRANCH   5  38
TORSDOF 7
