REMARK  6 active torsions:
REMARK  status: ('A' for Active; 'I' for Inactive)
REMARK    1  A    between atoms: C_3  and  O_4 
REMARK    2  A    between atoms: O_4  and  C_5 
REMARK    3  A    between atoms: C_9  and  O_10 
REMARK    4  A    between atoms: O_10  and  C_11 
REMARK    5  A    between atoms: C_11  and  C_13 
REMARK    6  A    between atoms: C_24  and  O_25 
ROOT
HETATM    1  O   UNK N   1       1.049   2.114  -3.208  0.00  0.00    -0.294 OA
HETATM    2  C   UNK N   1       0.968   1.295  -2.301  0.00  0.00     0.170 C 
HETATM    3  C   UNK N   1       1.453   1.695  -0.898  0.00  0.00     0.141 C 
HETATM    4  C   UNK N   1       0.295   2.242  -0.004  0.00  0.00     0.081 C 
HETATM    5  C   UNK N   1       0.623   1.691   1.390  0.00  0.00     0.147 C 
HETATM    6  C   UNK N   1       1.109   0.272   1.079  0.00  0.00     0.015 C 
HETATM    7  C   UNK N   1       2.093   0.545  -0.058  0.00  0.00     0.054 C 
HETATM    8  C   UNK N   1       1.751  -0.444   2.272  0.00  0.00     0.012 C 
HETATM    9  C   UNK N   1      -1.111   1.801  -0.444  0.00  0.00    -0.011 C 
HETATM   10  C   UNK N   1      -2.034   2.620  -1.028  0.00  0.00    -0.058 C 
HETATM   11  C   UNK N   1      -3.456   2.169  -1.382  0.00  0.00     0.153 C 
HETATM   12  C   UNK N   1      -3.949   0.720  -1.059  0.00  0.00     0.115 C 
HETATM   13  C   UNK N   1      -4.386  -0.011  -2.315  0.00  0.00     0.141 C 
HETATM   14  C   UNK N   1      -3.396  -0.618  -3.310  0.00  0.00     0.031 C 
HETATM   15  C   UNK N   1      -1.982  -0.623  -2.726  0.00  0.00    -0.014 C 
HETATM   16  C   UNK N   1      -0.915  -0.007  -3.269  0.00  0.00    -0.018 C 
HETATM   17  C   UNK N   1       0.451  -0.092  -2.624  0.00  0.00     0.077 C 
HETATM   18  C   UNK N   1       1.423  -0.786  -3.581  0.00  0.00     0.022 C 
HETATM   19  C   UNK N   1      -3.514   0.141  -4.653  0.00  0.00     0.027 C 
HETATM   20  C   UNK N   1      -3.782  -2.091  -3.552  0.00  0.00     0.027 C 
HETATM   21  O   UNK N   1      -5.584  -0.101  -2.545  0.00  0.00    -0.297 OA
HETATM   22  C   UNK N   1      -1.718   4.059  -1.414  0.00  0.00     0.046 C 
ENDROOT
BRANCH   5  23
HETATM   23  O   UNK N   1      -0.489   1.703   2.216  0.00  0.00    -0.311 OA
BRANCH  23  24
HETATM   24  C   UNK N   1      -0.623   2.437   3.352  0.00  0.00     0.293 C 
HETATM   25  O   UNK N   1       0.256   3.211   3.701  0.00  0.00    -0.259 OA
BRANCH  24  26
HETATM   26  C   UNK N   1      -1.856   2.289   4.162  0.00  0.00     0.039 A 
HETATM   27  C   UNK N   1      -2.889   1.438   3.726  0.00  0.00     0.017 A 
HETATM   28  C   UNK N   1      -4.045   1.280   4.495  0.00  0.00     0.001 A 
HETATM   29  C   UNK N   1      -4.181   1.966   5.704  0.00  0.00     0.000 A 
HETATM   30  C   UNK N   1      -3.165   2.818   6.143  0.00  0.00     0.001 A 
HETATM   31  C   UNK N   1      -2.007   2.985   5.377  0.00  0.00     0.017 A 
ENDBRANCH  24  26
ENDBRANCH  23  24
ENDBRANCH   5  23
BRANCH   3  32
HETATM   32  O   UNK N   1       2.389   2.720  -1.028  0.00  0.00    -0.302 OA
BRANCH  32  33
HETATM   33  C   UNK N   1       3.572   2.637  -1.698  0.00  0.00     0.256 C 
HETATM   34  O   UNK N   1       3.921   1.594  -2.234  0.00  0.00    -0.266 OA
HETATM   35  C   UNK N   1       4.443   3.847  -1.788  0.00  0.00     0.126 C 
ENDBRANCH  32  33
ENDBRANCH   3  32
BRANCH  11  36
HETATM   36  O   UNK N   1      -4.347   3.077  -0.781  0.00  0.00    -0.391 OA
HETATM   37  H   UNK N   1      -5.154   3.119  -1.359  0.00  0.00     0.210 HD
ENDBRANCH  11  36
TORSDOF 6
