REMARK  9 active torsions:
REMARK  status: ('A' for Active; 'I' for Inactive)
REMARK    1  A    between atoms: C_7  and  O_8 
REMARK    2  A    between atoms: O_8  and  C_9 
REMARK    3  A    between atoms: C_12  and  O_13 
REMARK    4  A    between atoms: O_13  and  C_14 
REMARK    5  A    between atoms: C_18  and  O_19 
REMARK    6  A    between atoms: O_19  and  C_20 
REMARK    7  A    between atoms: C_20  and  C_22 
REMARK    8  A    between atoms: C_33  and  O_34 
REMARK    9  A    between atoms: O_34  and  C_35 
ROOT
HETATM    1  O   UNK N   1       3.360   1.879  -2.018  0.00  0.00    -0.297 OA
HETATM    2  C   UNK N   1       2.140   1.948  -1.955  0.00  0.00     0.141 C 
HETATM    3  C   UNK N   1       1.338   2.610  -3.075  0.00  0.00     0.031 C 
HETATM    4  C   UNK N   1       0.441   1.516  -3.652  0.00  0.00    -0.014 C 
HETATM    5  C   UNK N   1      -0.907   1.542  -3.714  0.00  0.00    -0.023 C 
HETATM    6  C   UNK N   1      -1.655   0.374  -4.330  0.00  0.00     0.036 C 
HETATM    7  C   UNK N   1      -2.824  -0.189  -3.457  0.00  0.00     0.175 C 
HETATM    8  C   UNK N   1      -2.477  -0.538  -1.941  0.00  0.00     0.107 C 
HETATM    9  C   UNK N   1      -1.251  -1.494  -1.768  0.00  0.00     0.076 C 
HETATM   10  C   UNK N   1      -1.880  -2.873  -2.067  0.00  0.00     0.146 C 
HETATM   11  C   UNK N   1      -3.195  -2.835  -1.284  0.00  0.00     0.015 C 
HETATM   12  C   UNK N   1      -3.629  -1.353  -1.276  0.00  0.00     0.049 C 
HETATM   13  C   UNK N   1      -4.252  -3.812  -1.799  0.00  0.00     0.012 C 
HETATM   14  C   UNK N   1      -0.681  -1.422  -0.333  0.00  0.00    -0.011 C 
HETATM   15  C   UNK N   1       0.524  -0.892   0.046  0.00  0.00    -0.057 C 
HETATM   16  C   UNK N   1       1.520  -0.250  -0.923  0.00  0.00     0.167 C 
HETATM   17  C   UNK N   1       1.417   1.280  -0.806  0.00  0.00     0.116 C 
HETATM   18  C   UNK N   1       0.864  -0.845   1.520  0.00  0.00     0.046 C 
HETATM   19  C   UNK N   1      -2.182   0.831  -5.698  0.00  0.00     0.017 C 
HETATM   20  C   UNK N   1       0.577   3.832  -2.518  0.00  0.00     0.027 C 
HETATM   21  C   UNK N   1       2.257   3.107  -4.210  0.00  0.00     0.027 C 
ENDROOT
BRANCH  10  22
HETATM   22  O   UNK N   1      -1.122  -3.963  -1.681  0.00  0.00    -0.311 OA
BRANCH  22  23
HETATM   23  C   UNK N   1       0.072  -4.316  -2.219  0.00  0.00     0.293 C 
HETATM   24  O   UNK N   1       0.536  -3.690  -3.160  0.00  0.00    -0.259 OA
BRANCH  23  25
HETATM   25  C   UNK N   1       0.811  -5.467  -1.642  0.00  0.00     0.039 A 
HETATM   26  C   UNK N   1       2.105  -5.791  -2.092  0.00  0.00     0.017 A 
HETATM   27  C   UNK N   1       2.798  -6.866  -1.525  0.00  0.00     0.001 A 
HETATM   28  C   UNK N   1       2.207  -7.630  -0.516  0.00  0.00     0.000 A 
HETATM   29  C   UNK N   1       0.920  -7.321  -0.069  0.00  0.00     0.001 A 
HETATM   30  C   UNK N   1       0.225  -6.244  -0.625  0.00  0.00     0.017 A 
ENDBRANCH  23  25
ENDBRANCH  22  23
ENDBRANCH  10  22
BRANCH   8  31
HETATM   31  O   UNK N   1      -2.263   0.657  -1.247  0.00  0.00    -0.307 OA
BRANCH  31  32
HETATM   32  C   UNK N   1      -3.215   1.603  -0.978  0.00  0.00     0.255 C 
HETATM   33  O   UNK N   1      -4.377   1.448  -1.330  0.00  0.00    -0.266 OA
HETATM   34  C   UNK N   1      -2.849   2.831  -0.211  0.00  0.00     0.126 C 
ENDBRANCH  31  32
ENDBRANCH   8  31
BRANCH   7  35
HETATM   35  O   UNK N   1      -3.355  -1.272  -4.146  0.00  0.00    -0.313 OA
BRANCH  35  36
HETATM   36  C   UNK N   1      -4.616  -1.323  -4.657  0.00  0.00     0.255 C 
HETATM   37  O   UNK N   1      -5.486  -0.558  -4.264  0.00  0.00    -0.266 OA
HETATM   38  C   UNK N   1      -4.925  -2.301  -5.742  0.00  0.00     0.126 C 
ENDBRANCH  35  36
ENDBRANCH   7  35
BRANCH  16  39
HETATM   39  O   UNK N   1       2.822  -0.653  -0.672  0.00  0.00    -0.311 OA
BRANCH  39  40
HETATM   40  C   UNK N   1       3.339  -1.851  -1.047  0.00  0.00     0.255 C 
HETATM   41  O   UNK N   1       2.680  -2.634  -1.713  0.00  0.00    -0.266 OA
HETATM   42  C   UNK N   1       4.744  -2.196  -0.673  0.00  0.00     0.126 C 
ENDBRANCH  39  40
ENDBRANCH  16  39
TORSDOF 9
