REMARK  8 active torsions:
REMARK  status: ('A' for Active; 'I' for Inactive)
REMARK    1  A    between atoms: C_7  and  O_8 
REMARK    2  A    between atoms: O_8  and  C_9 
REMARK    3  A    between atoms: C_12  and  O_13 
REMARK    4  A    between atoms: O_13  and  C_14 
REMARK    5  A    between atoms: C_18  and  O_19 
REMARK    6  A    between atoms: O_19  and  C_20 
REMARK    7  A    between atoms: C_20  and  C_22 
REMARK    8  A    between atoms: C_33  and  O_34 
ROOT
HETATM    1  O   UNK N   1       3.165   1.497  -2.353  0.00  0.00    -0.297 OA
HETATM    2  C   UNK N   1       2.765   0.402  -2.729  0.00  0.00     0.141 C 
HETATM    3  C   UNK N   1       3.035  -0.808  -1.831  0.00  0.00     0.031 C 
HETATM    4  C   UNK N   1       2.394  -0.470  -0.480  0.00  0.00    -0.014 C 
HETATM    5  C   UNK N   1       1.465  -1.215   0.164  0.00  0.00    -0.023 C 
HETATM    6  C   UNK N   1       0.885  -0.802   1.510  0.00  0.00     0.036 C 
HETATM    7  C   UNK N   1      -0.044   0.449   1.456  0.00  0.00     0.175 C 
HETATM    8  C   UNK N   1      -1.428   0.294   0.706  0.00  0.00     0.107 C 
HETATM    9  C   UNK N   1      -1.475  -0.031  -0.823  0.00  0.00     0.076 C 
HETATM   10  C   UNK N   1      -2.931   0.360  -1.245  0.00  0.00     0.146 C 
HETATM   11  C   UNK N   1      -3.419   1.334  -0.131  0.00  0.00     0.015 C 
HETATM   12  C   UNK N   1      -2.172   1.639   0.697  0.00  0.00     0.049 C 
HETATM   13  C   UNK N   1      -4.127   2.606  -0.610  0.00  0.00     0.012 C 
HETATM   14  C   UNK N   1      -0.510   0.725  -1.730  0.00  0.00    -0.011 C 
HETATM   15  C   UNK N   1      -0.301   0.358  -3.026  0.00  0.00    -0.058 C 
HETATM   16  C   UNK N   1       0.681   1.142  -3.885  0.00  0.00     0.153 C 
HETATM   17  C   UNK N   1       2.000   0.358  -4.038  0.00  0.00     0.115 C 
HETATM   18  C   UNK N   1      -0.999  -0.837  -3.671  0.00  0.00     0.046 C 
HETATM   19  C   UNK N   1       2.019  -0.598   2.533  0.00  0.00     0.017 C 
HETATM   20  C   UNK N   1       2.525  -2.142  -2.424  0.00  0.00     0.027 C 
HETATM   21  C   UNK N   1       4.559  -0.944  -1.636  0.00  0.00     0.027 C 
ENDROOT
BRANCH  10  22
HETATM   22  O   UNK N   1      -3.719  -0.780  -1.285  0.00  0.00    -0.311 OA
BRANCH  22  23
HETATM   23  C   UNK N   1      -5.022  -0.813  -1.681  0.00  0.00     0.293 C 
HETATM   24  O   UNK N   1      -5.563   0.192  -2.115  0.00  0.00    -0.259 OA
BRANCH  23  25
HETATM   25  C   UNK N   1      -5.787  -2.077  -1.576  0.00  0.00     0.039 A 
HETATM   26  C   UNK N   1      -7.165  -2.106  -1.867  0.00  0.00     0.017 A 
HETATM   27  C   UNK N   1      -7.883  -3.300  -1.747  0.00  0.00     0.001 A 
HETATM   28  C   UNK N   1      -7.237  -4.470  -1.343  0.00  0.00     0.000 A 
HETATM   29  C   UNK N   1      -5.869  -4.451  -1.060  0.00  0.00     0.001 A 
HETATM   30  C   UNK N   1      -5.146  -3.261  -1.174  0.00  0.00     0.017 A 
ENDBRANCH  23  25
ENDBRANCH  22  23
ENDBRANCH  10  22
BRANCH   8  31
HETATM   31  O   UNK N   1      -2.253  -0.594   1.413  0.00  0.00    -0.307 OA
BRANCH  31  32
HETATM   32  C   UNK N   1      -2.347  -1.954   1.321  0.00  0.00     0.255 C 
HETATM   33  O   UNK N   1      -1.521  -2.615   0.711  0.00  0.00    -0.266 OA
HETATM   34  C   UNK N   1      -3.521  -2.643   1.937  0.00  0.00     0.126 C 
ENDBRANCH  31  32
ENDBRANCH   8  31
BRANCH   7  35
HETATM   35  O   UNK N   1       0.667   1.536   0.963  0.00  0.00    -0.313 OA
BRANCH  35  36
HETATM   36  C   UNK N   1       0.955   2.670   1.659  0.00  0.00     0.255 C 
HETATM   37  O   UNK N   1       0.604   2.803   2.824  0.00  0.00    -0.266 OA
HETATM   38  C   UNK N   1       1.707   3.771   0.985  0.00  0.00     0.126 C 
ENDBRANCH  35  36
ENDBRANCH   7  35
BRANCH  16  39
HETATM   39  O   UNK N   1       0.121   1.374  -5.151  0.00  0.00    -0.391 OA
HETATM   40  H   UNK N   1      -0.637   2.001  -5.018  0.00  0.00     0.210 HD
ENDBRANCH  16  39
TORSDOF 8
