REMARK  9 active torsions:
REMARK  status: ('A' for Active; 'I' for Inactive)
REMARK    1  A    between atoms: C_7  and  O_8 
REMARK    2  A    between atoms: O_8  and  C_9 
REMARK    3  A    between atoms: C_12  and  O_13 
REMARK    4  A    between atoms: O_13  and  C_14 
REMARK    5  A    between atoms: C_18  and  O_19 
REMARK    6  A    between atoms: O_19  and  C_20 
REMARK    7  A    between atoms: C_20  and  C_22 
REMARK    8  A    between atoms: C_33  and  O_34 
REMARK    9  A    between atoms: O_34  and  C_35 
ROOT
HETATM    1  O   UNK N   1       1.092   3.266   2.252  0.00  0.00    -0.297 OA
HETATM    2  C   UNK N   1       1.546   3.296   1.116  0.00  0.00     0.141 C 
HETATM    3  C   UNK N   1       0.942   4.284   0.106  0.00  0.00     0.031 C 
HETATM    4  C   UNK N   1      -0.520   3.893  -0.093  0.00  0.00    -0.014 C 
HETATM    5  C   UNK N   1      -1.073   3.492  -1.260  0.00  0.00    -0.023 C 
HETATM    6  C   UNK N   1      -2.538   3.122  -1.324  0.00  0.00     0.036 C 
HETATM    7  C   UNK N   1      -2.815   1.611  -1.630  0.00  0.00     0.175 C 
HETATM    8  C   UNK N   1      -2.158   0.617  -0.584  0.00  0.00     0.107 C 
HETATM    9  C   UNK N   1      -0.642   0.324  -0.847  0.00  0.00     0.076 C 
HETATM   10  C   UNK N   1      -0.654  -0.764  -1.941  0.00  0.00     0.146 C 
HETATM   11  C   UNK N   1      -1.959  -1.575  -1.744  0.00  0.00     0.015 C 
HETATM   12  C   UNK N   1      -2.738  -0.815  -0.658  0.00  0.00     0.049 C 
HETATM   13  C   UNK N   1      -1.779  -3.054  -1.357  0.00  0.00     0.012 C 
HETATM   14  C   UNK N   1       0.090  -0.174   0.406  0.00  0.00    -0.011 C 
HETATM   15  C   UNK N   1       1.347   0.194   0.802  0.00  0.00    -0.057 C 
HETATM   16  C   UNK N   1       2.284   1.119   0.004  0.00  0.00     0.167 C 
HETATM   17  C   UNK N   1       2.705   2.378   0.796  0.00  0.00     0.116 C 
HETATM   18  C   UNK N   1       1.889  -0.401   2.086  0.00  0.00     0.046 C 
HETATM   19  C   UNK N   1      -3.238   4.031  -2.340  0.00  0.00     0.017 C 
HETATM   20  C   UNK N   1       1.739   4.373  -1.223  0.00  0.00     0.027 C 
HETATM   21  C   UNK N   1       0.980   5.695   0.735  0.00  0.00     0.027 C 
ENDROOT
BRANCH  10  22
HETATM   22  O   UNK N   1       0.512  -1.509  -1.934  0.00  0.00    -0.311 OA
BRANCH  22  23
HETATM   23  C   UNK N   1       0.999  -2.215  -2.987  0.00  0.00     0.293 C 
HETATM   24  O   UNK N   1       0.450  -2.163  -4.078  0.00  0.00    -0.259 OA
BRANCH  23  25
HETATM   25  C   UNK N   1       2.222  -3.029  -2.797  0.00  0.00     0.039 A 
HETATM   26  C   UNK N   1       2.818  -3.705  -3.879  0.00  0.00     0.017 A 
HETATM   27  C   UNK N   1       3.975  -4.465  -3.679  0.00  0.00     0.001 A 
HETATM   28  C   UNK N   1       4.541  -4.562  -2.405  0.00  0.00     0.000 A 
HETATM   29  C   UNK N   1       3.953  -3.897  -1.327  0.00  0.00     0.001 A 
HETATM   30  C   UNK N   1       2.801  -3.132  -1.520  0.00  0.00     0.017 A 
ENDBRANCH  23  25
ENDBRANCH  22  23
ENDBRANCH  10  22
BRANCH   8  31
HETATM   31  O   UNK N   1      -2.334   1.126   0.704  0.00  0.00    -0.307 OA
BRANCH  31  32
HETATM   32  C   UNK N   1      -3.524   1.328   1.338  0.00  0.00     0.255 C 
HETATM   33  O   UNK N   1      -4.586   1.070   0.790  0.00  0.00    -0.266 OA
HETATM   34  C   UNK N   1      -3.525   1.876   2.725  0.00  0.00     0.126 C 
ENDBRANCH  31  32
ENDBRANCH   8  31
BRANCH   7  35
HETATM   35  O   UNK N   1      -2.464   1.313  -2.937  0.00  0.00    -0.313 OA
BRANCH  35  36
HETATM   36  C   UNK N   1      -3.339   0.951  -3.915  0.00  0.00     0.255 C 
HETATM   37  O   UNK N   1      -4.536   0.846  -3.686  0.00  0.00    -0.266 OA
HETATM   38  C   UNK N   1      -2.825   0.682  -5.291  0.00  0.00     0.126 C 
ENDBRANCH  35  36
ENDBRANCH   7  35
BRANCH  16  39
HETATM   39  O   UNK N   1       3.424   0.397  -0.313  0.00  0.00    -0.311 OA
BRANCH  39  40
HETATM   40  C   UNK N   1       4.184   0.603  -1.424  0.00  0.00     0.255 C 
HETATM   41  O   UNK N   1       3.871   1.447  -2.253  0.00  0.00    -0.266 OA
HETATM   42  C   UNK N   1       5.419  -0.212  -1.628  0.00  0.00     0.126 C 
ENDBRANCH  39  40
ENDBRANCH  16  39
TORSDOF 9
