REMARK  7 active torsions:
REMARK  status: ('A' for Active; 'I' for Inactive)
REMARK    1  A    between atoms: C_6  and  O_7 
REMARK    2  A    between atoms: O_7  and  C_8 
REMARK    3  A    between atoms: C_11  and  O_12 
REMARK    4  A    between atoms: O_12  and  C_13 
REMARK    5  A    between atoms: C_28  and  O_29 
REMARK    6  A    between atoms: O_29  and  C_30 
REMARK    7  A    between atoms: C_30  and  C_32 
ROOT
HETATM    1  O   UNK N   1      -3.075  -1.786  -2.373  0.00  0.00    -0.292 OA
HETATM    2  C   UNK N   1      -3.344  -1.586  -1.199  0.00  0.00     0.162 C 
HETATM    3  C   UNK N   1      -2.672  -2.404  -0.173  0.00  0.00    -0.019 C 
HETATM    4  C   UNK N   1      -1.450  -2.057   0.299  0.00  0.00    -0.006 C 
HETATM    5  C   UNK N   1      -0.732  -0.759  -0.114  0.00  0.00     0.076 C 
HETATM    6  C   UNK N   1       0.445  -1.031  -1.102  0.00  0.00     0.107 C 
HETATM    7  C   UNK N   1       0.904   0.229  -1.959  0.00  0.00     0.175 C 
HETATM    8  C   UNK N   1      -0.083   0.711  -3.073  0.00  0.00     0.036 C 
HETATM    9  C   UNK N   1      -1.349   1.341  -2.534  0.00  0.00    -0.023 C 
HETATM   10  C   UNK N   1      -2.566   0.948  -2.970  0.00  0.00    -0.014 C 
HETATM   11  C   UNK N   1      -3.899   1.508  -2.475  0.00  0.00     0.031 C 
HETATM   12  C   UNK N   1      -4.783   0.358  -1.950  0.00  0.00     0.145 C 
HETATM   13  C   UNK N   1      -4.346  -0.533  -0.800  0.00  0.00     0.163 C 
HETATM   14  O   UNK N   1      -5.895   0.182  -2.427  0.00  0.00    -0.296 OA
HETATM   15  C   UNK N   1      -3.748   2.563  -1.351  0.00  0.00     0.027 C 
HETATM   16  C   UNK N   1      -4.576   2.210  -3.674  0.00  0.00     0.027 C 
HETATM   17  C   UNK N   1       0.608   1.740  -3.979  0.00  0.00     0.017 C 
HETATM   18  C   UNK N   1       1.589  -1.478  -0.142  0.00  0.00     0.049 C 
HETATM   19  C   UNK N   1       1.209  -0.997   1.274  0.00  0.00     0.015 C 
HETATM   20  C   UNK N   1      -0.025  -0.112   1.094  0.00  0.00     0.146 C 
HETATM   21  C   UNK N   1       2.346  -0.328   2.047  0.00  0.00     0.012 C 
HETATM   22  C   UNK N   1      -3.343  -3.672   0.282  0.00  0.00     0.052 C 
ENDROOT
BRANCH  20  23
HETATM   23  O   UNK N   1      -0.780  -0.106   2.252  0.00  0.00    -0.311 OA
BRANCH  23  24
HETATM   24  C   UNK N   1      -1.705   0.829   2.588  0.00  0.00     0.293 C 
HETATM   25  O   UNK N   1      -1.885   1.808   1.879  0.00  0.00    -0.259 OA
BRANCH  24  26
HETATM   26  C   UNK N   1      -2.462   0.665   3.854  0.00  0.00     0.039 A 
HETATM   27  C   UNK N   1      -3.360   1.655   4.296  0.00  0.00     0.017 A 
HETATM   28  C   UNK N   1      -4.061   1.482   5.495  0.00  0.00     0.001 A 
HETATM   29  C   UNK N   1      -3.878   0.325   6.257  0.00  0.00     0.000 A 
HETATM   30  C   UNK N   1      -2.990  -0.662   5.825  0.00  0.00     0.001 A 
HETATM   31  C   UNK N   1      -2.282  -0.494   4.632  0.00  0.00     0.017 A 
ENDBRANCH  24  26
ENDBRANCH  23  24
ENDBRANCH  20  23
BRANCH   6  32
HETATM   32  O   UNK N   1       0.092  -2.064  -1.972  0.00  0.00    -0.307 OA
BRANCH  32  33
HETATM   33  C   UNK N   1       0.910  -2.706  -2.855  0.00  0.00     0.255 C 
HETATM   34  O   UNK N   1       2.095  -2.420  -2.946  0.00  0.00    -0.266 OA
HETATM   35  C   UNK N   1       0.349  -3.793  -3.711  0.00  0.00     0.126 C 
ENDBRANCH  32  33
ENDBRANCH   6  32
BRANCH   7  36
HETATM   36  O   UNK N   1       1.268   1.310  -1.168  0.00  0.00    -0.313 OA
BRANCH  36  37
HETATM   37  C   UNK N   1       2.523   1.830  -1.074  0.00  0.00     0.255 C 
HETATM   38  O   UNK N   1       3.466   1.315  -1.660  0.00  0.00    -0.266 OA
HETATM   39  C   UNK N   1       2.750   3.049  -0.240  0.00  0.00     0.126 C 
ENDBRANCH  36  37
ENDBRANCH   7  36
TORSDOF 7
