REMARK  9 active torsions:
REMARK  status: ('A' for Active; 'I' for Inactive)
REMARK    1  A    between atoms: C_2  and  O_3 
REMARK    2  A    between atoms: C_2  and  C_36 
REMARK    3  A    between atoms: O_3  and  C_4 
REMARK    4  A    between atoms: C_6  and  O_7 
REMARK    5  A    between atoms: C_9  and  O_10 
REMARK    6  A    between atoms: O_10  and  C_11 
REMARK    7  A    between atoms: C_18  and  O_19 
REMARK    8  A    between atoms: C_22  and  O_23 
REMARK    9  A    between atoms: O_23  and  C_24 
ROOT
HETATM    1  C   UNK N   1      -2.935   3.304  -4.024  0.00  0.00     0.146 C 
HETATM    2  C   UNK N   1      -2.261   2.191  -3.197  0.00  0.00     0.075 C 
HETATM    3  C   UNK N   1      -3.447   1.627  -2.374  0.00  0.00     0.095 C 
HETATM    4  C   UNK N   1      -3.105   0.730  -1.125  0.00  0.00     0.174 C 
HETATM    5  C   UNK N   1      -2.235  -0.557  -1.333  0.00  0.00     0.036 C 
HETATM    6  C   UNK N   1      -0.749  -0.288  -1.496  0.00  0.00    -0.023 C 
HETATM    7  C   UNK N   1       0.081  -0.319  -0.423  0.00  0.00    -0.019 C 
HETATM    8  C   UNK N   1       1.604  -0.120  -0.495  0.00  0.00    -0.004 C 
HETATM    9  C   UNK N   1       1.982   1.131  -1.354  0.00  0.00     0.132 C 
HETATM   10  C   UNK N   1       1.428   2.467  -0.800  0.00  0.00     0.070 C 
HETATM   11  C   UNK N   1       1.205   3.509  -1.929  0.00  0.00     0.162 C 
HETATM   12  C   UNK N   1       0.102   3.041  -2.867  0.00  0.00    -0.058 C 
HETATM   13  C   UNK N   1      -1.137   2.777  -2.367  0.00  0.00    -0.011 C 
HETATM   14  C   UNK N   1       0.460   2.839  -4.328  0.00  0.00     0.046 C 
HETATM   15  C   UNK N   1       2.149   0.015   0.945  0.00  0.00     0.021 C 
HETATM   16  C   UNK N   1       2.226  -1.384  -1.130  0.00  0.00     0.021 C 
HETATM   17  C   UNK N   1      -2.730  -1.485  -2.446  0.00  0.00     0.017 C 
HETATM   18  C   UNK N   1      -4.212   2.907  -1.954  0.00  0.00     0.048 C 
HETATM   19  C   UNK N   1      -3.847   3.991  -2.988  0.00  0.00     0.015 C 
HETATM   20  C   UNK N   1      -5.057   4.739  -3.556  0.00  0.00     0.012 C 
ENDROOT
BRANCH   1  21
HETATM   21  O   UNK N   1      -3.686   2.730  -5.042  0.00  0.00    -0.311 OA
BRANCH  21  22
HETATM   22  C   UNK N   1      -3.488   2.978  -6.369  0.00  0.00     0.293 C 
HETATM   23  O   UNK N   1      -2.593   3.726  -6.735  0.00  0.00    -0.259 OA
BRANCH  22  24
HETATM   24  C   UNK N   1      -4.358   2.329  -7.376  0.00  0.00     0.039 A 
HETATM   25  C   UNK N   1      -5.386   1.459  -6.977  0.00  0.00     0.017 A 
HETATM   26  C   UNK N   1      -6.205   0.850  -7.934  0.00  0.00     0.001 A 
HETATM   27  C   UNK N   1      -6.004   1.106  -9.293  0.00  0.00     0.000 A 
HETATM   28  C   UNK N   1      -4.984   1.968  -9.700  0.00  0.00     0.001 A 
HETATM   29  C   UNK N   1      -4.163   2.578  -8.749  0.00  0.00     0.017 A 
ENDBRANCH  22  24
ENDBRANCH  21  22
ENDBRANCH   1  21
BRANCH   3  30
HETATM   30  O   UNK N   1      -4.252   0.893  -3.275  0.00  0.00    -0.386 OA
HETATM   31  H   UNK N   1      -5.116   0.678  -2.837  0.00  0.00     0.210 HD
ENDBRANCH   3  30
BRANCH   4  32
HETATM   32  O   UNK N   1      -4.306   0.381  -0.519  0.00  0.00    -0.313 OA
BRANCH  32  33
HETATM   33  C   UNK N   1      -4.436   0.044   0.794  0.00  0.00     0.255 C 
HETATM   34  O   UNK N   1      -3.474   0.078   1.550  0.00  0.00    -0.266 OA
HETATM   35  C   UNK N   1      -5.776  -0.348   1.322  0.00  0.00     0.126 C 
ENDBRANCH  32  33
ENDBRANCH   4  32
BRANCH  11  36
HETATM   36  O   UNK N   1       0.852   4.739  -1.406  0.00  0.00    -0.312 OA
BRANCH  36  37
HETATM   37  C   UNK N   1       1.753   5.636  -0.926  0.00  0.00     0.255 C 
HETATM   38  O   UNK N   1       2.951   5.388  -0.931  0.00  0.00    -0.266 OA
HETATM   39  C   UNK N   1       1.272   6.954  -0.417  0.00  0.00     0.126 C 
ENDBRANCH  36  37
ENDBRANCH  11  36
BRANCH   9  40
HETATM   40  O   UNK N   1       3.379   1.233  -1.489  0.00  0.00    -0.394 OA
HETATM   41  H   UNK N   1       3.563   1.717  -2.335  0.00  0.00     0.210 HD
ENDBRANCH   9  40
TORSDOF 9
