REMARK  8 active torsions:
REMARK  status: ('A' for Active; 'I' for Inactive)
REMARK    1  A    between atoms: C_6  and  O_7 
REMARK    2  A    between atoms: C_9  and  O_10 
REMARK    3  A    between atoms: O_10  and  C_11 
REMARK    4  A    between atoms: C_18  and  O_19 
REMARK    5  A    between atoms: O_19  and  C_20 
REMARK    6  A    between atoms: C_29  and  O_30 
REMARK    7  A    between atoms: O_30  and  C_31 
REMARK    8  A    between atoms: C_31  and  C_33 
ROOT
HETATM    1  O   UNK N   1      -2.961  -0.352  -1.290  0.00  0.00    -0.293 OA
HETATM    2  C   UNK N   1      -1.872   0.202  -1.332  0.00  0.00     0.157 C 
HETATM    3  C   UNK N   1      -1.437   1.062  -0.187  0.00  0.00    -0.019 C 
HETATM    4  C   UNK N   1      -0.115   1.297   0.030  0.00  0.00    -0.006 C 
HETATM    5  C   UNK N   1       0.431   2.357   0.992  0.00  0.00     0.076 C 
HETATM    6  C   UNK N   1       1.878   2.839   0.649  0.00  0.00     0.095 C 
HETATM    7  C   UNK N   1       2.134   3.096  -0.878  0.00  0.00     0.174 C 
HETATM    8  C   UNK N   1       1.169   4.139  -1.537  0.00  0.00     0.036 C 
HETATM    9  C   UNK N   1       0.681   3.558  -2.854  0.00  0.00    -0.023 C 
HETATM   10  C   UNK N   1      -0.630   3.283  -3.024  0.00  0.00    -0.019 C 
HETATM   11  C   UNK N   1      -1.239   2.508  -4.197  0.00  0.00    -0.003 C 
HETATM   12  C   UNK N   1      -2.037   1.308  -3.571  0.00  0.00     0.150 C 
HETATM   13  C   UNK N   1      -1.181   0.350  -2.679  0.00  0.00     0.117 C 
HETATM   14  C   UNK N   1      -0.195   2.004  -5.219  0.00  0.00     0.021 C 
HETATM   15  C   UNK N   1      -2.222   3.450  -4.921  0.00  0.00     0.021 C 
HETATM   16  C   UNK N   1       1.787   5.528  -1.715  0.00  0.00     0.017 C 
HETATM   17  C   UNK N   1       2.719   1.660   1.183  0.00  0.00     0.048 C 
HETATM   18  C   UNK N   1       1.995   1.147   2.451  0.00  0.00     0.015 C 
HETATM   19  C   UNK N   1       0.614   1.851   2.426  0.00  0.00     0.146 C 
HETATM   20  C   UNK N   1       1.944  -0.391   2.451  0.00  0.00     0.012 C 
HETATM   21  C   UNK N   1      -2.536   1.736   0.607  0.00  0.00     0.052 C 
ENDROOT
BRANCH  19  22
HETATM   22  O   UNK N   1      -0.449   1.088   2.873  0.00  0.00    -0.311 OA
BRANCH  22  23
HETATM   23  C   UNK N   1      -0.698   0.791   4.175  0.00  0.00     0.293 C 
HETATM   24  O   UNK N   1      -0.032   1.300   5.066  0.00  0.00    -0.259 OA
BRANCH  23  25
HETATM   25  C   UNK N   1      -1.814  -0.127   4.506  0.00  0.00     0.039 A 
HETATM   26  C   UNK N   1      -2.200  -0.344   5.843  0.00  0.00     0.017 A 
HETATM   27  C   UNK N   1      -3.262  -1.205   6.138  0.00  0.00     0.001 A 
HETATM   28  C   UNK N   1      -3.942  -1.860   5.107  0.00  0.00     0.000 A 
HETATM   29  C   UNK N   1      -3.561  -1.656   3.779  0.00  0.00     0.001 A 
HETATM   30  C   UNK N   1      -2.504  -0.794   3.478  0.00  0.00     0.017 A 
ENDBRANCH  23  25
ENDBRANCH  22  23
ENDBRANCH  19  22
BRANCH   6  31
HETATM   31  O   UNK N   1       2.145   4.007   1.394  0.00  0.00    -0.386 OA
HETATM   32  H   UNK N   1       3.116   4.201   1.320  0.00  0.00     0.210 HD
ENDBRANCH   6  31
BRANCH   7  33
HETATM   33  O   UNK N   1       3.464   3.433  -1.098  0.00  0.00    -0.313 OA
BRANCH  33  34
HETATM   34  C   UNK N   1       4.365   2.678  -1.783  0.00  0.00     0.255 C 
HETATM   35  O   UNK N   1       4.045   1.607  -2.281  0.00  0.00    -0.266 OA
HETATM   36  C   UNK N   1       5.770   3.165  -1.916  0.00  0.00     0.126 C 
ENDBRANCH  33  34
ENDBRANCH   7  33
BRANCH  12  37
HETATM   37  O   UNK N   1      -2.697   0.569  -4.544  0.00  0.00    -0.315 OA
BRANCH  37  38
HETATM   38  C   UNK N   1      -4.045   0.401  -4.614  0.00  0.00     0.255 C 
HETATM   39  O   UNK N   1      -4.783   0.845  -3.744  0.00  0.00    -0.266 OA
HETATM   40  C   UNK N   1      -4.631  -0.341  -5.770  0.00  0.00     0.126 C 
ENDBRANCH  37  38
ENDBRANCH  12  37
TORSDOF 8
