REMARK  10 active torsions:
REMARK  status: ('A' for Active; 'I' for Inactive)
REMARK    1  A    between atoms: C_4  and  O_5 
REMARK    2  A    between atoms: C_9  and  O_10 
REMARK    3  A    between atoms: O_10  and  C_11 
REMARK    4  A    between atoms: C_14  and  O_15 
REMARK    5  A    between atoms: O_15  and  C_16 
REMARK    6  A    between atoms: C_20  and  O_21 
REMARK    7  A    between atoms: O_21  and  C_22 
REMARK    8  A    between atoms: C_22  and  C_24 
REMARK    9  A    between atoms: C_35  and  O_36 
REMARK   10  A    between atoms: O_36  and  C_37 
ROOT
HETATM    1  O   UNK N   1      -2.074   3.634  -3.907  0.00  0.00    -0.297 OA
HETATM    2  C   UNK N   1      -1.704   2.587  -4.418  0.00  0.00     0.140 C 
HETATM    3  C   UNK N   1      -0.669   2.636  -5.552  0.00  0.00     0.042 C 
HETATM    4  C   UNK N   1       0.610   3.417  -5.067  0.00  0.00     0.156 C 
HETATM    5  C   UNK N   1       1.160   2.847  -3.754  0.00  0.00     0.011 C 
HETATM    6  C   UNK N   1       1.356   3.486  -2.563  0.00  0.00    -0.053 C 
HETATM    7  C   UNK N   1       2.008   2.706  -1.419  0.00  0.00     0.196 C 
HETATM    8  C   UNK N   1       1.223   2.605  -0.048  0.00  0.00     0.111 C 
HETATM    9  C   UNK N   1      -0.082   1.719  -0.023  0.00  0.00     0.076 C 
HETATM   10  C   UNK N   1       0.362   0.358   0.516  0.00  0.00     0.146 C 
HETATM   11  C   UNK N   1       1.326   0.773   1.632  0.00  0.00     0.015 C 
HETATM   12  C   UNK N   1       2.174   1.849   0.951  0.00  0.00     0.049 C 
HETATM   13  C   UNK N   1       2.141  -0.377   2.231  0.00  0.00     0.012 C 
HETATM   14  C   UNK N   1      -0.946   1.594  -1.273  0.00  0.00    -0.011 C 
HETATM   15  C   UNK N   1      -2.309   1.758  -1.336  0.00  0.00    -0.057 C 
HETATM   16  C   UNK N   1      -3.115   1.469  -2.614  0.00  0.00     0.167 C 
HETATM   17  C   UNK N   1      -2.307   1.284  -3.923  0.00  0.00     0.116 C 
HETATM   18  C   UNK N   1      -3.163   2.155  -0.143  0.00  0.00     0.046 C 
HETATM   19  C   UNK N   1       1.042   4.955  -2.365  0.00  0.00     0.046 C 
HETATM   20  C   UNK N   1      -0.254   1.211  -6.014  0.00  0.00     0.026 C 
HETATM   21  C   UNK N   1      -1.288   3.337  -6.783  0.00  0.00     0.026 C 
ENDROOT
BRANCH  10  22
HETATM   22  O   UNK N   1       1.015  -0.364  -0.472  0.00  0.00    -0.311 OA
BRANCH  22  23
HETATM   23  C   UNK N   1       0.612  -1.587  -0.917  0.00  0.00     0.293 C 
HETATM   24  O   UNK N   1      -0.390  -2.119  -0.458  0.00  0.00    -0.259 OA
BRANCH  23  25
HETATM   25  C   UNK N   1       1.389  -2.268  -1.973  0.00  0.00     0.039 A 
HETATM   26  C   UNK N   1       0.984  -3.524  -2.462  0.00  0.00     0.017 A 
HETATM   27  C   UNK N   1       1.726  -4.161  -3.460  0.00  0.00     0.001 A 
HETATM   28  C   UNK N   1       2.872  -3.553  -3.977  0.00  0.00     0.000 A 
HETATM   29  C   UNK N   1       3.280  -2.306  -3.496  0.00  0.00     0.001 A 
HETATM   30  C   UNK N   1       2.543  -1.665  -2.499  0.00  0.00     0.017 A 
ENDBRANCH  23  25
ENDBRANCH  22  23
ENDBRANCH  10  22
BRANCH   8  31
HETATM   31  O   UNK N   1       0.905   3.896   0.370  0.00  0.00    -0.306 OA
BRANCH  31  32
HETATM   32  C   UNK N   1       0.360   4.295   1.554  0.00  0.00     0.255 C 
HETATM   33  O   UNK N   1       0.420   3.591   2.549  0.00  0.00    -0.266 OA
HETATM   34  C   UNK N   1      -0.354   5.604   1.622  0.00  0.00     0.126 C 
ENDBRANCH  31  32
ENDBRANCH   8  31
BRANCH   7  35
HETATM   35  O   UNK N   1       3.240   3.313  -1.200  0.00  0.00    -0.309 OA
BRANCH  35  36
HETATM   36  C   UNK N   1       4.449   2.743  -1.470  0.00  0.00     0.255 C 
HETATM   37  O   UNK N   1       4.525   1.621  -1.951  0.00  0.00    -0.266 OA
HETATM   38  C   UNK N   1       5.701   3.508  -1.186  0.00  0.00     0.126 C 
ENDBRANCH  35  36
ENDBRANCH   7  35
BRANCH  16  39
HETATM   39  O   UNK N   1      -3.869   0.333  -2.371  0.00  0.00    -0.311 OA
BRANCH  39  40
HETATM   40  C   UNK N   1      -5.010   0.011  -3.036  0.00  0.00     0.255 C 
HETATM   41  O   UNK N   1      -5.505   0.784  -3.844  0.00  0.00    -0.266 OA
HETATM   42  C   UNK N   1      -5.675  -1.296  -2.753  0.00  0.00     0.126 C 
ENDBRANCH  39  40
ENDBRANCH  16  39
BRANCH   4  43
HETATM   43  O   UNK N   1       0.438   4.816  -5.049  0.00  0.00    -0.391 OA
HETATM   44  H   UNK N   1      -0.434   5.052  -4.655  0.00  0.00     0.210 HD
ENDBRANCH   4  43
TORSDOF 10
