REMARK  9 active torsions:
REMARK  status: ('A' for Active; 'I' for Inactive)
REMARK    1  A    between atoms: C_2  and  O_3 
REMARK    2  A    between atoms: C_2  and  C_36 
REMARK    3  A    between atoms: O_3  and  C_4 
REMARK    4  A    between atoms: C_6  and  O_7 
REMARK    5  A    between atoms: C_9  and  O_10 
REMARK    6  A    between atoms: O_10  and  C_11 
REMARK    7  A    between atoms: C_18  and  O_19 
REMARK    8  A    between atoms: O_19  and  C_20 
REMARK    9  A    between atoms: C_24  and  O_25 
ROOT
HETATM    1  C   UNK N   1       1.111   1.827   0.931  0.00  0.00     0.146 C 
HETATM    2  C   UNK N   1       0.698   1.338  -0.476  0.00  0.00     0.075 C 
HETATM    3  C   UNK N   1       1.886   0.411  -0.919  0.00  0.00     0.095 C 
HETATM    4  C   UNK N   1       2.597   0.852  -2.238  0.00  0.00     0.174 C 
HETATM    5  C   UNK N   1       1.791   0.648  -3.547  0.00  0.00     0.036 C 
HETATM    6  C   UNK N   1       0.691   1.668  -3.801  0.00  0.00    -0.023 C 
HETATM    7  C   UNK N   1      -0.560   1.266  -4.091  0.00  0.00    -0.019 C 
HETATM    8  C   UNK N   1      -1.689   2.166  -4.611  0.00  0.00    -0.003 C 
HETATM    9  C   UNK N   1      -2.994   1.958  -3.760  0.00  0.00     0.146 C 
HETATM   10  C   UNK N   1      -3.110   2.744  -2.428  0.00  0.00     0.070 C 
HETATM   11  C   UNK N   1      -2.017   2.575  -1.357  0.00  0.00     0.149 C 
HETATM   12  C   UNK N   1      -1.863   1.153  -0.831  0.00  0.00    -0.059 C 
HETATM   13  C   UNK N   1      -0.669   0.628  -0.442  0.00  0.00    -0.012 C 
HETATM   14  C   UNK N   1      -3.118   0.341  -0.572  0.00  0.00     0.046 C 
HETATM   15  C   UNK N   1      -1.317   3.666  -4.731  0.00  0.00     0.021 C 
HETATM   16  C   UNK N   1      -1.944   1.650  -6.052  0.00  0.00     0.021 C 
HETATM   17  C   UNK N   1       2.750   0.733  -4.746  0.00  0.00     0.017 C 
HETATM   18  C   UNK N   1       2.894   0.485   0.273  0.00  0.00     0.048 C 
HETATM   19  C   UNK N   1       2.053   0.771   1.511  0.00  0.00     0.015 C 
HETATM   20  C   UNK N   1       1.381  -0.481   2.098  0.00  0.00     0.012 C 
ENDROOT
BRANCH   1  21
HETATM   21  O   UNK N   1       0.024   2.128   1.725  0.00  0.00    -0.311 OA
BRANCH  21  22
HETATM   22  C   UNK N   1       0.037   2.967   2.789  0.00  0.00     0.293 C 
HETATM   23  O   UNK N   1       1.040   3.610   3.065  0.00  0.00    -0.259 OA
BRANCH  22  24
HETATM   24  C   UNK N   1      -1.197   3.114   3.590  0.00  0.00     0.039 A 
HETATM   25  C   UNK N   1      -1.272   4.043   4.644  0.00  0.00     0.017 A 
HETATM   26  C   UNK N   1      -2.450   4.166   5.388  0.00  0.00     0.001 A 
HETATM   27  C   UNK N   1      -3.556   3.364   5.090  0.00  0.00     0.000 A 
HETATM   28  C   UNK N   1      -3.488   2.440   4.045  0.00  0.00     0.001 A 
HETATM   29  C   UNK N   1      -2.317   2.316   3.296  0.00  0.00     0.017 A 
ENDBRANCH  22  24
ENDBRANCH  21  22
ENDBRANCH   1  21
BRANCH   3  30
HETATM   30  O   UNK N   1       1.434  -0.921  -1.040  0.00  0.00    -0.386 OA
HETATM   31  H   UNK N   1       2.211  -1.498  -1.259  0.00  0.00     0.210 HD
ENDBRANCH   3  30
BRANCH   4  32
HETATM   32  O   UNK N   1       2.995   2.181  -2.150  0.00  0.00    -0.313 OA
BRANCH  32  33
HETATM   33  C   UNK N   1       4.277   2.628  -2.185  0.00  0.00     0.255 C 
HETATM   34  O   UNK N   1       5.213   1.852  -2.313  0.00  0.00    -0.266 OA
HETATM   35  C   UNK N   1       4.535   4.094  -2.062  0.00  0.00     0.126 C 
ENDBRANCH  32  33
ENDBRANCH   4  32
BRANCH  11  36
HETATM   36  O   UNK N   1      -2.349   3.380  -0.254  0.00  0.00    -0.391 OA
HETATM   37  H   UNK N   1      -2.281   4.328  -0.540  0.00  0.00     0.210 HD
ENDBRANCH  11  36
BRANCH   9  38
HETATM   38  O   UNK N   1      -4.096   2.321  -4.523  0.00  0.00    -0.315 OA
BRANCH  38  39
HETATM   39  C   UNK N   1      -5.332   1.766  -4.397  0.00  0.00     0.255 C 
HETATM   40  O   UNK N   1      -5.539   0.866  -3.594  0.00  0.00    -0.266 OA
HETATM   41  C   UNK N   1      -6.446   2.261  -5.258  0.00  0.00     0.126 C 
ENDBRANCH  38  39
ENDBRANCH   9  38
TORSDOF 9
