REMARK  8 active torsions:
REMARK  status: ('A' for Active; 'I' for Inactive)
REMARK    1  A    between atoms: C_7  and  O_8 
REMARK    2  A    between atoms: O_8  and  C_9 
REMARK    3  A    between atoms: C_12  and  O_13 
REMARK    4  A    between atoms: O_13  and  C_14 
REMARK    5  A    between atoms: C_18  and  O_19 
REMARK    6  A    between atoms: O_19  and  C_20 
REMARK    7  A    between atoms: C_20  and  C_22 
REMARK    8  A    between atoms: C_33  and  O_34 
ROOT
HETATM    1  O   UNK N   1      -3.197   4.006  -4.971  0.00  0.00    -0.297 OA
HETATM    2  C   UNK N   1      -2.743   2.938  -5.364  0.00  0.00     0.141 C 
HETATM    3  C   UNK N   1      -1.375   2.945  -6.031  0.00  0.00     0.031 C 
HETATM    4  C   UNK N   1      -0.431   3.441  -4.941  0.00  0.00    -0.014 C 
HETATM    5  C   UNK N   1       0.643   2.775  -4.484  0.00  0.00    -0.023 C 
HETATM    6  C   UNK N   1       1.546   3.405  -3.451  0.00  0.00     0.036 C 
HETATM    7  C   UNK N   1       2.020   2.431  -2.336  0.00  0.00     0.175 C 
HETATM    8  C   UNK N   1       1.017   2.090  -1.172  0.00  0.00     0.107 C 
HETATM    9  C   UNK N   1      -0.144   1.108  -1.494  0.00  0.00     0.076 C 
HETATM   10  C   UNK N   1      -0.561   0.552  -0.102  0.00  0.00     0.146 C 
HETATM   11  C   UNK N   1       0.638   0.819   0.834  0.00  0.00     0.015 C 
HETATM   12  C   UNK N   1       1.755   1.241  -0.101  0.00  0.00     0.049 C 
HETATM   13  C   UNK N   1       1.018  -0.315   1.793  0.00  0.00     0.012 C 
HETATM   14  C   UNK N   1      -1.385   1.634  -2.210  0.00  0.00    -0.011 C 
HETATM   15  C   UNK N   1      -2.204   0.883  -3.002  0.00  0.00    -0.058 C 
HETATM   16  C   UNK N   1      -3.523   1.477  -3.512  0.00  0.00     0.153 C 
HETATM   17  C   UNK N   1      -3.531   1.690  -5.043  0.00  0.00     0.115 C 
HETATM   18  C   UNK N   1      -1.919  -0.571  -3.350  0.00  0.00     0.046 C 
HETATM   19  C   UNK N   1       2.763   3.943  -4.217  0.00  0.00     0.017 C 
HETATM   20  C   UNK N   1      -0.971   1.574  -6.627  0.00  0.00     0.027 C 
HETATM   21  C   UNK N   1      -1.363   3.965  -7.189  0.00  0.00     0.027 C 
ENDROOT
BRANCH  10  22
HETATM   22  O   UNK N   1      -0.845  -0.798  -0.215  0.00  0.00    -0.311 OA
BRANCH  22  23
HETATM   23  C   UNK N   1      -2.031  -1.382   0.109  0.00  0.00     0.293 C 
HETATM   24  O   UNK N   1      -2.970  -0.709   0.508  0.00  0.00    -0.259 OA
BRANCH  23  25
HETATM   25  C   UNK N   1      -2.173  -2.850  -0.035  0.00  0.00     0.039 A 
HETATM   26  C   UNK N   1      -3.391  -3.490   0.264  0.00  0.00     0.017 A 
HETATM   27  C   UNK N   1      -3.509  -4.877   0.120  0.00  0.00     0.001 A 
HETATM   28  C   UNK N   1      -2.419  -5.632  -0.320  0.00  0.00     0.000 A 
HETATM   29  C   UNK N   1      -1.207  -5.005  -0.616  0.00  0.00     0.001 A 
HETATM   30  C   UNK N   1      -1.083  -3.620  -0.476  0.00  0.00     0.017 A 
ENDBRANCH  23  25
ENDBRANCH  22  23
ENDBRANCH  10  22
BRANCH   8  31
HETATM   31  O   UNK N   1       0.480   3.251  -0.612  0.00  0.00    -0.307 OA
BRANCH  31  32
HETATM   32  C   UNK N   1       1.157   4.266  -0.003  0.00  0.00     0.255 C 
HETATM   33  O   UNK N   1       2.366   4.214   0.164  0.00  0.00    -0.266 OA
HETATM   34  C   UNK N   1       0.398   5.459   0.476  0.00  0.00     0.126 C 
ENDBRANCH  31  32
ENDBRANCH   8  31
BRANCH   7  35
HETATM   35  O   UNK N   1       2.506   1.264  -2.916  0.00  0.00    -0.313 OA
BRANCH  35  36
HETATM   36  C   UNK N   1       3.810   0.879  -2.938  0.00  0.00     0.255 C 
HETATM   37  O   UNK N   1       4.686   1.589  -2.465  0.00  0.00    -0.266 OA
HETATM   38  C   UNK N   1       4.173  -0.427  -3.566  0.00  0.00     0.126 C 
ENDBRANCH  35  36
ENDBRANCH   7  35
BRANCH  16  39
HETATM   39  O   UNK N   1      -4.573   0.614  -3.163  0.00  0.00    -0.391 OA
HETATM   40  H   UNK N   1      -4.718   0.722  -2.186  0.00  0.00     0.210 HD
ENDBRANCH  16  39
TORSDOF 8
