REMARK  9 active torsions:
REMARK  status: ('A' for Active; 'I' for Inactive)
REMARK    1  A    between atoms: C_2  and  O_3 
REMARK    2  A    between atoms: C_2  and  C_36 
REMARK    3  A    between atoms: O_3  and  C_4 
REMARK    4  A    between atoms: C_7  and  O_8 
REMARK    5  A    between atoms: O_8  and  C_9 
REMARK    6  A    between atoms: C_18  and  O_19 
REMARK    7  A    between atoms: O_19  and  C_20 
REMARK    8  A    between atoms: C_24  and  C_25 
REMARK    9  A    between atoms: C_25  and  O_27 
ROOT
HETATM    1  C   UNK N   1      -0.007  -0.345   1.037  0.00  0.00     0.148 C 
HETATM    2  C   UNK N   1       0.172  -0.480  -0.507  0.00  0.00     0.070 C 
HETATM    3  C   UNK N   1       0.916   0.801  -0.833  0.00  0.00    -0.039 C 
HETATM    4  C   UNK N   1       1.463   1.176  -2.021  0.00  0.00     0.067 C 
HETATM    5  C   UNK N   1       1.380   0.400  -3.326  0.00  0.00     0.061 C 
HETATM    6  C   UNK N   1      -0.013   0.448  -3.936  0.00  0.00    -0.019 C 
HETATM    7  C   UNK N   1      -0.565  -0.585  -4.603  0.00  0.00    -0.019 C 
HETATM    8  C   UNK N   1      -1.850  -0.464  -5.420  0.00  0.00    -0.003 C 
HETATM    9  C   UNK N   1      -1.723   0.756  -6.376  0.00  0.00     0.021 C 
HETATM   10  C   UNK N   1      -1.941  -1.715  -6.331  0.00  0.00     0.021 C 
HETATM   11  C   UNK N   1      -3.180  -0.310  -4.598  0.00  0.00     0.144 C 
HETATM   12  C   UNK N   1      -3.631  -1.496  -3.682  0.00  0.00     0.052 C 
HETATM   13  C   UNK N   1      -3.250  -1.431  -2.182  0.00  0.00     0.116 C 
HETATM   14  C   UNK N   1      -1.774  -1.577  -1.814  0.00  0.00    -0.073 C 
HETATM   15  C   UNK N   1      -1.201  -0.540  -1.142  0.00  0.00    -0.012 C 
HETATM   16  C   UNK N   1      -1.065  -2.890  -2.091  0.00  0.00     0.044 C 
HETATM   17  C   UNK N   1       2.087  -0.967  -3.289  0.00  0.00     0.021 C 
HETATM   18  C   UNK N   1       1.123   1.632   0.404  0.00  0.00     0.044 C 
HETATM   19  C   UNK N   1       1.148   0.561   1.484  0.00  0.00     0.016 C 
HETATM   20  C   UNK N   1       2.512  -0.164   1.518  0.00  0.00     0.013 C 
ENDROOT
BRANCH   1  21
HETATM   21  O   UNK N   1       0.020  -1.549   1.719  0.00  0.00    -0.311 OA
BRANCH  21  22
HETATM   22  C   UNK N   1      -0.897  -2.545   1.619  0.00  0.00     0.293 C 
HETATM   23  O   UNK N   1      -1.942  -2.369   1.015  0.00  0.00    -0.259 OA
BRANCH  22  24
HETATM   24  C   UNK N   1      -0.608  -3.857   2.243  0.00  0.00     0.039 A 
HETATM   25  C   UNK N   1       0.542  -4.024   3.035  0.00  0.00     0.017 A 
HETATM   26  C   UNK N   1       0.824  -5.262   3.619  0.00  0.00     0.001 A 
HETATM   27  C   UNK N   1      -0.032  -6.345   3.410  0.00  0.00     0.000 A 
HETATM   28  C   UNK N   1      -1.176  -6.192   2.622  0.00  0.00     0.001 A 
HETATM   29  C   UNK N   1      -1.468  -4.953   2.041  0.00  0.00     0.017 A 
ENDBRANCH  22  24
ENDBRANCH  21  22
ENDBRANCH   1  21
BRANCH   4  30
HETATM   30  O   UNK N   1       2.157   2.344  -2.061  0.00  0.00    -0.283 OA
BRANCH  30  31
HETATM   31  C   UNK N   1       3.503   2.407  -1.881  0.00  0.00     0.259 C 
HETATM   32  O   UNK N   1       4.148   1.400  -1.620  0.00  0.00    -0.265 OA
HETATM   33  C   UNK N   1       4.195   3.726  -1.982  0.00  0.00     0.126 C 
ENDBRANCH  30  31
ENDBRANCH   4  30
BRANCH  13  34
HETATM   34  C   UNK N   1      -4.059  -2.435  -1.389  0.00  0.00     0.266 C 
HETATM   35  O   UNK N   1      -4.001  -3.629  -1.652  0.00  0.00    -0.265 OA
BRANCH  34  36
HETATM   36  O   UNK N   1      -4.831  -1.991  -0.362  0.00  0.00    -0.326 OA
HETATM   37  C   UNK N   1      -5.542  -2.827   0.472  0.00  0.00     0.213 C 
ENDBRANCH  34  36
ENDBRANCH  13  34
BRANCH  11  38
HETATM   38  O   UNK N   1      -3.207   0.898  -3.913  0.00  0.00    -0.315 OA
BRANCH  38  39
HETATM   39  C   UNK N   1      -4.340   1.498  -3.455  0.00  0.00     0.255 C 
HETATM   40  O   UNK N   1      -5.444   1.052  -3.735  0.00  0.00    -0.266 OA
HETATM   41  C   UNK N   1      -4.229   2.713  -2.594  0.00  0.00     0.126 C 
ENDBRANCH  38  39
ENDBRANCH  11  38
TORSDOF 9
