REMARK  13 active torsions:
REMARK  status: ('A' for Active; 'I' for Inactive)
REMARK    1  A    between atoms: O_1  and  C_2 
REMARK    2  A    between atoms: C_2  and  C_3 
REMARK    3  A    between atoms: C_2  and  C_12 
REMARK    4  A    between atoms: C_4  and  C_5 
REMARK    5  A    between atoms: C_6  and  C_7 
REMARK    6  A    between atoms: C_7  and  O_8 
REMARK    7  A    between atoms: C_7  and  C_10 
REMARK    8  A    between atoms: C_13  and  C_14 
REMARK    9  A    between atoms: C_14  and  C_15 
REMARK   10  A    between atoms: C_15  and  C_16 
REMARK   11  A    between atoms: C_16  and  C_17 
REMARK   12  A    between atoms: C_17  and  C_18 
REMARK   13  A    between atoms: C_18  and  C_19 
ROOT
HETATM    1  C   UNK N   1      -3.748   1.708  -2.466  0.00  0.00     0.220 C 
ENDROOT
BRANCH   1   2
HETATM    2  O   UNK N   1      -4.338   1.005  -3.534  0.00  0.00    -0.380 OA
HETATM    3  H   UNK N   1      -3.982   0.074  -3.534  0.00  0.00     0.211 HD
ENDBRANCH   1   2
BRANCH   1   4
HETATM    4  C   UNK N   1      -2.302   1.832  -2.686  0.00  0.00    -0.057 C 
HETATM    5  C   UNK N   1      -1.120   1.917  -2.891  0.00  0.00    -0.012 C 
BRANCH   5   6
HETATM    6  C   UNK N   1       0.262   2.031  -3.111  0.00  0.00    -0.012 C 
HETATM    7  C   UNK N   1       1.445   2.121  -3.310  0.00  0.00    -0.057 C 
BRANCH   7   8
HETATM    8  C   UNK N   1       2.890   2.222  -3.538  0.00  0.00     0.220 C 
BRANCH   8   9
HETATM    9  O   UNK N   1       3.582   1.587  -2.496  0.00  0.00    -0.380 OA
HETATM   10  H   UNK N   1       3.395   2.092  -1.660  0.00  0.00     0.211 HD
ENDBRANCH   8   9
BRANCH   8  11
HETATM   11  C   UNK N   1       3.277   3.676  -3.683  0.00  0.00     0.007 C 
HETATM   12  C   UNK N   1       4.173   4.301  -2.902  0.00  0.00     0.010 C 
ENDBRANCH   8  11
ENDBRANCH   7   8
ENDBRANCH   5   6
ENDBRANCH   1   4
BRANCH   1  13
HETATM   13  C   UNK N   1      -3.992   0.983  -1.161  0.00  0.00     0.013 C 
HETATM   14  C   UNK N   1      -4.650   1.544  -0.120  0.00  0.00    -0.027 C 
BRANCH  14  15
HETATM   15  C   UNK N   1      -4.907   0.816   1.184  0.00  0.00     0.027 C 
BRANCH  15  16
HETATM   16  C   UNK N   1      -4.317   1.548   2.407  0.00  0.00     0.004 C 
BRANCH  16  17
HETATM   17  C   UNK N   1      -2.778   1.716   2.396  0.00  0.00     0.000 C 
BRANCH  17  18
HETATM   18  C   UNK N   1      -1.977   0.392   2.369  0.00  0.00     0.000 C 
BRANCH  18  19
HETATM   19  C   UNK N   1      -0.442   0.604   2.367  0.00  0.00    -0.000 C 
BRANCH  19  20
HETATM   20  C   UNK N   1       0.368  -0.712   2.323  0.00  0.00    -0.005 C 
HETATM   21  C   UNK N   1       1.880  -0.455   2.331  0.00  0.00     0.005 C 
ENDBRANCH  19  20
ENDBRANCH  18  19
ENDBRANCH  17  18
ENDBRANCH  16  17
ENDBRANCH  15  16
ENDBRANCH  14  15
ENDBRANCH   1  13
TORSDOF 13
