REMARK  12 active torsions:
REMARK  status: ('A' for Active; 'I' for Inactive)
REMARK       I    between atoms: C_2  and  N_3 
REMARK    1  A    between atoms: C_2  and  C_18 
REMARK    2  A    between atoms: N_3  and  C_4 
REMARK    3  A    between atoms: C_4  and  C_5 
REMARK    4  A    between atoms: C_4  and  C_8 
REMARK    5  A    between atoms: C_5  and  O_6 
REMARK    6  A    between atoms: C_8  and  C_9 
REMARK    7  A    between atoms: C_12  and  O_13 
REMARK    8  A    between atoms: C_19  and  C_20 
REMARK    9  A    between atoms: C_21  and  C_22 
REMARK   10  A    between atoms: C_22  and  C_23 
REMARK   11  A    between atoms: C_23  and  C_24 
REMARK   12  A    between atoms: C_24  and  O_26 
ROOT
HETATM    1  O   UNK N   1       1.220   0.964  -3.707  0.00  0.00    -0.269 OA
HETATM    2  C   UNK N   1       0.985   1.388  -2.586  0.00  0.00     0.241 C 
HETATM    3  N   UNK N   1       1.734   0.999  -1.515  0.00  0.00    -0.351 N 
HETATM    4  H   UNK N   1       1.522   1.411  -0.595  0.00  0.00     0.163 HD
ENDROOT
BRANCH   3   5
HETATM    5  C   UNK N   1       2.836   0.046  -1.608  0.00  0.00     0.112 C 
BRANCH   5   6
HETATM    6  C   UNK N   1       4.150   0.741  -1.209  0.00  0.00     0.189 C 
BRANCH   6   7
HETATM    7  O   UNK N   1       4.462   1.769  -2.110  0.00  0.00    -0.399 OA
HETATM    8  H   UNK N   1       3.823   2.509  -1.938  0.00  0.00     0.209 HD
ENDBRANCH   6   7
ENDBRANCH   5   6
BRANCH   5   9
HETATM    9  C   UNK N   1       2.556  -1.196  -0.726  0.00  0.00     0.065 C 
BRANCH   9  10
HETATM   10  C   UNK N   1       2.355  -0.875   0.740  0.00  0.00    -0.056 A 
HETATM   11  C   UNK N   1       1.078  -0.555   1.234  0.00  0.00     0.010 A 
HETATM   12  C   UNK N   1       0.899  -0.246   2.583  0.00  0.00     0.037 A 
HETATM   13  C   UNK N   1       1.989  -0.253   3.457  0.00  0.00     0.065 A 
HETATM   14  C   UNK N   1       3.265  -0.580   2.973  0.00  0.00     0.037 A 
HETATM   15  C   UNK N   1       3.447  -0.893   1.623  0.00  0.00     0.010 A 
BRANCH  13  16
HETATM   16  O   UNK N   1       1.803   0.055   4.756  0.00  0.00    -0.361 OA
HETATM   17  H   UNK N   1       2.536   0.065   5.386  0.00  0.00     0.217 HD
ENDBRANCH  13  16
ENDBRANCH   9  10
ENDBRANCH   5   9
ENDBRANCH   3   5
BRANCH   2  18
HETATM   18  C   UNK N   1      -0.102   2.369  -2.391  0.00  0.00     0.074 C 
HETATM   19  C   UNK N   1      -1.382   2.073  -2.058  0.00  0.00     0.012 C 
BRANCH  19  20
HETATM   20  C   UNK N   1      -1.976   0.697  -1.869  0.00  0.00    -0.065 C 
HETATM   21  C   UNK N   1      -3.254   0.518  -1.441  0.00  0.00    -0.015 C 
HETATM   22  C   UNK N   1      -1.177  -0.548  -2.181  0.00  0.00     0.048 C 
BRANCH  21  23
HETATM   23  C   UNK N   1      -4.248   1.611  -1.084  0.00  0.00     0.014 C 
HETATM   24  C   UNK N   1      -5.157   1.118   0.055  0.00  0.00     0.015 C 
BRANCH  23  25
HETATM   25  C   UNK N   1      -5.079   2.033  -2.314  0.00  0.00     0.118 C 
BRANCH  25  26
HETATM   26  C   UNK N   1      -5.813   0.881  -2.960  0.00  0.00     0.140 C 
HETATM   27  O   UNK N   1      -6.959   0.625  -2.629  0.00  0.00    -0.650 OA
BRANCH  26  28
HETATM   28  O   UNK N   1      -5.215   0.139  -3.916  0.00  0.00    -0.776 OA
HETATM   29  H   UNK N   1      -4.315   0.335  -4.214  0.00  0.00     0.167 HD
ENDBRANCH  26  28
ENDBRANCH  25  26
ENDBRANCH  23  25
ENDBRANCH  21  23
ENDBRANCH  19  20
ENDBRANCH   2  18
TORSDOF 12
