REMARK  4 active torsions:
REMARK  status: ('A' for Active; 'I' for Inactive)
REMARK    1  A    between atoms: C_8  and  O_10 
REMARK    2  A    between atoms: O_10  and  C_11 
REMARK    3  A    between atoms: C_11  and  C_12 
REMARK    4  A    between atoms: C_16  and  O_17 
ROOT
HETATM    1  C   UNK N   1      -2.999  -0.827   1.225  0.00  0.00     0.047 C 
HETATM    2  C   UNK N   1      -4.121  -0.592   0.128  0.00  0.00    -0.030 C 
HETATM    3  C   UNK N   1      -4.342   0.971  -0.083  0.00  0.00     0.005 C 
HETATM    4  C   UNK N   1      -5.278   1.387  -1.299  0.00  0.00    -0.017 C 
HETATM    5  C   UNK N   1      -4.801   0.626  -2.583  0.00  0.00     0.126 C 
HETATM    6  C   UNK N   1      -4.694  -0.900  -2.368  0.00  0.00     0.033 C 
HETATM    7  C   UNK N   1      -3.702  -1.213  -1.238  0.00  0.00     0.013 C 
HETATM    8  C   UNK N   1      -6.795   1.162  -1.054  0.00  0.00     0.018 C 
HETATM    9  C   UNK N   1      -5.112   2.909  -1.574  0.00  0.00     0.018 C 
HETATM   10  C   UNK N   1      -4.706   1.666   1.269  0.00  0.00     0.010 C 
HETATM   11  C   UNK N   1      -3.631   1.423   2.339  0.00  0.00     0.034 C 
HETATM   12  C   UNK N   1      -3.381  -0.056   2.477  0.00  0.00    -0.082 C 
HETATM   13  C   UNK N   1      -3.511  -0.673   3.662  0.00  0.00     0.015 C 
HETATM   14  C   UNK N   1      -5.380  -1.355   0.649  0.00  0.00     0.016 C 
ENDROOT
BRANCH   1  15
HETATM   15  C   UNK N   1      -1.572  -0.426   0.794  0.00  0.00     0.185 C 
BRANCH  15  16
HETATM   16  O   UNK N   1      -0.671  -0.655   1.817  0.00  0.00    -0.350 OA
BRANCH  16  17
HETATM   17  C   UNK N   1       0.664  -0.418   1.717  0.00  0.00     0.071 A 
HETATM   18  C   UNK N   1       1.486  -0.695   2.818  0.00  0.00     0.038 A 
HETATM   19  C   UNK N   1       2.865  -0.464   2.751  0.00  0.00     0.017 A 
HETATM   20  C   UNK N   1       3.433   0.050   1.576  0.00  0.00    -0.002 A 
HETATM   21  C   UNK N   1       2.613   0.331   0.464  0.00  0.00     0.092 A 
HETATM   22  C   UNK N   1       4.804   0.294   1.472  0.00  0.00     0.020 A 
HETATM   23  O   UNK N   1       3.141   0.818  -0.655  0.00  0.00    -0.275 OA
HETATM   24  C   UNK N   1       1.242   0.098   0.536  0.00  0.00     0.075 A 
HETATM   25  C   UNK N   1       4.443   1.062  -0.783  0.00  0.00     0.288 A 
HETATM   26  O   UNK N   1       4.873   1.509  -1.829  0.00  0.00    -0.260 OA
HETATM   27  C   UNK N   1       5.316   0.806   0.281  0.00  0.00     0.083 A 
ENDBRANCH  16  17
ENDBRANCH  15  16
ENDBRANCH   1  15
BRANCH   5  28
HETATM   28  O   UNK N   1      -5.663   0.901  -3.661  0.00  0.00    -0.395 OA
HETATM   29  H   UNK N   1      -5.258   0.500  -4.473  0.00  0.00     0.210 HD
ENDBRANCH   5  28
TORSDOF 4
