REMARK  6 active torsions:
REMARK  status: ('A' for Active; 'I' for Inactive)
REMARK    1  A    between atoms: C_4  and  O_5 
REMARK    2  A    between atoms: C_7  and  C_8 
REMARK    3  A    between atoms: C_16  and  O_17 
REMARK    4  A    between atoms: O_17  and  C_18 
REMARK    5  A    between atoms: C_18  and  C_20 
REMARK    6  A    between atoms: C_23  and  O_24 
ROOT
HETATM    1  O   UNK N   1       0.889   3.200  -1.661  0.00  0.00    -0.297 OA
HETATM    2  C   UNK N   1       1.965   2.715  -1.343  0.00  0.00     0.141 C 
HETATM    3  C   UNK N   1       2.412   1.353  -1.784  0.00  0.00     0.078 C 
HETATM    4  C   UNK N   1       3.908   1.306  -1.257  0.00  0.00     0.079 C 
HETATM    5  C   UNK N   1       3.960   2.405  -0.128  0.00  0.00     0.032 C 
HETATM    6  C   UNK N   1       2.998   3.494  -0.629  0.00  0.00     0.087 C 
HETATM    7  C   UNK N   1       4.313  -0.145  -0.813  0.00  0.00     0.044 C 
HETATM    8  C   UNK N   1       3.826  -0.572   0.593  0.00  0.00     0.036 C 
HETATM    9  C   UNK N   1       2.387  -0.341   1.031  0.00  0.00    -0.085 C 
HETATM   10  C   UNK N   1       1.378   0.036   0.222  0.00  0.00     0.009 C 
HETATM   11  C   UNK N   1       1.483   0.205  -1.267  0.00  0.00     0.173 C 
HETATM   12  C   UNK N   1       2.093  -0.541   2.499  0.00  0.00     0.043 C 
HETATM   13  C   UNK N   1       2.347   1.313  -3.341  0.00  0.00     0.029 C 
ENDROOT
BRANCH  11  14
HETATM   14  O   UNK N   1       0.215   0.409  -1.772  0.00  0.00    -0.307 OA
BRANCH  14  15
HETATM   15  C   UNK N   1      -0.720  -0.560  -1.963  0.00  0.00     0.294 C 
HETATM   16  O   UNK N   1      -0.463  -1.733  -1.735  0.00  0.00    -0.259 OA
BRANCH  15  17
HETATM   17  C   UNK N   1      -2.043  -0.163  -2.477  0.00  0.00     0.039 A 
HETATM   18  C   UNK N   1      -3.037  -1.114  -2.764  0.00  0.00     0.020 A 
HETATM   19  C   UNK N   1      -4.282  -0.699  -3.250  0.00  0.00     0.038 A 
HETATM   20  C   UNK N   1      -4.549   0.662  -3.451  0.00  0.00     0.068 A 
HETATM   21  C   UNK N   1      -3.547   1.609  -3.162  0.00  0.00     0.038 A 
HETATM   22  C   UNK N   1      -2.311   1.197  -2.684  0.00  0.00     0.020 A 
BRANCH  20  23
HETATM   23  O   UNK N   1      -5.769   1.033  -3.919  0.00  0.00    -0.356 OA
HETATM   24  C   UNK N   1      -6.153   2.339  -4.148  0.00  0.00     0.210 C 
ENDBRANCH  20  23
ENDBRANCH  15  17
ENDBRANCH  14  15
ENDBRANCH  11  14
BRANCH   4  25
HETATM   25  O   UNK N   1       4.782   1.753  -2.275  0.00  0.00    -0.388 OA
HETATM   26  H   UNK N   1       4.942   1.007  -2.912  0.00  0.00     0.210 HD
ENDBRANCH   4  25
BRANCH   5  27
HETATM   27  C   UNK N   1       5.355   3.017   0.260  0.00  0.00    -0.015 C 
HETATM   28  C   UNK N   1       5.202   4.111   1.334  0.00  0.00     0.010 C 
HETATM   29  C   UNK N   1       6.373   1.993   0.776  0.00  0.00     0.010 C 
ENDBRANCH   5  27
TORSDOF 6
