REMARK  8 active torsions:
REMARK  status: ('A' for Active; 'I' for Inactive)
REMARK    1  A    between atoms: C_8  and  O_10 
REMARK    2  A    between atoms: O_10  and  C_11 
REMARK    3  A    between atoms: C_11  and  C_12 
REMARK    4  A    between atoms: C_13  and  C_22 
REMARK    5  A    between atoms: C_14  and  C_15 
REMARK    6  A    between atoms: C_22  and  C_23 
REMARK    7  A    between atoms: C_23  and  C_24 
REMARK    8  A    between atoms: C_24  and  O_26 
ROOT
HETATM    1  C   UNK N   1      -2.833   2.206   0.865  0.00  0.00     0.022 C 
HETATM    2  C   UNK N   1      -4.012   1.202   0.745  0.00  0.00    -0.031 C 
HETATM    3  C   UNK N   1      -5.025   1.808   1.767  0.00  0.00     0.017 C 
HETATM    4  C   UNK N   1      -4.142   2.229   2.955  0.00  0.00     0.014 C 
HETATM    5  C   UNK N   1      -2.731   2.496   2.383  0.00  0.00    -0.011 C 
HETATM    6  C   UNK N   1      -2.185   3.891   2.699  0.00  0.00     0.010 C 
HETATM    7  C   UNK N   1      -3.613  -0.233   1.199  0.00  0.00     0.016 C 
ENDROOT
BRANCH   1   8
HETATM    8  C   UNK N   1      -1.483   1.816   0.224  0.00  0.00     0.181 C 
BRANCH   8   9
HETATM    9  O   UNK N   1      -0.931   0.751   0.910  0.00  0.00    -0.351 OA
BRANCH   9  10
HETATM   10  C   UNK N   1       0.383   0.424   0.930  0.00  0.00     0.071 A 
HETATM   11  C   UNK N   1       0.836  -0.419   1.953  0.00  0.00     0.038 A 
HETATM   12  C   UNK N   1       2.194  -0.719   2.076  0.00  0.00     0.017 A 
HETATM   13  C   UNK N   1       3.112  -0.184   1.165  0.00  0.00    -0.002 A 
HETATM   14  C   UNK N   1       2.662   0.639   0.109  0.00  0.00     0.092 A 
HETATM   15  C   UNK N   1       4.481  -0.434   1.282  0.00  0.00     0.020 A 
HETATM   16  O   UNK N   1       3.530   1.147  -0.761  0.00  0.00    -0.275 OA
HETATM   17  C   UNK N   1       1.301   0.938  -0.007  0.00  0.00     0.075 A 
HETATM   18  C   UNK N   1       4.841   0.922  -0.676  0.00  0.00     0.288 A 
HETATM   19  O   UNK N   1       5.592   1.415  -1.495  0.00  0.00    -0.260 OA
HETATM   20  C   UNK N   1       5.356   0.127   0.356  0.00  0.00     0.083 A 
ENDBRANCH   9  10
ENDBRANCH   8   9
ENDBRANCH   1   8
BRANCH   2  21
HETATM   21  C   UNK N   1      -4.532   1.159  -0.729  0.00  0.00     0.020 C 
BRANCH  21  22
HETATM   22  C   UNK N   1      -5.752   0.255  -0.978  0.00  0.00     0.111 C 
BRANCH  22  23
HETATM   23  C   UNK N   1      -6.211   0.283  -2.414  0.00  0.00     0.139 C 
HETATM   24  O   UNK N   1      -5.645   0.982  -3.243  0.00  0.00    -0.650 OA
BRANCH  23  25
HETATM   25  O   UNK N   1      -7.257  -0.484  -2.786  0.00  0.00    -0.776 OA
HETATM   26  H   UNK N   1      -7.565  -0.497  -3.703  0.00  0.00     0.167 HD
ENDBRANCH  23  25
ENDBRANCH  22  23
ENDBRANCH  21  22
ENDBRANCH   2  21
BRANCH   3  27
HETATM   27  C   UNK N   1      -5.770   3.039   1.247  0.00  0.00    -0.019 C 
HETATM   28  C   UNK N   1      -7.124   3.168   1.146  0.00  0.00    -0.091 C 
HETATM   29  C   UNK N   1      -7.697   4.453   0.606  0.00  0.00     0.042 C 
HETATM   30  C   UNK N   1      -8.135   2.106   1.536  0.00  0.00     0.042 C 
ENDBRANCH   3  27
TORSDOF 8
