REMARK  7 active torsions:
REMARK  status: ('A' for Active; 'I' for Inactive)
REMARK    1  A    between atoms: C_2  and  O_3 
REMARK    2  A    between atoms: C_2  and  C_23 
REMARK    3  A    between atoms: O_3  and  C_4 
REMARK    4  A    between atoms: C_6  and  O_7 
REMARK    5  A    between atoms: C_6  and  C_9 
REMARK    6  A    between atoms: C_16  and  O_17 
REMARK    7  A    between atoms: C_26  and  O_27 
ROOT
HETATM    1  C   UNK N   1       0.680   0.183  -0.600  0.00  0.00     0.144 C 
HETATM    2  C   UNK N   1       0.906   1.240   0.507  0.00  0.00     0.058 C 
HETATM    3  C   UNK N   1      -0.184   1.285   1.645  0.00  0.00     0.067 C 
HETATM    4  C   UNK N   1       0.580   1.943   2.845  0.00  0.00     0.039 C 
HETATM    5  C   UNK N   1       1.960   2.307   2.309  0.00  0.00     0.012 C 
HETATM    6  C   UNK N   1       2.260   1.222   1.261  0.00  0.00    -0.033 C 
HETATM    7  C   UNK N   1       3.438   1.682   0.352  0.00  0.00     0.046 C 
HETATM    8  C   UNK N   1       4.060   0.586  -0.536  0.00  0.00     0.147 C 
HETATM    9  C   UNK N   1       3.109  -0.204  -1.413  0.00  0.00    -0.058 C 
HETATM   10  C   UNK N   1       1.705   0.261  -1.750  0.00  0.00     0.069 C 
HETATM   11  C   UNK N   1       3.556  -1.359  -1.943  0.00  0.00     0.017 C 
HETATM   12  C   UNK N   1       2.590  -0.132   1.963  0.00  0.00     0.016 C 
ENDROOT
BRANCH   1  13
HETATM   13  O   UNK N   1      -0.578   0.399  -1.139  0.00  0.00    -0.311 OA
BRANCH  13  14
HETATM   14  C   UNK N   1      -1.309  -0.541  -1.801  0.00  0.00     0.293 C 
HETATM   15  O   UNK N   1      -0.908  -1.693  -1.877  0.00  0.00    -0.259 OA
BRANCH  14  16
HETATM   16  C   UNK N   1      -2.613  -0.166  -2.400  0.00  0.00     0.039 A 
HETATM   17  C   UNK N   1      -3.426  -1.145  -3.004  0.00  0.00     0.020 A 
HETATM   18  C   UNK N   1      -4.658  -0.792  -3.561  0.00  0.00     0.037 A 
HETATM   19  C   UNK N   1      -5.093   0.540  -3.528  0.00  0.00     0.065 A 
HETATM   20  C   UNK N   1      -4.287   1.517  -2.934  0.00  0.00     0.037 A 
HETATM   21  C   UNK N   1      -3.055   1.168  -2.373  0.00  0.00     0.020 A 
BRANCH  19  22
HETATM   22  O   UNK N   1      -6.280   0.890  -4.063  0.00  0.00    -0.361 OA
HETATM   23  H   UNK N   1      -6.862   0.238  -4.478  0.00  0.00     0.217 HD
ENDBRANCH  19  22
ENDBRANCH  14  16
ENDBRANCH  13  14
ENDBRANCH   1  13
BRANCH   3  24
HETATM   24  O   UNK N   1      -0.505  -0.055   1.964  0.00  0.00    -0.389 OA
HETATM   25  H   UNK N   1      -0.906  -0.094   2.870  0.00  0.00     0.210 HD
ENDBRANCH   3  24
BRANCH   3  26
HETATM   26  C   UNK N   1      -1.516   2.043   1.254  0.00  0.00     0.012 C 
HETATM   27  C   UNK N   1      -2.555   2.023   2.394  0.00  0.00     0.012 C 
HETATM   28  C   UNK N   1      -1.308   3.508   0.815  0.00  0.00     0.012 C 
ENDBRANCH   3  26
BRANCH   8  29
HETATM   29  O   UNK N   1       5.050   1.144  -1.365  0.00  0.00    -0.391 OA
HETATM   30  H   UNK N   1       5.757   1.521  -0.780  0.00  0.00     0.210 HD
ENDBRANCH   8  29
TORSDOF 7
