REMARK  7 active torsions:
REMARK  status: ('A' for Active; 'I' for Inactive)
REMARK    1  A    between atoms: C_8  and  O_10 
REMARK    2  A    between atoms: O_10  and  C_11 
REMARK    3  A    between atoms: C_11  and  C_12 
REMARK    4  A    between atoms: C_12  and  C_13 
REMARK    5  A    between atoms: C_13  and  O_14 
REMARK    6  A    between atoms: C_13  and  C_16 
REMARK    7  A    between atoms: C_17  and  C_18 
ROOT
HETATM    1  O   UNK N   1       1.029   2.462  -3.747  0.00  0.00    -0.351 OA
ENDROOT
BRANCH   1   2
HETATM    2  C   UNK N   1      -0.208   2.461  -4.311  0.00  0.00     0.071 A 
HETATM    3  C   UNK N   1      -0.363   3.015  -5.589  0.00  0.00     0.038 A 
HETATM    4  C   UNK N   1      -1.608   2.994  -6.227  0.00  0.00     0.017 A 
HETATM    5  C   UNK N   1      -2.716   2.432  -5.581  0.00  0.00    -0.002 A 
HETATM    6  C   UNK N   1      -2.577   1.893  -4.285  0.00  0.00     0.092 A 
HETATM    7  C   UNK N   1      -3.971   2.385  -6.193  0.00  0.00     0.020 A 
HETATM    8  O   UNK N   1      -3.627   1.366  -3.660  0.00  0.00    -0.275 OA
HETATM    9  C   UNK N   1      -1.330   1.904  -3.658  0.00  0.00     0.075 A 
HETATM   10  C   UNK N   1      -4.837   1.314  -4.215  0.00  0.00     0.288 A 
HETATM   11  O   UNK N   1      -5.763   0.823  -3.599  0.00  0.00    -0.260 OA
HETATM   12  C   UNK N   1      -5.043   1.819  -5.505  0.00  0.00     0.083 A 
ENDBRANCH   1   2
BRANCH   1  13
HETATM   13  C   UNK N   1       1.432   1.562  -2.779  0.00  0.00     0.179 C 
BRANCH  13  14
HETATM   14  C   UNK N   1       2.881   1.843  -2.359  0.00  0.00     0.068 C 
BRANCH  14  15
HETATM   15  C   UNK N   1       3.453   0.812  -1.338  0.00  0.00     0.074 C 
HETATM   16  C   UNK N   1       3.532  -0.583  -2.006  0.00  0.00     0.050 C 
BRANCH  15  17
HETATM   17  O   UNK N   1       4.772   1.179  -1.012  0.00  0.00    -0.386 OA
HETATM   18  H   UNK N   1       4.751   2.091  -0.618  0.00  0.00     0.211 HD
ENDBRANCH  15  17
BRANCH  15  19
HETATM   19  C   UNK N   1       2.615   0.808  -0.053  0.00  0.00     0.010 C 
HETATM   20  C   UNK N   1       2.521  -0.253   0.770  0.00  0.00    -0.001 C 
BRANCH  20  21
HETATM   21  C   UNK N   1       1.707  -0.186   2.013  0.00  0.00     0.002 C 
HETATM   22  C   UNK N   1       1.519  -1.222   2.873  0.00  0.00    -0.088 C 
HETATM   23  C   UNK N   1       0.673  -1.016   4.103  0.00  0.00     0.043 C 
HETATM   24  C   UNK N   1       2.106  -2.605   2.683  0.00  0.00     0.043 C 
ENDBRANCH  20  21
ENDBRANCH  15  19
ENDBRANCH  14  15
ENDBRANCH  13  14
ENDBRANCH   1  13
TORSDOF 7
