REMARK  7 active torsions:
REMARK  status: ('A' for Active; 'I' for Inactive)
REMARK    1  A    between atoms: C_8  and  O_10 
REMARK    2  A    between atoms: O_10  and  C_11 
REMARK    3  A    between atoms: C_11  and  C_12 
REMARK    4  A    between atoms: C_12  and  C_13 
REMARK    5  A    between atoms: C_14  and  C_15 
REMARK    6  A    between atoms: C_16  and  C_17 
REMARK    7  A    between atoms: C_17  and  O_18 
ROOT
HETATM    1  O   UNK N   1      -0.240  -1.599   0.862  0.00  0.00    -0.351 OA
ENDROOT
BRANCH   1   2
HETATM    2  C   UNK N   1       0.882  -0.858   1.078  0.00  0.00     0.071 A 
HETATM    3  C   UNK N   1       1.159  -0.399   2.377  0.00  0.00     0.038 A 
HETATM    4  C   UNK N   1       2.303   0.370   2.633  0.00  0.00     0.017 A 
HETATM    5  C   UNK N   1       3.182   0.685   1.588  0.00  0.00    -0.002 A 
HETATM    6  C   UNK N   1       2.915   0.225   0.282  0.00  0.00     0.092 A 
HETATM    7  C   UNK N   1       4.332   1.452   1.802  0.00  0.00     0.020 A 
HETATM    8  O   UNK N   1       3.742   0.517  -0.717  0.00  0.00    -0.275 OA
HETATM    9  C   UNK N   1       1.774  -0.540   0.033  0.00  0.00     0.075 A 
HETATM   10  C   UNK N   1       4.843   1.245  -0.544  0.00  0.00     0.288 A 
HETATM   11  O   UNK N   1       5.563   1.484  -1.494  0.00  0.00    -0.260 OA
HETATM   12  C   UNK N   1       5.171   1.737   0.725  0.00  0.00     0.083 A 
ENDBRANCH   1   2
BRANCH   1  13
HETATM   13  C   UNK N   1      -0.630  -2.100  -0.371  0.00  0.00     0.180 C 
BRANCH  13  14
HETATM   14  C   UNK N   1      -1.905  -2.934  -0.235  0.00  0.00     0.060 C 
BRANCH  14  15
HETATM   15  C   UNK N   1      -3.080  -2.129   0.289  0.00  0.00    -0.082 C 
HETATM   16  C   UNK N   1      -3.888  -1.377  -0.502  0.00  0.00     0.002 C 
HETATM   17  C   UNK N   1      -3.364  -2.199   1.768  0.00  0.00     0.043 C 
BRANCH  16  18
HETATM   18  C   UNK N   1      -3.735  -1.245  -1.980  0.00  0.00    -0.001 C 
HETATM   19  C   UNK N   1      -4.565  -0.555  -2.803  0.00  0.00     0.010 C 
BRANCH  19  20
HETATM   20  C   UNK N   1      -5.827   0.238  -2.446  0.00  0.00     0.068 C 
HETATM   21  C   UNK N   1      -5.498   1.427  -1.517  0.00  0.00     0.050 C 
HETATM   22  C   UNK N   1      -6.913  -0.684  -1.846  0.00  0.00     0.050 C 
BRANCH  20  23
HETATM   23  O   UNK N   1      -6.327   0.762  -3.657  0.00  0.00    -0.387 OA
HETATM   24  H   UNK N   1      -7.155   1.277  -3.463  0.00  0.00     0.211 HD
ENDBRANCH  20  23
ENDBRANCH  19  20
ENDBRANCH  16  18
ENDBRANCH  14  15
ENDBRANCH  13  14
ENDBRANCH   1  13
TORSDOF 7
