REMARK  4 active torsions:
REMARK  status: ('A' for Active; 'I' for Inactive)
REMARK    1  A    between atoms: C_10  and  O_12 
REMARK    2  A    between atoms: O_12  and  C_13 
REMARK    3  A    between atoms: C_13  and  C_14 
REMARK    4  A    between atoms: C_18  and  O_19 
ROOT
HETATM    1  C   UNK N   1      -0.756  -1.716  -1.255  0.00  0.00     0.047 C 
HETATM    2  C   UNK N   1       0.338  -0.680  -0.746  0.00  0.00    -0.030 C 
HETATM    3  C   UNK N   1       1.606  -1.528  -0.285  0.00  0.00     0.005 C 
HETATM    4  C   UNK N   1       2.944  -0.714  -0.004  0.00  0.00    -0.017 C 
HETATM    5  C   UNK N   1       3.217   0.235  -1.219  0.00  0.00     0.126 C 
HETATM    6  C   UNK N   1       2.009   1.114  -1.564  0.00  0.00     0.033 C 
HETATM    7  C   UNK N   1       0.791   0.250  -1.907  0.00  0.00     0.013 C 
HETATM    8  C   UNK N   1       2.948   0.083   1.327  0.00  0.00     0.018 C 
HETATM    9  C   UNK N   1       4.134  -1.713   0.085  0.00  0.00     0.018 C 
HETATM   10  C   UNK N   1       1.225  -2.525   0.854  0.00  0.00     0.010 C 
HETATM   11  C   UNK N   1       0.110  -3.475   0.411  0.00  0.00     0.034 C 
HETATM   12  C   UNK N   1      -1.059  -2.688  -0.111  0.00  0.00    -0.082 C 
HETATM   13  C   UNK N   1      -2.280  -2.859   0.437  0.00  0.00     0.015 C 
HETATM   14  C   UNK N   1      -0.295   0.193   0.383  0.00  0.00     0.016 C 
ENDROOT
BRANCH   1  15
HETATM   15  C   UNK N   1      -2.030  -1.106  -1.898  0.00  0.00     0.185 C 
BRANCH  15  16
HETATM   16  O   UNK N   1      -1.717  -0.395  -3.042  0.00  0.00    -0.349 OA
BRANCH  16  17
HETATM   17  C   UNK N   1      -2.606   0.289  -3.811  0.00  0.00     0.087 A 
HETATM   18  C   UNK N   1      -2.153   1.022  -4.925  0.00  0.00     0.031 A 
HETATM   19  C   UNK N   1      -3.103   1.734  -5.697  0.00  0.00     0.092 A 
HETATM   20  C   UNK N   1      -0.793   1.071  -5.288  0.00  0.00     0.017 A 
HETATM   21  O   UNK N   1      -4.391   1.706  -5.374  0.00  0.00    -0.275 OA
HETATM   22  C   UNK N   1      -2.685   2.475  -6.808  0.00  0.00     0.038 A 
HETATM   23  C   UNK N   1      -4.853   1.025  -4.329  0.00  0.00     0.290 A 
HETATM   24  O   UNK N   1      -6.043   1.037  -4.080  0.00  0.00    -0.260 OA
HETATM   25  C   UNK N   1      -3.980   0.297  -3.517  0.00  0.00     0.120 A 
HETATM   26  C   UNK N   1      -1.334   2.517  -7.158  0.00  0.00     0.003 A 
HETATM   27  C   UNK N   1      -0.390   1.818  -6.401  0.00  0.00     0.001 A 
ENDBRANCH  16  17
ENDBRANCH  15  16
ENDBRANCH   1  15
BRANCH   5  28
HETATM   28  O   UNK N   1       4.318   1.077  -0.977  0.00  0.00    -0.395 OA
HETATM   29  H   UNK N   1       5.138   0.582  -1.233  0.00  0.00     0.210 HD
ENDBRANCH   5  28
TORSDOF 4
