REMARK  7 active torsions:
REMARK  status: ('A' for Active; 'I' for Inactive)
REMARK    1  A    between atoms: C_8  and  O_10 
REMARK    2  A    between atoms: O_10  and  C_11 
REMARK    3  A    between atoms: C_11  and  C_12 
REMARK    4  A    between atoms: C_13  and  C_22 
REMARK    5  A    between atoms: C_22  and  C_23 
REMARK    6  A    between atoms: C_23  and  C_24 
REMARK    7  A    between atoms: C_24  and  O_26 
ROOT
HETATM    1  C   UNK N   1      -3.344  -0.271   1.147  0.00  0.00    -0.011 C 
HETATM    2  C   UNK N   1      -4.280   0.389   0.044  0.00  0.00     0.026 C 
HETATM    3  C   UNK N   1      -4.145   1.923   0.155  0.00  0.00    -0.073 C 
HETATM    4  C   UNK N   1      -3.670   2.723  -0.873  0.00  0.00    -0.085 C 
HETATM    5  C   UNK N   1      -3.312   2.198  -2.253  0.00  0.00     0.043 C 
HETATM    6  C   UNK N   1      -3.442   4.219  -0.734  0.00  0.00     0.043 C 
HETATM    7  C   UNK N   1      -4.536   2.476   1.524  0.00  0.00     0.035 C 
HETATM    8  C   UNK N   1      -3.654   1.850   2.604  0.00  0.00     0.009 C 
HETATM    9  C   UNK N   1      -3.724   0.306   2.576  0.00  0.00    -0.007 C 
HETATM   10  C   UNK N   1      -2.904  -0.245   3.761  0.00  0.00     0.011 C 
HETATM   11  C   UNK N   1      -3.511  -1.814   1.135  0.00  0.00     0.018 C 
ENDROOT
BRANCH   1  12
HETATM   12  C   UNK N   1      -1.867   0.040   0.737  0.00  0.00     0.185 C 
BRANCH  12  13
HETATM   13  O   UNK N   1      -0.946  -0.540   1.590  0.00  0.00    -0.350 OA
BRANCH  13  14
HETATM   14  C   UNK N   1       0.404  -0.429   1.460  0.00  0.00     0.071 A 
HETATM   15  C   UNK N   1       1.227  -1.023   2.429  0.00  0.00     0.038 A 
HETATM   16  C   UNK N   1       2.620  -0.927   2.335  0.00  0.00     0.017 A 
HETATM   17  C   UNK N   1       3.204  -0.236   1.266  0.00  0.00    -0.002 A 
HETATM   18  C   UNK N   1       2.386   0.364   0.285  0.00  0.00     0.092 A 
HETATM   19  C   UNK N   1       4.591  -0.120   1.139  0.00  0.00     0.020 A 
HETATM   20  O   UNK N   1       2.932   1.021  -0.735  0.00  0.00    -0.275 OA
HETATM   21  C   UNK N   1       0.997   0.267   0.384  0.00  0.00     0.075 A 
HETATM   22  C   UNK N   1       4.249   1.147  -0.881  0.00  0.00     0.288 A 
HETATM   23  O   UNK N   1       4.694   1.759  -1.833  0.00  0.00    -0.260 OA
HETATM   24  C   UNK N   1       5.121   0.579   0.056  0.00  0.00     0.083 A 
ENDBRANCH  13  14
ENDBRANCH  12  13
ENDBRANCH   1  12
BRANCH   2  25
HETATM   25  C   UNK N   1      -5.775  -0.051   0.117  0.00  0.00     0.020 C 
BRANCH  25  26
HETATM   26  C   UNK N   1      -6.698   0.584  -0.942  0.00  0.00     0.110 C 
BRANCH  26  27
HETATM   27  C   UNK N   1      -6.314   0.268  -2.361  0.00  0.00     0.139 C 
HETATM   28  O   UNK N   1      -6.210  -0.894  -2.726  0.00  0.00    -0.650 OA
BRANCH  27  29
HETATM   29  O   UNK N   1      -6.134   1.272  -3.246  0.00  0.00    -0.776 OA
HETATM   30  H   UNK N   1      -5.929   1.093  -4.175  0.00  0.00     0.167 HD
ENDBRANCH  27  29
ENDBRANCH  26  27
ENDBRANCH  25  26
ENDBRANCH   2  25
TORSDOF 7
