REMARK  10 active torsions:
REMARK  status: ('A' for Active; 'I' for Inactive)
REMARK    1  A    between atoms: C_2  and  O_3 
REMARK    2  A    between atoms: C_2  and  C_5 
REMARK    3  A    between atoms: C_6  and  O_7 
REMARK    4  A    between atoms: C_11  and  O_13 
REMARK    5  A    between atoms: O_13  and  C_14 
REMARK    6  A    between atoms: C_16  and  C_26 
REMARK    7  A    between atoms: C_17  and  O_18 
REMARK    8  A    between atoms: C_20  and  O_21 
REMARK    9  A    between atoms: C_23  and  O_24 
REMARK   10  A    between atoms: C_26  and  O_27 
ROOT
HETATM    1  C   UNK N   1      -1.598  -0.930  -0.417  0.00  0.00     0.298 C 
HETATM    2  O   UNK N   1      -2.836  -0.444   0.082  0.00  0.00    -0.348 OA
HETATM    3  C   UNK N   1      -3.465   0.474  -0.804  0.00  0.00     0.179 C 
HETATM    4  C   UNK N   1      -3.757  -0.168  -2.186  0.00  0.00     0.180 C 
HETATM    5  C   UNK N   1      -2.442  -0.692  -2.786  0.00  0.00     0.183 C 
HETATM    6  C   UNK N   1      -1.777  -1.637  -1.774  0.00  0.00     0.205 C 
ENDROOT
BRANCH   1   7
HETATM    7  O   UNK N   1      -0.653   0.087  -0.515  0.00  0.00    -0.318 OA
BRANCH   7   8
HETATM    8  C   UNK N   1       0.514   0.138   0.184  0.00  0.00     0.073 A 
HETATM    9  C   UNK N   1       0.635  -0.404   1.478  0.00  0.00     0.039 A 
HETATM   10  C   UNK N   1       1.856  -0.360   2.147  0.00  0.00     0.040 A 
HETATM   11  C   UNK N   1       2.981   0.220   1.544  0.00  0.00     0.082 A 
HETATM   12  C   UNK N   1       2.874   0.776   0.247  0.00  0.00     0.073 A 
HETATM   13  C   UNK N   1       1.631   0.735  -0.414  0.00  0.00     0.058 A 
BRANCH  11  14
HETATM   14  O   UNK N   1       4.160   0.229   2.201  0.00  0.00    -0.360 OA
HETATM   15  H   UNK N   1       4.260  -0.167   3.079  0.00  0.00     0.217 HD
ENDBRANCH  11  14
BRANCH  12  16
HETATM   16  C   UNK N   1       4.052   1.377  -0.442  0.00  0.00     0.179 C 
HETATM   17  O   UNK N   1       5.123   1.488   0.134  0.00  0.00    -0.646 OA
BRANCH  16  18
HETATM   18  O   UNK N   1       3.949   1.776  -1.730  0.00  0.00    -0.773 OA
HETATM   19  H   UNK N   1       4.716   2.122  -2.208  0.00  0.00     0.167 HD
ENDBRANCH  16  18
ENDBRANCH  12  16
ENDBRANCH   7   8
ENDBRANCH   1   7
BRANCH   6  20
HETATM   20  O   UNK N   1      -0.551  -2.132  -2.257  0.00  0.00    -0.388 OA
HETATM   21  H   UNK N   1       0.029  -1.355  -2.472  0.00  0.00     0.210 HD
ENDBRANCH   6  20
BRANCH   3  22
HETATM   22  C   UNK N   1      -4.772   0.949  -0.141  0.00  0.00     0.198 C 
BRANCH  22  23
HETATM   23  O   UNK N   1      -5.660  -0.120   0.061  0.00  0.00    -0.398 OA
HETATM   24  H   UNK N   1      -5.292  -0.666   0.804  0.00  0.00     0.209 HD
ENDBRANCH  22  23
ENDBRANCH   3  22
BRANCH   5  25
HETATM   25  O   UNK N   1      -2.664  -1.346  -4.012  0.00  0.00    -0.390 OA
HETATM   26  H   UNK N   1      -3.261  -2.121  -3.837  0.00  0.00     0.210 HD
ENDBRANCH   5  25
BRANCH   4  27
HETATM   27  O   UNK N   1      -4.335   0.786  -3.041  0.00  0.00    -0.390 OA
HETATM   28  H   UNK N   1      -4.662   0.298  -3.841  0.00  0.00     0.210 HD
ENDBRANCH   4  27
TORSDOF 10
