REMARK  9 active torsions:
REMARK  status: ('A' for Active; 'I' for Inactive)
REMARK    1  A    between atoms: C_2  and  C_5 
REMARK    2  A    between atoms: C_5  and  O_6 
REMARK    3  A    between atoms: C_5  and  C_8 
REMARK    4  A    between atoms: C_5  and  C_25 
REMARK    5  A    between atoms: C_8  and  O_10 
REMARK    6  A    between atoms: O_10  and  C_11 
REMARK    7  A    between atoms: C_11  and  C_12 
REMARK    8  A    between atoms: C_12  and  C_13 
REMARK    9  A    between atoms: C_15  and  O_16 
ROOT
HETATM    1  C   UNK N   1       1.362   0.870  -1.259  0.00  0.00     0.308 C 
HETATM    2  O   UNK N   1       0.792   0.365  -2.217  0.00  0.00    -0.261 OA
ENDROOT
BRANCH   1   3
HETATM    3  C   UNK N   1       2.627   0.232  -0.679  0.00  0.00     0.273 C 
BRANCH   3   4
HETATM    4  C   UNK N   1       3.745   1.293  -0.905  0.00  0.00     0.432 C 
HETATM    5  F   UNK N   1       4.991   0.817  -0.544  0.00  0.00    -0.167 F 
HETATM    6  F   UNK N   1       3.492   2.445  -0.177  0.00  0.00    -0.167 F 
HETATM    7  F   UNK N   1       3.810   1.627  -2.249  0.00  0.00    -0.167 F 
ENDBRANCH   3   4
BRANCH   3   8
HETATM    8  O   UNK N   1       3.014  -0.927  -1.423  0.00  0.00    -0.363 OA
HETATM    9  C   UNK N   1       2.173  -2.054  -1.230  0.00  0.00     0.204 C 
ENDBRANCH   3   8
BRANCH   3  10
HETATM   10  C   UNK N   1       2.487  -0.092   0.834  0.00  0.00    -0.005 A 
HETATM   11  C   UNK N   1       3.593  -0.581   1.564  0.00  0.00     0.011 A 
HETATM   12  C   UNK N   1       3.479  -0.875   2.926  0.00  0.00     0.001 A 
HETATM   13  C   UNK N   1       2.261  -0.705   3.582  0.00  0.00     0.000 A 
HETATM   14  C   UNK N   1       1.150  -0.245   2.878  0.00  0.00     0.001 A 
HETATM   15  C   UNK N   1       1.256   0.059   1.520  0.00  0.00     0.011 A 
ENDBRANCH   3  10
ENDBRANCH   1   3
BRANCH   1  16
HETATM   16  O   UNK N   1       0.916   2.049  -0.738  0.00  0.00    -0.313 OA
BRANCH  16  17
HETATM   17  C   UNK N   1      -0.239   2.688  -1.149  0.00  0.00     0.132 C 
HETATM   18  C   UNK N   1      -0.107   4.174  -0.827  0.00  0.00     0.040 C 
BRANCH  17  19
HETATM   19  C   UNK N   1      -1.462   2.041  -0.466  0.00  0.00     0.070 C 
BRANCH  19  20
HETATM   20  C   UNK N   1      -2.746   2.393  -1.166  0.00  0.00    -0.050 A 
HETATM   21  C   UNK N   1      -3.251   1.503  -2.147  0.00  0.00     0.047 A 
HETATM   22  C   UNK N   1      -4.439   1.804  -2.850  0.00  0.00     0.105 A 
HETATM   23  C   UNK N   1      -5.087   2.995  -2.527  0.00  0.00     0.138 A 
HETATM   24  O   UNK N   1      -6.210   3.491  -3.044  0.00  0.00    -0.320 OA
HETATM   25  C   UNK N   1      -4.618   3.837  -1.595  0.00  0.00     0.108 A 
HETATM   26  C   UNK N   1      -6.484   4.710  -2.416  0.00  0.00     0.352 A 
HETATM   27  O   UNK N   1      -5.439   4.884  -1.501  0.00  0.00    -0.323 OA
HETATM   28  C   UNK N   1      -3.447   3.588  -0.883  0.00  0.00     0.047 A 
BRANCH  22  29
HETATM   29  O   UNK N   1      -4.950   0.989  -3.809  0.00  0.00    -0.353 OA
HETATM   30  C   UNK N   1      -4.369  -0.199  -4.212  0.00  0.00     0.210 C 
ENDBRANCH  22  29
ENDBRANCH  19  20
ENDBRANCH  17  19
ENDBRANCH  16  17
ENDBRANCH   1  16
TORSDOF 9
