REMARK  16 active torsions:
REMARK  status: ('A' for Active; 'I' for Inactive)
REMARK    1  A    between atoms: C_2  and  O_3 
REMARK    2  A    between atoms: O_3  and  C_4 
REMARK    3  A    between atoms: C_4  and  C_5 
REMARK    4  A    between atoms: C_5  and  C_6 
REMARK    5  A    between atoms: C_6  and  C_7 
REMARK    6  A    between atoms: C_9  and  O_10 
REMARK    7  A    between atoms: C_14  and  C_15 
REMARK    8  A    between atoms: C_17  and  O_18 
REMARK    9  A    between atoms: C_20  and  O_21 
REMARK   10  A    between atoms: C_25  and  C_26 
REMARK   11  A    between atoms: C_26  and  O_27 
REMARK   12  A    between atoms: C_31  and  O_32 
REMARK   13  A    between atoms: C_34  and  O_35 
REMARK   14  A    between atoms: C_37  and  O_38 
REMARK   15  A    between atoms: C_40  and  C_41 
REMARK   16  A    between atoms: C_41  and  O_42 
ROOT
HETATM    1  C   UNK N   1      -3.915   1.582   1.595  0.00  0.00    -0.055 A 
HETATM    2  C   UNK N   1      -3.357   2.855   1.864  0.00  0.00     0.046 A 
HETATM    3  C   UNK N   1      -1.967   2.988   2.097  0.00  0.00     0.102 A 
HETATM    4  C   UNK N   1      -1.185   1.831   2.062  0.00  0.00     0.110 A 
HETATM    5  O   UNK N   1       0.127   1.764   2.286  0.00  0.00    -0.337 OA
HETATM    6  C   UNK N   1       0.534   0.440   2.381  0.00  0.00     0.172 C 
HETATM    7  C   UNK N   1      -0.623  -0.397   1.737  0.00  0.00     0.079 C 
HETATM    8  C   UNK N   1      -1.717   0.610   1.791  0.00  0.00    -0.012 A 
HETATM    9  C   UNK N   1      -3.078   0.451   1.540  0.00  0.00     0.017 A 
ENDROOT
BRANCH   1  10
HETATM   10  C   UNK N   1      -5.398   1.430   1.375  0.00  0.00     0.041 C 
BRANCH  10  11
HETATM   11  C   UNK N   1      -5.803   1.633  -0.087  0.00  0.00     0.031 C 
BRANCH  11  12
HETATM   12  C   UNK N   1      -5.209   0.582  -1.029  0.00  0.00     0.171 C 
BRANCH  12  13
HETATM   13  O   UNK N   1      -5.676   0.861  -2.329  0.00  0.00    -0.358 OA
BRANCH  13  14
HETATM   14  C   UNK N   1      -5.175  -0.069  -3.269  0.00  0.00     0.291 C 
HETATM   15  O   UNK N   1      -3.760   0.048  -3.349  0.00  0.00    -0.348 OA
HETATM   16  C   UNK N   1      -3.220  -0.900  -4.256  0.00  0.00     0.179 C 
HETATM   17  C   UNK N   1      -3.685  -0.576  -5.695  0.00  0.00     0.180 C 
HETATM   18  C   UNK N   1      -5.225  -0.614  -5.728  0.00  0.00     0.183 C 
HETATM   19  C   UNK N   1      -5.803   0.293  -4.632  0.00  0.00     0.204 C 
BRANCH  16  20
HETATM   20  C   UNK N   1      -1.688  -0.871  -4.136  0.00  0.00     0.198 C 
BRANCH  20  21
HETATM   21  O   UNK N   1      -1.170   0.387  -4.480  0.00  0.00    -0.398 OA
HETATM   22  H   UNK N   1      -1.391   1.002  -3.732  0.00  0.00     0.209 HD
ENDBRANCH  20  21
ENDBRANCH  16  20
BRANCH  17  23
HETATM   23  O   UNK N   1      -3.158  -1.518  -6.594  0.00  0.00    -0.390 OA
HETATM   24  H   UNK N   1      -3.319  -1.166  -7.508  0.00  0.00     0.210 HD
ENDBRANCH  17  23
BRANCH  18  25
HETATM   25  O   UNK N   1      -5.716  -0.244  -6.993  0.00  0.00    -0.390 OA
HETATM   26  H   UNK N   1      -5.404   0.682  -7.176  0.00  0.00     0.210 HD
ENDBRANCH  18  25
BRANCH  19  27
HETATM   27  O   UNK N   1      -7.199   0.133  -4.595  0.00  0.00    -0.388 OA
HETATM   28  H   UNK N   1      -7.560   0.842  -4.001  0.00  0.00     0.210 HD
ENDBRANCH  19  27
ENDBRANCH  13  14
ENDBRANCH  12  13
ENDBRANCH  11  12
ENDBRANCH  10  11
ENDBRANCH   1  10
BRANCH   3  29
HETATM   29  O   UNK N   1      -1.373   4.184   2.355  0.00  0.00    -0.353 OA
HETATM   30  C   UNK N   1      -2.028   5.399   2.392  0.00  0.00     0.210 C 
ENDBRANCH   3  29
BRANCH   7  31
HETATM   31  C   UNK N   1      -0.876  -1.728   2.458  0.00  0.00     0.176 C 
BRANCH  31  32
HETATM   32  O   UNK N   1      -1.936  -2.428   1.864  0.00  0.00    -0.400 OA
HETATM   33  H   UNK N   1      -1.630  -2.697   0.957  0.00  0.00     0.209 HD
ENDBRANCH  31  32
ENDBRANCH   7  31
BRANCH   6  34
HETATM   34  C   UNK N   1       1.884   0.166   1.771  0.00  0.00    -0.025 A 
HETATM   35  C   UNK N   1       2.359   0.934   0.697  0.00  0.00     0.049 A 
HETATM   36  C   UNK N   1       3.629   0.674   0.139  0.00  0.00     0.101 A 
HETATM   37  C   UNK N   1       4.417  -0.365   0.674  0.00  0.00     0.099 A 
HETATM   38  C   UNK N   1       3.935  -1.129   1.742  0.00  0.00     0.040 A 
HETATM   39  C   UNK N   1       2.678  -0.868   2.286  0.00  0.00     0.012 A 
BRANCH  36  40
HETATM   40  O   UNK N   1       4.115   1.402  -0.904  0.00  0.00    -0.353 OA
HETATM   41  C   UNK N   1       3.449   2.435  -1.531  0.00  0.00     0.210 C 
ENDBRANCH  36  40
BRANCH  37  42
HETATM   42  O   UNK N   1       5.640  -0.643   0.173  0.00  0.00    -0.358 OA
HETATM   43  H   UNK N   1       6.025  -0.144  -0.561  0.00  0.00     0.218 HD
ENDBRANCH  37  42
ENDBRANCH   6  34
TORSDOF 16
