REMARK  4 active torsions:
REMARK  status: ('A' for Active; 'I' for Inactive)
REMARK    1  A    between atoms: C_8  and  O_10 
REMARK    2  A    between atoms: O_10  and  C_11 
REMARK    3  A    between atoms: C_11  and  C_12 
REMARK    4  A    between atoms: C_16  and  O_17 
ROOT
HETATM    1  C   UNK N   1      -3.617  -1.019   1.173  0.00  0.00     0.047 C 
HETATM    2  C   UNK N   1      -4.756  -0.851   0.080  0.00  0.00    -0.030 C 
HETATM    3  C   UNK N   1      -5.029   0.702  -0.163  0.00  0.00     0.005 C 
HETATM    4  C   UNK N   1      -5.973   1.060  -1.389  0.00  0.00    -0.017 C 
HETATM    5  C   UNK N   1      -5.461   0.297  -2.659  0.00  0.00     0.126 C 
HETATM    6  C   UNK N   1      -5.331  -1.223  -2.412  0.00  0.00     0.033 C 
HETATM    7  C   UNK N   1      -4.331  -1.499  -1.274  0.00  0.00     0.013 C 
HETATM    8  C   UNK N   1      -7.479   0.765  -1.156  0.00  0.00     0.018 C 
HETATM    9  C   UNK N   1      -5.894   2.586  -1.680  0.00  0.00     0.018 C 
HETATM   10  C   UNK N   1      -5.414   1.414   1.172  0.00  0.00     0.010 C 
HETATM   11  C   UNK N   1      -4.329   1.229   2.245  0.00  0.00     0.034 C 
HETATM   12  C   UNK N   1      -4.021  -0.237   2.411  0.00  0.00    -0.082 C 
HETATM   13  C   UNK N   1      -4.120  -0.835   3.609  0.00  0.00     0.015 C 
HETATM   14  C   UNK N   1      -5.986  -1.640   0.631  0.00  0.00     0.016 C 
ENDROOT
BRANCH   1  15
HETATM   15  C   UNK N   1      -2.212  -0.567   0.716  0.00  0.00     0.185 C 
BRANCH  15  16
HETATM   16  O   UNK N   1      -1.279  -0.741   1.721  0.00  0.00    -0.350 OA
BRANCH  16  17
HETATM   17  C   UNK N   1       0.042  -0.454   1.571  0.00  0.00     0.071 A 
HETATM   18  C   UNK N   1       0.911  -0.670   2.650  0.00  0.00     0.038 A 
HETATM   19  C   UNK N   1       2.277  -0.385   2.529  0.00  0.00     0.017 A 
HETATM   20  C   UNK N   1       2.784   0.121   1.324  0.00  0.00    -0.002 A 
HETATM   21  C   UNK N   1       1.918   0.340   0.234  0.00  0.00     0.092 A 
HETATM   22  C   UNK N   1       4.140   0.418   1.167  0.00  0.00     0.020 A 
HETATM   23  O   UNK N   1       2.387   0.818  -0.915  0.00  0.00    -0.275 OA
HETATM   24  C   UNK N   1       0.561   0.054   0.359  0.00  0.00     0.075 A 
HETATM   25  C   UNK N   1       3.673   1.110  -1.094  0.00  0.00     0.288 A 
HETATM   26  O   UNK N   1       4.049   1.545  -2.166  0.00  0.00    -0.260 OA
HETATM   27  C   UNK N   1       4.590   0.919  -0.054  0.00  0.00     0.083 A 
ENDBRANCH  16  17
ENDBRANCH  15  16
ENDBRANCH   1  15
BRANCH   5  28
HETATM   28  O   UNK N   1      -4.208   0.806  -3.050  0.00  0.00    -0.395 OA
HETATM   29  H   UNK N   1      -4.018   0.450  -3.958  0.00  0.00     0.210 HD
ENDBRANCH   5  28
TORSDOF 4
