REMARK  1 active torsions:
REMARK  status: ('A' for Active; 'I' for Inactive)
REMARK    1  A    between atoms: C_14  and  O_15 
ROOT
HETATM    1  O   UNK N   1      -5.535   0.872  -3.618  0.00  0.00    -0.260 OA
HETATM    2  C   UNK N   1      -4.420   0.506  -3.291  0.00  0.00     0.290 A 
HETATM    3  O   UNK N   1      -3.299   1.211  -3.535  0.00  0.00    -0.307 OA
HETATM    4  C   UNK N   1      -2.190   0.518  -3.064  0.00  0.00     0.166 A 
HETATM    5  C   UNK N   1      -2.795  -0.667  -2.373  0.00  0.00    -0.017 A 
HETATM    6  C   UNK N   1      -4.111  -0.690  -2.550  0.00  0.00     0.022 A 
HETATM    7  C   UNK N   1      -5.109  -1.689  -2.038  0.00  0.00     0.055 C 
HETATM    8  C   UNK N   1      -1.942  -1.573  -1.594  0.00  0.00     0.013 C 
HETATM    9  C   UNK N   1      -0.737  -1.125  -1.155  0.00  0.00    -0.074 C 
HETATM   10  C   UNK N   1       0.166  -2.038  -0.377  0.00  0.00     0.035 C 
HETATM   11  C   UNK N   1       1.545  -2.106  -1.062  0.00  0.00     0.010 C 
HETATM   12  C   UNK N   1       2.196  -0.705  -1.323  0.00  0.00     0.005 C 
HETATM   13  C   UNK N   1       2.965  -0.073  -0.063  0.00  0.00    -0.017 C 
HETATM   14  C   UNK N   1       3.490   1.353  -0.432  0.00  0.00     0.126 C 
HETATM   15  C   UNK N   1       2.363   2.246  -0.977  0.00  0.00     0.033 C 
HETATM   16  C   UNK N   1       1.838   1.654  -2.288  0.00  0.00     0.012 C 
HETATM   17  C   UNK N   1       1.184   0.246  -2.124  0.00  0.00    -0.032 C 
HETATM   18  C   UNK N   1      -0.231   0.317  -1.404  0.00  0.00     0.026 C 
HETATM   19  C   UNK N   1      -1.345   1.251  -2.027  0.00  0.00     0.047 C 
HETATM   20  C   UNK N   1       1.017  -0.308  -3.565  0.00  0.00     0.016 C 
HETATM   21  C   UNK N   1       2.156   0.022   1.257  0.00  0.00     0.018 C 
HETATM   22  C   UNK N   1       4.206  -0.950   0.283  0.00  0.00     0.018 C 
ENDROOT
BRANCH  14  23
HETATM   23  O   UNK N   1       4.518   1.263  -1.392  0.00  0.00    -0.395 OA
HETATM   24  H   UNK N   1       4.936   2.161  -1.457  0.00  0.00     0.210 HD
ENDBRANCH  14  23
TORSDOF 1
