REMARK  1 active torsions:
REMARK  status: ('A' for Active; 'I' for Inactive)
REMARK    1  A    between atoms: C_3  and  O_4 
ROOT
HETATM    1  O   UNK N   1       3.255   1.644  -1.794  0.00  0.00    -0.295 OA
HETATM    2  C   UNK N   1       2.507   1.018  -1.058  0.00  0.00     0.156 C 
HETATM    3  C   UNK N   1       3.080   0.164   0.053  0.00  0.00     0.195 C 
HETATM    4  C   UNK N   1       2.348   0.516   1.383  0.00  0.00    -0.010 C 
HETATM    5  C   UNK N   1       0.801   0.165   1.242  0.00  0.00     0.006 C 
HETATM    6  C   UNK N   1       0.154   0.364  -0.225  0.00  0.00    -0.025 C 
HETATM    7  C   UNK N   1      -1.297   1.000  -0.114  0.00  0.00     0.026 C 
HETATM    8  C   UNK N   1      -2.102   0.293   0.998  0.00  0.00    -0.074 C 
HETATM    9  C   UNK N   1      -3.335  -0.230   0.788  0.00  0.00     0.013 C 
HETATM   10  C   UNK N   1      -3.902  -0.178  -0.565  0.00  0.00    -0.017 A 
HETATM   11  C   UNK N   1      -5.170  -0.237  -0.946  0.00  0.00     0.022 A 
HETATM   12  C   UNK N   1      -6.391  -0.425  -0.092  0.00  0.00     0.055 C 
HETATM   13  C   UNK N   1      -5.155  -0.010  -2.368  0.00  0.00     0.290 A 
HETATM   14  O   UNK N   1      -3.895   0.184  -2.802  0.00  0.00    -0.307 OA
HETATM   15  C   UNK N   1      -3.001   0.022  -1.750  0.00  0.00     0.166 A 
HETATM   16  C   UNK N   1      -2.126   1.230  -1.435  0.00  0.00     0.047 C 
HETATM   17  O   UNK N   1      -6.135   0.045  -3.091  0.00  0.00    -0.260 OA
HETATM   18  C   UNK N   1      -1.485   0.192   2.366  0.00  0.00     0.035 C 
HETATM   19  C   UNK N   1      -0.067   0.780   2.382  0.00  0.00     0.010 C 
HETATM   20  C   UNK N   1       1.028   1.291  -1.124  0.00  0.00     0.091 C 
HETATM   21  C   UNK N   1       0.081  -1.022  -0.926  0.00  0.00     0.016 C 
HETATM   22  C   UNK N   1       2.581   2.013   1.741  0.00  0.00     0.018 C 
HETATM   23  C   UNK N   1       2.969  -0.328   2.527  0.00  0.00     0.018 C 
ENDROOT
BRANCH   3  24
HETATM   24  O   UNK N   1       4.464   0.395   0.177  0.00  0.00    -0.387 OA
HETATM   25  H   UNK N   1       4.905  -0.029  -0.605  0.00  0.00     0.210 HD
ENDBRANCH   3  24
TORSDOF 1
