REMARK  1 active torsions:
REMARK  status: ('A' for Active; 'I' for Inactive)
REMARK    1  A    between atoms: C_14  and  O_15 
ROOT
HETATM    1  O   UNK N   1      -6.121   0.925  -3.897  0.00  0.00    -0.260 OA
HETATM    2  C   UNK N   1      -5.042   0.552  -3.471  0.00  0.00     0.290 A 
HETATM    3  O   UNK N   1      -3.937   1.323  -3.451  0.00  0.00    -0.307 OA
HETATM    4  C   UNK N   1      -2.866   0.604  -2.935  0.00  0.00     0.166 A 
HETATM    5  C   UNK N   1      -3.495  -0.694  -2.516  0.00  0.00    -0.017 A 
HETATM    6  C   UNK N   1      -4.770  -0.733  -2.880  0.00  0.00     0.022 A 
HETATM    7  C   UNK N   1      -5.767  -1.838  -2.671  0.00  0.00     0.055 C 
HETATM    8  C   UNK N   1      -2.710  -1.682  -1.767  0.00  0.00     0.013 C 
HETATM    9  C   UNK N   1      -1.593  -1.270  -1.121  0.00  0.00    -0.074 C 
HETATM   10  C   UNK N   1      -0.750  -2.282  -0.392  0.00  0.00     0.035 C 
HETATM   11  C   UNK N   1       0.505  -1.634   0.209  0.00  0.00     0.010 C 
HETATM   12  C   UNK N   1       1.276  -0.808  -0.865  0.00  0.00     0.005 C 
HETATM   13  C   UNK N   1       2.721  -0.356  -0.349  0.00  0.00    -0.017 C 
HETATM   14  C   UNK N   1       3.275   0.736  -1.303  0.00  0.00     0.126 C 
HETATM   15  C   UNK N   1       2.379   1.993  -1.382  0.00  0.00     0.033 C 
HETATM   16  C   UNK N   1       0.883   1.735  -1.123  0.00  0.00     0.012 C 
HETATM   17  C   UNK N   1       0.367   0.338  -1.555  0.00  0.00    -0.032 C 
HETATM   18  C   UNK N   1      -1.146   0.206  -1.086  0.00  0.00     0.026 C 
HETATM   19  C   UNK N   1      -2.210   1.199  -1.695  0.00  0.00     0.047 C 
HETATM   20  C   UNK N   1       0.463   0.221  -3.098  0.00  0.00     0.016 C 
HETATM   21  C   UNK N   1       2.731   0.150   1.122  0.00  0.00     0.018 C 
HETATM   22  C   UNK N   1       3.683  -1.576  -0.405  0.00  0.00     0.018 C 
ENDROOT
BRANCH  14  23
HETATM   23  O   UNK N   1       4.588   1.107  -0.956  0.00  0.00    -0.395 OA
HETATM   24  H   UNK N   1       4.916   1.725  -1.660  0.00  0.00     0.210 HD
ENDBRANCH  14  23
TORSDOF 1
