REMARK  7 active torsions:
REMARK  status: ('A' for Active; 'I' for Inactive)
REMARK    1  A    between atoms: C_2  and  C_3 
REMARK    2  A    between atoms: C_5  and  O_6 
REMARK    3  A    between atoms: C_10  and  C_11 
REMARK    4  A    between atoms: C_13  and  O_14 
REMARK    5  A    between atoms: C_16  and  O_17 
REMARK    6  A    between atoms: C_21  and  C_22 
REMARK    7  A    between atoms: C_22  and  O_23 
ROOT
HETATM    1  C   UNK N   1      -3.910   0.655  -2.350  0.00  0.00     0.005 A 
HETATM    2  C   UNK N   1      -3.288  -0.287  -3.208  0.00  0.00     0.054 A 
HETATM    3  C   UNK N   1      -2.034  -0.828  -2.873  0.00  0.00     0.100 A 
HETATM    4  C   UNK N   1      -1.440  -0.427  -1.675  0.00  0.00     0.109 A 
HETATM    5  O   UNK N   1      -0.281  -0.871  -1.186  0.00  0.00    -0.337 OA
HETATM    6  C   UNK N   1      -0.121  -0.445   0.124  0.00  0.00     0.172 C 
HETATM    7  C   UNK N   1      -1.117   0.750   0.299  0.00  0.00     0.079 C 
HETATM    8  C   UNK N   1      -2.025   0.480  -0.851  0.00  0.00    -0.012 A 
HETATM    9  C   UNK N   1      -3.256   1.057  -1.169  0.00  0.00     0.025 A 
ENDROOT
BRANCH   6  10
HETATM   10  C   UNK N   1       1.297  -0.098   0.481  0.00  0.00    -0.025 A 
HETATM   11  C   UNK N   1       2.180   0.375  -0.496  0.00  0.00     0.049 A 
HETATM   12  C   UNK N   1       3.513   0.691  -0.163  0.00  0.00     0.101 A 
HETATM   13  C   UNK N   1       3.948   0.525   1.169  0.00  0.00     0.099 A 
HETATM   14  C   UNK N   1       3.057   0.055   2.140  0.00  0.00     0.040 A 
HETATM   15  C   UNK N   1       1.740  -0.254   1.801  0.00  0.00     0.012 A 
BRANCH  12  16
HETATM   16  O   UNK N   1       4.388   1.152  -1.097  0.00  0.00    -0.353 OA
HETATM   17  C   UNK N   1       4.081   1.355  -2.427  0.00  0.00     0.210 C 
ENDBRANCH  12  16
BRANCH  13  18
HETATM   18  O   UNK N   1       5.216   0.812   1.528  0.00  0.00    -0.358 OA
HETATM   19  H   UNK N   1       5.873   1.136   0.895  0.00  0.00     0.218 HD
ENDBRANCH  13  18
ENDBRANCH   6  10
BRANCH   7  20
HETATM   20  C   UNK N   1      -1.763   0.783   1.686  0.00  0.00     0.176 C 
BRANCH  20  21
HETATM   21  O   UNK N   1      -2.625   1.883   1.777  0.00  0.00    -0.400 OA
HETATM   22  H   UNK N   1      -2.994   1.870   2.697  0.00  0.00     0.209 HD
ENDBRANCH  20  21
ENDBRANCH   7  20
BRANCH   3  23
HETATM   23  O   UNK N   1      -1.436  -1.717  -3.691  0.00  0.00    -0.358 OA
HETATM   24  H   UNK N   1      -0.563  -2.087  -3.489  0.00  0.00     0.218 HD
ENDBRANCH   3  23
BRANCH   1  25
HETATM   25  C   UNK N   1      -5.235   1.221  -2.672  0.00  0.00     0.270 C 
HETATM   26  O   UNK N   1      -5.830   0.888  -3.685  0.00  0.00    -0.301 OA
ENDBRANCH   1  25
TORSDOF 7
