REMARK  9 active torsions:
REMARK  status: ('A' for Active; 'I' for Inactive)
REMARK    1  A    between atoms: C_3  and  O_4 
REMARK    2  A    between atoms: C_7  and  C_8 
REMARK    3  A    between atoms: C_9  and  C_10 
REMARK    4  A    between atoms: C_10  and  O_11 
REMARK    5  A    between atoms: C_15  and  C_27 
REMARK    6  A    between atoms: C_16  and  C_17 
REMARK    7  A    between atoms: C_19  and  O_20 
REMARK    8  A    between atoms: C_22  and  O_23 
REMARK    9  A    between atoms: C_27  and  O_28 
ROOT
HETATM    1  O   UNK N   1      -1.915  -1.888  -2.192  0.00  0.00    -0.337 OA
HETATM    2  C   UNK N   1      -1.045  -1.476  -1.267  0.00  0.00     0.109 A 
HETATM    3  C   UNK N   1      -0.861  -2.040  -0.006  0.00  0.00     0.100 A 
HETATM    4  C   UNK N   1       0.106  -1.478   0.845  0.00  0.00     0.051 A 
HETATM    5  C   UNK N   1       0.895  -0.390   0.411  0.00  0.00    -0.033 A 
HETATM    6  C   UNK N   1       0.664   0.170  -0.870  0.00  0.00     0.022 A 
HETATM    7  C   UNK N   1      -0.321  -0.402  -1.684  0.00  0.00    -0.012 A 
HETATM    8  C   UNK N   1      -0.852   0.045  -3.003  0.00  0.00     0.079 C 
HETATM    9  C   UNK N   1      -1.691  -1.224  -3.388  0.00  0.00     0.172 C 
ENDROOT
BRANCH   9  10
HETATM   10  C   UNK N   1      -2.959  -0.932  -4.152  0.00  0.00    -0.025 A 
HETATM   11  C   UNK N   1      -3.972  -0.148  -3.580  0.00  0.00     0.049 A 
HETATM   12  C   UNK N   1      -5.156   0.129  -4.298  0.00  0.00     0.101 A 
HETATM   13  C   UNK N   1      -5.313  -0.396  -5.598  0.00  0.00     0.099 A 
HETATM   14  C   UNK N   1      -4.302  -1.182  -6.159  0.00  0.00     0.040 A 
HETATM   15  C   UNK N   1      -3.134  -1.450  -5.444  0.00  0.00     0.012 A 
BRANCH  12  16
HETATM   16  O   UNK N   1      -6.153   0.890  -3.769  0.00  0.00    -0.353 OA
HETATM   17  C   UNK N   1      -6.131   1.465  -2.515  0.00  0.00     0.210 C 
ENDBRANCH  12  16
BRANCH  13  18
HETATM   18  O   UNK N   1      -6.428  -0.154  -6.319  0.00  0.00    -0.358 OA
HETATM   19  H   UNK N   1      -7.157   0.386  -5.982  0.00  0.00     0.218 HD
ENDBRANCH  13  18
ENDBRANCH   9  10
BRANCH   8  20
HETATM   20  C   UNK N   1       0.168   0.457  -4.068  0.00  0.00     0.176 C 
BRANCH  20  21
HETATM   21  O   UNK N   1      -0.485   0.806  -5.260  0.00  0.00    -0.400 OA
HETATM   22  H   UNK N   1      -1.009   1.629  -5.073  0.00  0.00     0.209 HD
ENDBRANCH  20  21
ENDBRANCH   8  20
BRANCH   3  23
HETATM   23  O   UNK N   1      -1.597  -3.103   0.378  0.00  0.00    -0.358 OA
HETATM   24  H   UNK N   1      -1.473  -3.516   1.245  0.00  0.00     0.218 HD
ENDBRANCH   3  23
BRANCH   5  25
HETATM   25  C   UNK N   1       1.911   0.161   1.340  0.00  0.00     0.009 C 
HETATM   26  C   UNK N   1       3.204   0.394   1.035  0.00  0.00    -0.000 C 
BRANCH  26  27
HETATM   27  C   UNK N   1       3.863   0.043  -0.273  0.00  0.00     0.194 C 
BRANCH  27  28
HETATM   28  O   UNK N   1       4.465   1.191  -0.826  0.00  0.00    -0.392 OA
HETATM   29  C   UNK N   1       5.263   0.805  -1.925  0.00  0.00     0.201 C 
ENDBRANCH  27  28
ENDBRANCH  26  27
ENDBRANCH   5  25
TORSDOF 9
