REMARK  11 active torsions:
REMARK  status: ('A' for Active; 'I' for Inactive)
REMARK    1  A    between atoms: C_4  and  O_5 
REMARK    2  A    between atoms: C_7  and  O_8 
REMARK    3  A    between atoms: C_10  and  O_11 
REMARK    4  A    between atoms: O_11  and  C_12 
REMARK    5  A    between atoms: C_14  and  C_24 
REMARK    6  A    between atoms: C_15  and  O_16 
REMARK    7  A    between atoms: C_18  and  O_19 
REMARK    8  A    between atoms: C_21  and  O_22 
REMARK    9  A    between atoms: C_24  and  O_25 
REMARK   10  A    between atoms: C_30  and  C_32 
REMARK   11  A    between atoms: C_35  and  O_36 
ROOT
HETATM    1  O   UNK N   1       4.515   1.675  -2.198  0.00  0.00    -0.287 OA
HETATM    2  C   UNK N   1       3.527   1.183  -1.692  0.00  0.00     0.190 A 
HETATM    3  C   UNK N   1       2.315   0.998  -2.415  0.00  0.00     0.084 A 
HETATM    4  C   UNK N   1       2.122   1.359  -3.793  0.00  0.00     0.119 A 
HETATM    5  C   UNK N   1       0.840   1.176  -4.391  0.00  0.00     0.136 A 
HETATM    6  C   UNK N   1      -0.222   0.661  -3.634  0.00  0.00     0.111 A 
HETATM    7  C   UNK N   1      -0.013   0.272  -2.305  0.00  0.00     0.078 A 
HETATM    8  C   UNK N   1       1.231   0.427  -1.703  0.00  0.00     0.096 A 
HETATM    9  O   UNK N   1       1.366   0.050  -0.434  0.00  0.00    -0.309 OA
HETATM   10  C   UNK N   1       2.485   0.218   0.262  0.00  0.00     0.090 A 
HETATM   11  C   UNK N   1       3.596   0.806  -0.353  0.00  0.00     0.094 A 
ENDROOT
BRANCH   6  12
HETATM   12  O   UNK N   1      -1.452   0.587  -4.214  0.00  0.00    -0.315 OA
BRANCH  12  13
HETATM   13  C   UNK N   1      -2.660   0.542  -3.536  0.00  0.00     0.298 C 
HETATM   14  O   UNK N   1      -2.924  -0.779  -3.089  0.00  0.00    -0.348 OA
HETATM   15  C   UNK N   1      -4.099  -0.800  -2.286  0.00  0.00     0.179 C 
HETATM   16  C   UNK N   1      -5.337  -0.415  -3.133  0.00  0.00     0.180 C 
HETATM   17  C   UNK N   1      -5.114   0.983  -3.738  0.00  0.00     0.183 C 
HETATM   18  C   UNK N   1      -3.777   1.011  -4.491  0.00  0.00     0.205 C 
BRANCH  15  19
HETATM   19  C   UNK N   1      -4.268  -2.205  -1.690  0.00  0.00     0.198 C 
BRANCH  19  20
HETATM   20  O   UNK N   1      -3.173  -2.531  -0.878  0.00  0.00    -0.398 OA
HETATM   21  H   UNK N   1      -2.432  -2.786  -1.486  0.00  0.00     0.209 HD
ENDBRANCH  19  20
ENDBRANCH  15  19
BRANCH  16  22
HETATM   22  O   UNK N   1      -6.484  -0.407  -2.320  0.00  0.00    -0.390 OA
HETATM   23  H   UNK N   1      -7.270  -0.478  -2.921  0.00  0.00     0.210 HD
ENDBRANCH  16  22
BRANCH  17  24
HETATM   24  O   UNK N   1      -6.154   1.315  -4.622  0.00  0.00    -0.390 OA
HETATM   25  H   UNK N   1      -6.916   1.630  -4.070  0.00  0.00     0.210 HD
ENDBRANCH  17  24
BRANCH  18  26
HETATM   26  O   UNK N   1      -3.533   2.323  -4.931  0.00  0.00    -0.388 OA
HETATM   27  H   UNK N   1      -2.756   2.285  -5.548  0.00  0.00     0.210 HD
ENDBRANCH  18  26
ENDBRANCH  12  13
ENDBRANCH   6  12
BRANCH   5  28
HETATM   28  O   UNK N   1       0.566   1.506  -5.690  0.00  0.00    -0.351 OA
HETATM   29  C   UNK N   1       1.427   2.025  -6.636  0.00  0.00     0.210 C 
ENDBRANCH   5  28
BRANCH   4  30
HETATM   30  O   UNK N   1       3.111   1.885  -4.553  0.00  0.00    -0.357 OA
HETATM   31  H   UNK N   1       4.022   2.054  -4.303  0.00  0.00     0.218 HD
ENDBRANCH   4  30
BRANCH  10  32
HETATM   32  C   UNK N   1       2.520  -0.232   1.680  0.00  0.00    -0.002 A 
HETATM   33  C   UNK N   1       1.608  -1.211   2.115  0.00  0.00     0.017 A 
HETATM   34  C   UNK N   1       1.631  -1.664   3.436  0.00  0.00     0.037 A 
HETATM   35  C   UNK N   1       2.550  -1.129   4.349  0.00  0.00     0.065 A 
HETATM   36  C   UNK N   1       3.447  -0.144   3.932  0.00  0.00     0.037 A 
HETATM   37  C   UNK N   1       3.443   0.298   2.606  0.00  0.00     0.017 A 
BRANCH  35  38
HETATM   38  O   UNK N   1       2.576  -1.555   5.628  0.00  0.00    -0.361 OA
HETATM   39  H   UNK N   1       1.975  -2.242   5.948  0.00  0.00     0.217 HD
ENDBRANCH  35  38
ENDBRANCH  10  32
TORSDOF 11
