REMARK  11 active torsions:
REMARK  status: ('A' for Active; 'I' for Inactive)
REMARK    1  A    between atoms: C_4  and  O_5 
REMARK    2  A    between atoms: C_7  and  O_8 
REMARK    3  A    between atoms: C_10  and  O_11 
REMARK    4  A    between atoms: O_11  and  C_12 
REMARK    5  A    between atoms: C_12  and  C_13 
REMARK    6  A    between atoms: C_15  and  O_16 
REMARK    7  A    between atoms: C_18  and  O_19 
REMARK    8  A    between atoms: C_21  and  O_22 
REMARK    9  A    between atoms: C_24  and  O_25 
REMARK   10  A    between atoms: C_30  and  C_32 
REMARK   11  A    between atoms: C_35  and  O_36 
ROOT
HETATM    1  O   UNK N   1       3.540   2.017  -2.381  0.00  0.00    -0.287 OA
HETATM    2  C   UNK N   1       2.611   1.496  -1.798  0.00  0.00     0.190 A 
HETATM    3  C   UNK N   1       1.299   1.449  -2.349  0.00  0.00     0.084 A 
HETATM    4  C   UNK N   1       0.921   1.997  -3.624  0.00  0.00     0.119 A 
HETATM    5  C   UNK N   1      -0.443   1.919  -4.048  0.00  0.00     0.136 A 
HETATM    6  C   UNK N   1      -1.402   1.306  -3.224  0.00  0.00     0.107 A 
HETATM    7  C   UNK N   1      -1.011   0.752  -1.996  0.00  0.00     0.078 A 
HETATM    8  C   UNK N   1       0.306   0.815  -1.564  0.00  0.00     0.096 A 
HETATM    9  O   UNK N   1       0.603   0.274  -0.386  0.00  0.00    -0.309 OA
HETATM   10  C   UNK N   1       1.815   0.315   0.154  0.00  0.00     0.090 A 
HETATM   11  C   UNK N   1       2.855   0.940  -0.543  0.00  0.00     0.094 A 
ENDROOT
BRANCH   6  12
HETATM   12  O   UNK N   1      -2.704   1.261  -3.639  0.00  0.00    -0.345 OA
BRANCH  12  13
HETATM   13  C   UNK N   1      -3.739   0.696  -2.909  0.00  0.00     0.210 C 
BRANCH  13  14
HETATM   14  C   UNK N   1      -5.080   0.811  -3.650  0.00  0.00     0.180 C 
HETATM   15  O   UNK N   1      -5.380   2.185  -3.850  0.00  0.00    -0.349 OA
HETATM   16  C   UNK N   1      -6.554   2.331  -4.637  0.00  0.00     0.288 C 
HETATM   17  C   UNK N   1      -7.782   1.772  -3.885  0.00  0.00     0.204 C 
HETATM   18  C   UNK N   1      -7.541   0.292  -3.563  0.00  0.00     0.183 C 
HETATM   19  C   UNK N   1      -6.204   0.139  -2.820  0.00  0.00     0.180 C 
BRANCH  16  20
HETATM   20  O   UNK N   1      -6.762   3.695  -4.885  0.00  0.00    -0.369 OA
HETATM   21  H   UNK N   1      -6.074   3.973  -5.543  0.00  0.00     0.212 HD
ENDBRANCH  16  20
BRANCH  17  22
HETATM   22  O   UNK N   1      -8.941   1.885  -4.670  0.00  0.00    -0.388 OA
HETATM   23  H   UNK N   1      -9.170   2.849  -4.720  0.00  0.00     0.210 HD
ENDBRANCH  17  22
BRANCH  18  24
HETATM   24  O   UNK N   1      -8.603  -0.191  -2.780  0.00  0.00    -0.390 OA
HETATM   25  H   UNK N   1      -8.599  -1.181  -2.859  0.00  0.00     0.210 HD
ENDBRANCH  18  24
BRANCH  19  26
HETATM   26  O   UNK N   1      -5.911  -1.224  -2.637  0.00  0.00    -0.390 OA
HETATM   27  H   UNK N   1      -6.415  -1.526  -1.837  0.00  0.00     0.210 HD
ENDBRANCH  19  26
ENDBRANCH  13  14
ENDBRANCH  12  13
ENDBRANCH   6  12
BRANCH   5  28
HETATM   28  O   UNK N   1      -0.881   2.419  -5.243  0.00  0.00    -0.351 OA
HETATM   29  C   UNK N   1      -0.134   3.025  -6.234  0.00  0.00     0.210 C 
ENDBRANCH   5  28
BRANCH   4  30
HETATM   30  O   UNK N   1       1.815   2.594  -4.447  0.00  0.00    -0.357 OA
HETATM   31  H   UNK N   1       2.761   2.690  -4.321  0.00  0.00     0.218 HD
ENDBRANCH   4  30
BRANCH  10  32
HETATM   32  C   UNK N   1       2.021  -0.314   1.488  0.00  0.00    -0.002 A 
HETATM   33  C   UNK N   1       1.106  -1.281   1.943  0.00  0.00     0.017 A 
HETATM   34  C   UNK N   1       1.280  -1.896   3.186  0.00  0.00     0.037 A 
HETATM   35  C   UNK N   1       2.360  -1.538   4.004  0.00  0.00     0.065 A 
HETATM   36  C   UNK N   1       3.265  -0.567   3.569  0.00  0.00     0.037 A 
HETATM   37  C   UNK N   1       3.107   0.038   2.319  0.00  0.00     0.017 A 
BRANCH  35  38
HETATM   38  O   UNK N   1       2.535  -2.120   5.207  0.00  0.00    -0.361 OA
HETATM   39  H   UNK N   1       1.932  -2.802   5.535  0.00  0.00     0.217 HD
ENDBRANCH  35  38
ENDBRANCH  10  32
TORSDOF 11
