REMARK  7 active torsions:
REMARK  status: ('A' for Active; 'I' for Inactive)
REMARK    1  A    between atoms: S_1  and  O_4 
REMARK    2  A    between atoms: S_1  and  O_28 
REMARK    3  A    between atoms: O_4  and  C_5 
REMARK    4  A    between atoms: C_6  and  O_7 
REMARK    5  A    between atoms: C_9  and  O_10 
REMARK    6  A    between atoms: C_16  and  C_20 
REMARK    7  A    between atoms: C_23  and  O_24 
ROOT
HETATM    1  C   UNK N   1       3.141  -0.227   2.513  0.00  0.00     0.130 A 
HETATM    2  C   UNK N   1       4.340  -0.011   1.826  0.00  0.00     0.137 A 
HETATM    3  C   UNK N   1       4.321   0.428   0.471  0.00  0.00     0.119 A 
HETATM    4  C   UNK N   1       3.058   0.597  -0.197  0.00  0.00     0.084 A 
HETATM    5  C   UNK N   1       2.911   0.992  -1.554  0.00  0.00     0.190 A 
HETATM    6  O   UNK N   1       3.865   1.245  -2.262  0.00  0.00    -0.287 OA
HETATM    7  C   UNK N   1       1.640   1.079  -2.114  0.00  0.00     0.094 A 
HETATM    8  C   UNK N   1       0.511   0.796  -1.335  0.00  0.00     0.090 A 
HETATM    9  O   UNK N   1       0.672   0.461  -0.057  0.00  0.00    -0.309 OA
HETATM   10  C   UNK N   1       1.865   0.342   0.525  0.00  0.00     0.096 A 
HETATM   11  C   UNK N   1       1.914  -0.052   1.861  0.00  0.00     0.079 A 
ENDROOT
BRANCH   8  12
HETATM   12  C   UNK N   1      -0.871   0.843  -1.902  0.00  0.00    -0.002 A 
HETATM   13  C   UNK N   1      -1.978   0.874  -1.032  0.00  0.00     0.017 A 
HETATM   14  C   UNK N   1      -3.282   0.916  -1.540  0.00  0.00     0.037 A 
HETATM   15  C   UNK N   1      -3.501   0.909  -2.924  0.00  0.00     0.065 A 
HETATM   16  C   UNK N   1      -2.412   0.862  -3.795  0.00  0.00     0.037 A 
HETATM   17  C   UNK N   1      -1.108   0.835  -3.296  0.00  0.00     0.017 A 
BRANCH  15  18
HETATM   18  O   UNK N   1      -4.752   0.943  -3.425  0.00  0.00    -0.361 OA
HETATM   19  H   UNK N   1      -5.530   0.982  -2.851  0.00  0.00     0.217 HD
ENDBRANCH  15  18
ENDBRANCH   8  12
BRANCH   3  20
HETATM   20  O   UNK N   1       5.505   0.672  -0.135  0.00  0.00    -0.357 OA
HETATM   21  H   UNK N   1       5.654   1.048  -1.005  0.00  0.00     0.218 HD
ENDBRANCH   3  20
BRANCH   1  22
HETATM   22  O   UNK N   1       3.218  -0.611   3.813  0.00  0.00    -0.218 OA
BRANCH  22  23
HETATM   23  S   UNK N   1       1.944  -0.609   4.942  0.00  0.00     0.245 S 
HETATM   24  O   UNK N   1       0.984  -1.767   4.627  0.00  0.00    -0.579 OA
HETATM   25  O   UNK N   1       1.110   0.674   4.794  0.00  0.00    -0.579 OA
BRANCH  23  26
HETATM   26  O   UNK N   1       2.483  -0.750   6.565  0.00  0.00    -0.273 OA
HETATM   27  H   UNK N   1       3.274  -0.155   6.615  0.00  0.00     0.234 HD
ENDBRANCH  23  26
ENDBRANCH  22  23
ENDBRANCH   1  22
BRANCH   2  28
HETATM   28  O   UNK N   1       5.492  -0.245   2.523  0.00  0.00    -0.351 OA
HETATM   29  C   UNK N   1       6.783  -0.309   2.039  0.00  0.00     0.210 C 
ENDBRANCH   2  28
TORSDOF 7
