REMARK  5 active torsions:
REMARK  status: ('A' for Active; 'I' for Inactive)
REMARK    1  A    between atoms: C_4  and  O_5 
REMARK    2  A    between atoms: C_7  and  O_8 
REMARK    3  A    between atoms: C_10  and  O_11 
REMARK    4  A    between atoms: C_16  and  C_18 
REMARK    5  A    between atoms: C_21  and  O_22 
ROOT
HETATM    1  O   UNK N   1       3.825   1.434  -2.189  0.00  0.00    -0.287 OA
HETATM    2  C   UNK N   1       2.877   1.091  -1.513  0.00  0.00     0.190 A 
HETATM    3  C   UNK N   1       3.023   0.642  -0.171  0.00  0.00     0.084 A 
HETATM    4  C   UNK N   1       4.278   0.529   0.519  0.00  0.00     0.119 A 
HETATM    5  C   UNK N   1       4.298   0.035   1.858  0.00  0.00     0.135 A 
HETATM    6  C   UNK N   1       3.101  -0.330   2.484  0.00  0.00     0.104 A 
HETATM    7  C   UNK N   1       1.884  -0.202   1.817  0.00  0.00     0.077 A 
HETATM    8  C   UNK N   1       1.835   0.278   0.512  0.00  0.00     0.096 A 
HETATM    9  O   UNK N   1       0.648   0.374  -0.080  0.00  0.00    -0.309 OA
HETATM   10  C   UNK N   1       0.492   0.772  -1.338  0.00  0.00     0.090 A 
HETATM   11  C   UNK N   1       1.612   1.138  -2.089  0.00  0.00     0.094 A 
ENDROOT
BRANCH  10  12
HETATM   12  C   UNK N   1      -0.877   0.817  -1.910  0.00  0.00    -0.002 A 
HETATM   13  C   UNK N   1      -1.981   0.931  -1.048  0.00  0.00     0.017 A 
HETATM   14  C   UNK N   1      -3.278   0.985  -1.563  0.00  0.00     0.037 A 
HETATM   15  C   UNK N   1      -3.491   0.902  -2.946  0.00  0.00     0.065 A 
HETATM   16  C   UNK N   1      -2.401   0.771  -3.809  0.00  0.00     0.037 A 
HETATM   17  C   UNK N   1      -1.101   0.738  -3.300  0.00  0.00     0.017 A 
BRANCH  15  18
HETATM   18  O   UNK N   1      -4.740   0.944  -3.453  0.00  0.00    -0.361 OA
HETATM   19  H   UNK N   1      -5.516   1.040  -2.883  0.00  0.00     0.217 HD
ENDBRANCH  15  18
ENDBRANCH  10  12
BRANCH   4  20
HETATM   20  O   UNK N   1       5.455   0.871  -0.054  0.00  0.00    -0.357 OA
HETATM   21  H   UNK N   1       5.606   1.228  -0.931  0.00  0.00     0.218 HD
ENDBRANCH   4  20
BRANCH   6  22
HETATM   22  O   UNK N   1       3.130  -0.813   3.746  0.00  0.00    -0.358 OA
HETATM   23  H   UNK N   1       2.325  -1.092   4.206  0.00  0.00     0.218 HD
ENDBRANCH   6  22
BRANCH   5  24
HETATM   24  O   UNK N   1       5.447  -0.111   2.583  0.00  0.00    -0.351 OA
HETATM   25  C   UNK N   1       6.737   0.180   2.187  0.00  0.00     0.210 C 
ENDBRANCH   5  24
TORSDOF 5
