REMARK  5 active torsions:
REMARK  status: ('A' for Active; 'I' for Inactive)
REMARK    1  A    between atoms: C_5  and  C_7 
REMARK    2  A    between atoms: C_9  and  O_10 
REMARK    3  A    between atoms: C_16  and  C_17 
REMARK    4  A    between atoms: C_23  and  O_24 
REMARK    5  A    between atoms: C_26  and  O_27 
ROOT
HETATM    1  C   UNK N   1      -2.729   1.619   0.277  0.00  0.00     0.028 C 
HETATM    2  C   UNK N   1      -1.215   1.556  -0.012  0.00  0.00    -0.001 C 
HETATM    3  C   UNK N   1      -0.689   1.171   1.405  0.00  0.00     0.089 C 
HETATM    4  C   UNK N   1       0.821   1.022   1.294  0.00  0.00    -0.044 C 
HETATM    5  C   UNK N   1       1.440  -0.167   1.486  0.00  0.00    -0.020 C 
HETATM    6  C   UNK N   1       2.911  -0.375   1.251  0.00  0.00     0.033 C 
HETATM    7  C   UNK N   1       3.561   0.773   0.450  0.00  0.00     0.007 C 
HETATM    8  C   UNK N   1       3.138   2.171   0.995  0.00  0.00     0.027 C 
HETATM    9  C   UNK N   1       1.567   2.305   0.888  0.00  0.00     0.033 C 
HETATM   10  C   UNK N   1       0.992   2.783  -0.480  0.00  0.00     0.011 C 
HETATM   11  C   UNK N   1      -0.558   2.897  -0.445  0.00  0.00     0.014 C 
HETATM   12  C   UNK N   1       3.868   3.271   0.155  0.00  0.00     0.052 C 
HETATM   13  C   UNK N   1       5.402   3.088   0.106  0.00  0.00     0.148 C 
HETATM   14  C   UNK N   1       5.759   1.690  -0.450  0.00  0.00     0.147 C 
HETATM   15  C   UNK N   1       5.098   0.590   0.399  0.00  0.00     0.040 C 
HETATM   16  C   UNK N   1      -1.605  -0.011   1.761  0.00  0.00     0.044 C 
HETATM   17  C   UNK N   1      -2.997   0.419   1.232  0.00  0.00     0.013 C 
HETATM   18  C   UNK N   1      -0.933   0.480  -1.117  0.00  0.00     0.019 C 
ENDROOT
BRANCH   1  19
HETATM   19  C   UNK N   1      -3.674   1.770  -0.898  0.00  0.00    -0.045 A 
HETATM   20  C   UNK N   1      -4.127   3.105  -1.462  0.00  0.00     0.213 A 
HETATM   21  O   UNK N   1      -4.975   2.732  -2.495  0.00  0.00    -0.314 OA
HETATM   22  C   UNK N   1      -5.049   1.394  -2.579  0.00  0.00     0.283 A 
HETATM   23  O   UNK N   1      -5.734   0.803  -3.395  0.00  0.00    -0.260 OA
HETATM   24  C   UNK N   1      -4.229   0.777  -1.579  0.00  0.00     0.087 A 
ENDBRANCH   1  19
BRANCH   3  25
HETATM   25  O   UNK N   1      -0.955   2.203   2.333  0.00  0.00    -0.384 OA
HETATM   26  H   UNK N   1      -0.625   1.898   3.219  0.00  0.00     0.211 HD
ENDBRANCH   3  25
BRANCH   8  27
HETATM   27  C   UNK N   1       3.500   2.394   2.469  0.00  0.00     0.241 C 
HETATM   28  O   UNK N   1       4.075   1.555   3.142  0.00  0.00    -0.306 OA
ENDBRANCH   8  27
BRANCH  13  29
HETATM   29  O   UNK N   1       5.951   3.268   1.385  0.00  0.00    -0.393 OA
HETATM   30  H   UNK N   1       6.934   3.342   1.267  0.00  0.00     0.210 HD
ENDBRANCH  13  29
BRANCH  14  31
HETATM   31  O   UNK N   1       5.332   1.592  -1.785  0.00  0.00    -0.393 OA
HETATM   32  H   UNK N   1       5.719   0.752  -2.148  0.00  0.00     0.210 HD
ENDBRANCH  14  31
TORSDOF 5
