REMARK  3 active torsions:
REMARK  status: ('A' for Active; 'I' for Inactive)
REMARK    1  A    between atoms: C_2  and  O_3 
REMARK    2  A    between atoms: C_2  and  C_5 
REMARK    3  A    between atoms: C_15  and  O_16 
ROOT
HETATM    1  C   UNK N   1       2.012   1.784  -1.576  0.00  0.00     0.322 C 
HETATM    2  N   UNK N   1       2.316   0.879  -0.450  0.00  0.00     0.108 N 
HETATM    3  C   UNK N   1       1.319   0.935   0.641  0.00  0.00     0.267 C 
HETATM    4  C   UNK N   1      -0.077   0.869   0.080  0.00  0.00     0.050 A 
HETATM    5  N   UNK N   1      -1.209   0.617   0.773  0.00  0.00    -0.357 N 
HETATM    6  C   UNK N   1      -2.210   0.624  -0.129  0.00  0.00     0.043 A 
HETATM    7  C   UNK N   1      -1.728   0.892  -1.387  0.00  0.00     0.002 A 
HETATM    8  C   UNK N   1      -0.361   1.058  -1.258  0.00  0.00    -0.018 A 
HETATM    9  C   UNK N   1       0.687   1.369  -2.282  0.00  0.00     0.088 C 
HETATM   10  C   UNK N   1      -2.582   0.968  -2.491  0.00  0.00     0.051 A 
HETATM   11  C   UNK N   1      -3.962   0.754  -2.279  0.00  0.00     0.066 A 
HETATM   12  C   UNK N   1      -4.446   0.465  -0.976  0.00  0.00     0.039 A 
HETATM   13  C   UNK N   1      -3.560   0.398   0.113  0.00  0.00     0.033 A 
HETATM   14  H   UNK N   1      -1.297   0.435   1.798  0.00  0.00     0.166 HD
HETATM   15  C   UNK N   1       1.595  -0.230   1.594  0.00  0.00     0.049 C 
HETATM   16  H   UNK N   1       3.240   1.133  -0.027  0.00  0.00     0.318 HD
ENDROOT
BRANCH   1  17
HETATM   17  C   UNK N   1       3.173   1.801  -2.553  0.00  0.00     0.174 C 
HETATM   18  O   UNK N   1       2.982   2.023  -3.740  0.00  0.00    -0.648 OA
BRANCH  17  19
HETATM   19  O   UNK N   1       4.428   1.554  -2.113  0.00  0.00    -0.775 OA
HETATM   20  H   UNK N   1       5.183   1.529  -2.717  0.00  0.00     0.167 HD
ENDBRANCH  17  19
ENDBRANCH   1  17
BRANCH  11  21
HETATM   21  O   UNK N   1      -4.816   0.830  -3.320  0.00  0.00    -0.361 OA
HETATM   22  H   UNK N   1      -5.769   0.697  -3.205  0.00  0.00     0.217 HD
ENDBRANCH  11  21
TORSDOF 3
