REMARK  9 active torsions:
REMARK  status: ('A' for Active; 'I' for Inactive)
REMARK    1  A    between atoms: C_6  and  C_10 
REMARK    2  A    between atoms: C_7  and  O_8 
REMARK    3  A    between atoms: C_14  and  C_30 
REMARK    4  A    between atoms: C_15  and  C_20 
REMARK    5  A    between atoms: C_22  and  O_23 
REMARK    6  A    between atoms: C_25  and  O_26 
REMARK    7  A    between atoms: C_30  and  O_31 
REMARK    8  A    between atoms: C_34  and  O_35 
REMARK    9  A    between atoms: C_38  and  O_39 
ROOT
HETATM    1  C   UNK N   1      -2.631  -0.901  -2.472  0.00  0.00    -0.023 A 
HETATM    2  C   UNK N   1      -1.549  -0.017  -2.608  0.00  0.00     0.049 A 
HETATM    3  C   UNK N   1      -0.564   0.026  -1.629  0.00  0.00     0.103 A 
HETATM    4  O   UNK N   1       0.472   0.895  -1.729  0.00  0.00    -0.338 OA
HETATM    5  C   UNK N   1       1.275   1.160  -0.628  0.00  0.00     0.186 C 
HETATM    6  C   UNK N   1       1.579  -0.184   0.086  0.00  0.00     0.193 C 
HETATM    7  O   UNK N   1       0.374  -0.806   0.389  0.00  0.00    -0.336 OA
HETATM    8  C   UNK N   1      -0.628  -0.835  -0.520  0.00  0.00     0.103 A 
HETATM    9  C   UNK N   1      -1.708  -1.705  -0.369  0.00  0.00     0.040 A 
HETATM   10  C   UNK N   1      -2.710  -1.740  -1.343  0.00  0.00     0.013 A 
ENDROOT
BRANCH   1  11
HETATM   11  C   UNK N   1      -3.690  -0.946  -3.537  0.00  0.00     0.198 C 
HETATM   12  O   UNK N   1      -3.752  -2.223  -4.071  0.00  0.00    -0.337 OA
HETATM   13  C   UNK N   1      -4.704  -2.570  -4.975  0.00  0.00     0.089 A 
HETATM   14  C   UNK N   1      -5.891  -1.814  -5.080  0.00  0.00     0.079 A 
HETATM   15  C   UNK N   1      -4.490  -3.666  -5.811  0.00  0.00     0.074 A 
HETATM   16  C   UNK N   1      -6.074  -0.681  -4.131  0.00  0.00     0.196 C 
HETATM   17  C   UNK N   1      -6.843  -2.148  -6.064  0.00  0.00     0.085 A 
HETATM   18  O   UNK N   1      -7.001   0.105  -4.246  0.00  0.00    -0.289 OA
HETATM   19  C   UNK N   1      -5.076  -0.531  -3.007  0.00  0.00     0.227 C 
HETATM   20  C   UNK N   1      -6.607  -3.244  -6.911  0.00  0.00     0.074 A 
HETATM   21  C   UNK N   1      -5.440  -4.004  -6.783  0.00  0.00     0.071 A 
BRANCH  19  22
HETATM   22  O   UNK N   1      -5.075   0.771  -2.475  0.00  0.00    -0.385 OA
HETATM   23  H   UNK N   1      -4.745   1.383  -3.185  0.00  0.00     0.210 HD
ENDBRANCH  19  22
BRANCH  17  24
HETATM   24  O   UNK N   1      -7.976  -1.426  -6.192  0.00  0.00    -0.360 OA
HETATM   25  H   UNK N   1      -8.641  -1.634  -6.864  0.00  0.00     0.217 HD
ENDBRANCH  17  24
BRANCH  21  26
HETATM   26  O   UNK N   1      -5.233  -5.054  -7.604  0.00  0.00    -0.361 OA
HETATM   27  H   UNK N   1      -4.434  -5.596  -7.543  0.00  0.00     0.217 HD
ENDBRANCH  21  26
ENDBRANCH   1  11
BRANCH   5  28
HETATM   28  C   UNK N   1       2.533   1.920  -1.071  0.00  0.00     0.199 C 
BRANCH  28  29
HETATM   29  O   UNK N   1       3.325   1.144  -1.929  0.00  0.00    -0.398 OA
HETATM   30  H   UNK N   1       2.800   1.006  -2.760  0.00  0.00     0.209 HD
ENDBRANCH  28  29
ENDBRANCH   5  28
BRANCH   6  31
HETATM   31  C   UNK N   1       2.389  -0.028   1.342  0.00  0.00    -0.024 A 
HETATM   32  C   UNK N   1       1.869   0.692   2.424  0.00  0.00     0.049 A 
HETATM   33  C   UNK N   1       2.609   0.834   3.614  0.00  0.00     0.101 A 
HETATM   34  C   UNK N   1       3.886   0.242   3.703  0.00  0.00     0.099 A 
HETATM   35  C   UNK N   1       4.402  -0.473   2.616  0.00  0.00     0.040 A 
HETATM   36  C   UNK N   1       3.660  -0.610   1.443  0.00  0.00     0.013 A 
BRANCH  33  37
HETATM   37  O   UNK N   1       2.120   1.527   4.678  0.00  0.00    -0.353 OA
HETATM   38  C   UNK N   1       0.888   2.151   4.712  0.00  0.00     0.210 C 
ENDBRANCH  33  37
BRANCH  34  39
HETATM   39  O   UNK N   1       4.627   0.350   4.826  0.00  0.00    -0.358 OA
HETATM   40  H   UNK N   1       4.314   0.824   5.609  0.00  0.00     0.218 HD
ENDBRANCH  34  39
ENDBRANCH   6  31
TORSDOF 9
