REMARK  9 active torsions:
REMARK  status: ('A' for Active; 'I' for Inactive)
REMARK    1  A    between atoms: C_6  and  C_10 
REMARK    2  A    between atoms: C_7  and  O_8 
REMARK    3  A    between atoms: C_14  and  C_30 
REMARK    4  A    between atoms: C_15  and  C_20 
REMARK    5  A    between atoms: C_22  and  O_23 
REMARK    6  A    between atoms: C_25  and  O_26 
REMARK    7  A    between atoms: C_30  and  O_31 
REMARK    8  A    between atoms: C_34  and  O_35 
REMARK    9  A    between atoms: C_38  and  O_39 
ROOT
HETATM    1  C   UNK N   1      -1.888   2.193  -3.084  0.00  0.00    -0.023 A 
HETATM    2  C   UNK N   1      -0.488   2.310  -3.001  0.00  0.00     0.049 A 
HETATM    3  C   UNK N   1       0.196   1.829  -1.886  0.00  0.00     0.103 A 
HETATM    4  O   UNK N   1       1.546   1.935  -1.800  0.00  0.00    -0.338 OA
HETATM    5  C   UNK N   1       2.252   1.182  -0.870  0.00  0.00     0.186 C 
HETATM    6  C   UNK N   1       1.478   1.215   0.478  0.00  0.00     0.193 C 
HETATM    7  O   UNK N   1       0.177   0.791   0.253  0.00  0.00    -0.336 OA
HETATM    8  C   UNK N   1      -0.510   1.229  -0.831  0.00  0.00     0.103 A 
HETATM    9  C   UNK N   1      -1.894   1.091  -0.903  0.00  0.00     0.040 A 
HETATM   10  C   UNK N   1      -2.586   1.574  -2.018  0.00  0.00     0.013 A 
ENDROOT
BRANCH   1  11
HETATM   11  C   UNK N   1      -2.577   2.753  -4.326  0.00  0.00     0.198 C 
HETATM   12  O   UNK N   1      -2.132   2.049  -5.433  0.00  0.00    -0.337 OA
HETATM   13  C   UNK N   1      -2.577   0.794  -5.713  0.00  0.00     0.089 A 
HETATM   14  C   UNK N   1      -3.836   0.350  -5.229  0.00  0.00     0.079 A 
HETATM   15  C   UNK N   1      -1.782  -0.048  -6.494  0.00  0.00     0.074 A 
HETATM   16  C   UNK N   1      -4.658   1.351  -4.472  0.00  0.00     0.196 C 
HETATM   17  C   UNK N   1      -4.259  -0.980  -5.533  0.00  0.00     0.085 A 
HETATM   18  O   UNK N   1      -5.801   1.115  -4.123  0.00  0.00    -0.289 OA
HETATM   19  C   UNK N   1      -4.122   2.751  -4.295  0.00  0.00     0.227 C 
HETATM   20  C   UNK N   1      -3.433  -1.803  -6.310  0.00  0.00     0.074 A 
HETATM   21  C   UNK N   1      -2.208  -1.346  -6.793  0.00  0.00     0.071 A 
BRANCH  19  22
HETATM   22  O   UNK N   1      -4.651   3.582  -5.298  0.00  0.00    -0.385 OA
HETATM   23  H   UNK N   1      -4.291   3.277  -6.172  0.00  0.00     0.210 HD
ENDBRANCH  19  22
BRANCH  17  24
HETATM   24  O   UNK N   1      -5.433  -1.506  -5.114  0.00  0.00    -0.360 OA
HETATM   25  H   UNK N   1      -6.072  -1.070  -4.544  0.00  0.00     0.217 HD
ENDBRANCH  17  24
BRANCH  21  26
HETATM   26  O   UNK N   1      -1.443  -2.164  -7.544  0.00  0.00    -0.361 OA
HETATM   27  H   UNK N   1      -0.587  -1.881  -7.897  0.00  0.00     0.217 HD
ENDBRANCH  21  26
ENDBRANCH   1  11
BRANCH   5  28
HETATM   28  C   UNK N   1       3.693   1.689  -0.762  0.00  0.00     0.199 C 
BRANCH  28  29
HETATM   29  O   UNK N   1       4.313   1.586  -2.014  0.00  0.00    -0.398 OA
HETATM   30  H   UNK N   1       5.258   1.856  -1.877  0.00  0.00     0.209 HD
ENDBRANCH  28  29
ENDBRANCH   5  28
BRANCH   6  31
HETATM   31  C   UNK N   1       2.082   0.403   1.604  0.00  0.00    -0.024 A 
HETATM   32  C   UNK N   1       1.987   0.882   2.919  0.00  0.00     0.049 A 
HETATM   33  C   UNK N   1       2.525   0.145   3.996  0.00  0.00     0.101 A 
HETATM   34  C   UNK N   1       3.175  -1.077   3.734  0.00  0.00     0.099 A 
HETATM   35  C   UNK N   1       3.264  -1.554   2.423  0.00  0.00     0.040 A 
HETATM   36  C   UNK N   1       2.714  -0.831   1.367  0.00  0.00     0.013 A 
BRANCH  33  37
HETATM   37  O   UNK N   1       2.430   0.582   5.281  0.00  0.00    -0.353 OA
HETATM   38  C   UNK N   1       1.796   1.742   5.681  0.00  0.00     0.210 C 
ENDBRANCH  33  37
BRANCH  34  39
HETATM   39  O   UNK N   1       3.713  -1.809   4.732  0.00  0.00    -0.358 OA
HETATM   40  H   UNK N   1       3.679  -1.529   5.657  0.00  0.00     0.218 HD
ENDBRANCH  34  39
ENDBRANCH   6  31
TORSDOF 9
