REMARK  5 active torsions:
REMARK  status: ('A' for Active; 'I' for Inactive)
REMARK    1  A    between atoms: C_8  and  O_10 
REMARK    2  A    between atoms: O_10  and  C_11 
REMARK    3  A    between atoms: C_11  and  C_12 
REMARK    4  A    between atoms: C_13  and  O_14 
REMARK    5  A    between atoms: C_20  and  O_21 
ROOT
HETATM    1  C   UNK N   1      -0.136   0.526   1.080  0.00  0.00     0.052 C 
HETATM    2  C   UNK N   1      -0.584   1.453   2.282  0.00  0.00     0.060 C 
HETATM    3  C   UNK N   1       0.044   2.856   2.102  0.00  0.00     0.038 C 
HETATM    4  C   UNK N   1       1.561   2.841   1.875  0.00  0.00     0.009 C 
HETATM    5  C   UNK N   1       1.904   2.016   0.603  0.00  0.00     0.004 C 
HETATM    6  C   UNK N   1       3.370   2.250   0.037  0.00  0.00    -0.017 C 
HETATM    7  C   UNK N   1       3.518   1.429  -1.286  0.00  0.00     0.126 C 
HETATM    8  C   UNK N   1       3.156  -0.052  -1.102  0.00  0.00     0.033 C 
HETATM    9  C   UNK N   1       1.713  -0.207  -0.590  0.00  0.00     0.012 C 
HETATM   10  C   UNK N   1       1.442   0.507   0.775  0.00  0.00    -0.031 C 
HETATM   11  C   UNK N   1       2.220  -0.279   1.877  0.00  0.00     0.016 C 
HETATM   12  C   UNK N   1       3.558   3.749  -0.336  0.00  0.00     0.018 C 
HETATM   13  C   UNK N   1       4.501   1.917   1.046  0.00  0.00     0.018 C 
HETATM   14  C   UNK N   1      -0.279   0.890   3.695  0.00  0.00     0.046 C 
ENDROOT
BRANCH   1  15
HETATM   15  C   UNK N   1      -0.817  -0.876   1.217  0.00  0.00     0.184 C 
BRANCH  15  16
HETATM   16  O   UNK N   1      -0.657  -1.674   0.101  0.00  0.00    -0.351 OA
BRANCH  16  17
HETATM   17  C   UNK N   1      -1.324  -1.578  -1.080  0.00  0.00     0.071 A 
HETATM   18  C   UNK N   1      -0.904  -2.388  -2.146  0.00  0.00     0.038 A 
HETATM   19  C   UNK N   1      -1.579  -2.364  -3.369  0.00  0.00     0.017 A 
HETATM   20  C   UNK N   1      -2.692  -1.531  -3.535  0.00  0.00    -0.002 A 
HETATM   21  C   UNK N   1      -3.116  -0.701  -2.475  0.00  0.00     0.092 A 
HETATM   22  C   UNK N   1      -3.411  -1.506  -4.733  0.00  0.00     0.020 A 
HETATM   23  O   UNK N   1      -4.177   0.086  -2.623  0.00  0.00    -0.275 OA
HETATM   24  C   UNK N   1      -2.429  -0.721  -1.258  0.00  0.00     0.075 A 
HETATM   25  C   UNK N   1      -4.884   0.128  -3.752  0.00  0.00     0.288 A 
HETATM   26  O   UNK N   1      -5.851   0.860  -3.830  0.00  0.00    -0.260 OA
HETATM   27  C   UNK N   1      -4.521  -0.672  -4.843  0.00  0.00     0.083 A 
ENDBRANCH  16  17
ENDBRANCH  15  16
ENDBRANCH   1  15
BRANCH   2  28
HETATM   28  O   UNK N   1      -1.988   1.590   2.196  0.00  0.00    -0.390 OA
HETATM   29  H   UNK N   1      -2.286   2.266   2.861  0.00  0.00     0.210 HD
ENDBRANCH   2  28
BRANCH   7  30
HETATM   30  O   UNK N   1       4.826   1.544  -1.791  0.00  0.00    -0.395 OA
HETATM   31  H   UNK N   1       4.834   1.121  -2.689  0.00  0.00     0.210 HD
ENDBRANCH   7  30
TORSDOF 5
