REMARK  6 active torsions:
REMARK  status: ('A' for Active; 'I' for Inactive)
REMARK    1  A    between atoms: C_2  and  O_3 
REMARK    2  A    between atoms: C_2  and  C_21 
REMARK    3  A    between atoms: O_3  and  C_4 
REMARK    4  A    between atoms: C_6  and  O_7 
REMARK    5  A    between atoms: C_6  and  C_9 
REMARK    6  A    between atoms: C_24  and  O_25 
ROOT
HETATM    1  C   UNK N   1       2.381   0.876  -2.517  0.00  0.00     0.144 C 
HETATM    2  C   UNK N   1       2.906   0.358  -1.156  0.00  0.00     0.058 C 
HETATM    3  C   UNK N   1       4.449   0.195  -0.974  0.00  0.00     0.067 C 
HETATM    4  C   UNK N   1       4.546   0.077   0.564  0.00  0.00     0.039 C 
HETATM    5  C   UNK N   1       3.632   1.211   1.024  0.00  0.00     0.013 C 
HETATM    6  C   UNK N   1       2.370   1.039   0.152  0.00  0.00    -0.032 C 
HETATM    7  C   UNK N   1       1.599   2.364  -0.056  0.00  0.00     0.037 C 
HETATM    8  C   UNK N   1       2.336   3.478  -0.740  0.00  0.00    -0.023 C 
HETATM    9  C   UNK N   1       2.847   3.462  -1.995  0.00  0.00    -0.085 C 
HETATM   10  C   UNK N   1       2.870   2.277  -2.955  0.00  0.00     0.066 C 
HETATM   11  C   UNK N   1       3.484   4.728  -2.517  0.00  0.00     0.043 C 
HETATM   12  C   UNK N   1       1.387   0.071   0.878  0.00  0.00     0.016 C 
ENDROOT
BRANCH   1  13
HETATM   13  O   UNK N   1       1.003   0.806  -2.529  0.00  0.00    -0.311 OA
BRANCH  13  14
HETATM   14  C   UNK N   1       0.259   0.722  -3.664  0.00  0.00     0.293 C 
HETATM   15  O   UNK N   1       0.801   0.631  -4.757  0.00  0.00    -0.259 OA
BRANCH  14  16
HETATM   16  C   UNK N   1      -1.213   0.711  -3.566  0.00  0.00     0.039 A 
HETATM   17  C   UNK N   1      -1.838   0.849  -2.317  0.00  0.00     0.020 A 
HETATM   18  C   UNK N   1      -3.230   0.842  -2.222  0.00  0.00     0.038 A 
HETATM   19  C   UNK N   1      -4.018   0.693  -3.368  0.00  0.00     0.068 A 
HETATM   20  C   UNK N   1      -3.390   0.550  -4.623  0.00  0.00     0.038 A 
HETATM   21  C   UNK N   1      -1.999   0.561  -4.718  0.00  0.00     0.020 A 
BRANCH  19  22
HETATM   22  O   UNK N   1      -5.369   0.690  -3.231  0.00  0.00    -0.356 OA
HETATM   23  C   UNK N   1      -6.263   0.544  -4.272  0.00  0.00     0.210 C 
ENDBRANCH  19  22
ENDBRANCH  14  16
ENDBRANCH  13  14
ENDBRANCH   1  13
BRANCH   3  24
HETATM   24  O   UNK N   1       5.078   1.393  -1.379  0.00  0.00    -0.389 OA
HETATM   25  H   UNK N   1       5.972   1.457  -0.956  0.00  0.00     0.210 HD
ENDBRANCH   3  24
BRANCH   3  26
HETATM   26  C   UNK N   1       5.068  -1.011  -1.783  0.00  0.00     0.012 C 
HETATM   27  C   UNK N   1       6.584  -1.135  -1.554  0.00  0.00     0.012 C 
HETATM   28  C   UNK N   1       4.428  -2.387  -1.484  0.00  0.00     0.012 C 
ENDBRANCH   3  26
TORSDOF 6
