REMARK  6 active torsions:
REMARK  status: ('A' for Active; 'I' for Inactive)
REMARK    1  A    between atoms: C_2  and  O_3 
REMARK    2  A    between atoms: C_2  and  C_21 
REMARK    3  A    between atoms: O_3  and  C_4 
REMARK    4  A    between atoms: C_6  and  O_7 
REMARK    5  A    between atoms: C_6  and  C_9 
REMARK    6  A    between atoms: C_24  and  O_25 
ROOT
HETATM    1  C   UNK N   1       1.123   1.071   0.170  0.00  0.00     0.144 C 
HETATM    2  C   UNK N   1       2.547   0.876  -0.486  0.00  0.00     0.058 C 
HETATM    3  C   UNK N   1       3.117   2.087  -1.348  0.00  0.00     0.067 C 
HETATM    4  C   UNK N   1       3.822   2.893  -0.248  0.00  0.00     0.039 C 
HETATM    5  C   UNK N   1       4.662   1.825   0.424  0.00  0.00     0.013 C 
HETATM    6  C   UNK N   1       3.691   0.631   0.599  0.00  0.00    -0.032 C 
HETATM    7  C   UNK N   1       3.221   0.670   2.088  0.00  0.00     0.037 C 
HETATM    8  C   UNK N   1       2.422  -0.519   2.527  0.00  0.00    -0.023 C 
HETATM    9  C   UNK N   1       1.264  -0.910   1.975  0.00  0.00    -0.085 C 
HETATM   10  C   UNK N   1       0.586  -0.225   0.821  0.00  0.00     0.066 C 
HETATM   11  C   UNK N   1       0.567  -2.136   2.515  0.00  0.00     0.043 C 
HETATM   12  C   UNK N   1       4.449  -0.688   0.326  0.00  0.00     0.016 C 
ENDROOT
BRANCH   1  13
HETATM   13  O   UNK N   1       0.167   1.295  -0.795  0.00  0.00    -0.311 OA
BRANCH  13  14
HETATM   14  C   UNK N   1      -0.847   2.199  -0.750  0.00  0.00     0.293 C 
HETATM   15  O   UNK N   1      -0.784   3.181  -0.026  0.00  0.00    -0.259 OA
BRANCH  14  16
HETATM   16  C   UNK N   1      -2.046   1.935  -1.575  0.00  0.00     0.039 A 
HETATM   17  C   UNK N   1      -3.058   2.899  -1.726  0.00  0.00     0.020 A 
HETATM   18  C   UNK N   1      -4.180   2.617  -2.515  0.00  0.00     0.037 A 
HETATM   19  C   UNK N   1      -4.307   1.369  -3.144  0.00  0.00     0.065 A 
HETATM   20  C   UNK N   1      -3.310   0.405  -2.981  0.00  0.00     0.037 A 
HETATM   21  C   UNK N   1      -2.185   0.687  -2.207  0.00  0.00     0.020 A 
BRANCH  19  22
HETATM   22  O   UNK N   1      -5.382   1.086  -3.907  0.00  0.00    -0.361 OA
HETATM   23  H   UNK N   1      -6.085   1.734  -4.056  0.00  0.00     0.217 HD
ENDBRANCH  19  22
ENDBRANCH  14  16
ENDBRANCH  13  14
ENDBRANCH   1  13
BRANCH   3  24
HETATM   24  O   UNK N   1       4.121   1.615  -2.228  0.00  0.00    -0.389 OA
HETATM   25  H   UNK N   1       3.756   0.852  -2.746  0.00  0.00     0.210 HD
ENDBRANCH   3  24
BRANCH   3  26
HETATM   26  C   UNK N   1       2.123   2.963  -2.193  0.00  0.00     0.012 C 
HETATM   27  C   UNK N   1       2.819   4.186  -2.831  0.00  0.00     0.012 C 
HETATM   28  C   UNK N   1       1.451   2.173  -3.338  0.00  0.00     0.012 C 
ENDBRANCH   3  26
TORSDOF 6
