REMARK  5 active torsions:
REMARK  status: ('A' for Active; 'I' for Inactive)
REMARK    1  A    between atoms: C_3  and  O_4 
REMARK    2  A    between atoms: C_6  and  C_19 
REMARK    3  A    between atoms: C_10  and  O_11 
REMARK    4  A    between atoms: C_14  and  O_15 
REMARK    5  A    between atoms: C_22  and  O_23 
ROOT
HETATM    1  O   UNK N   1       4.015   1.263  -2.016  0.00  0.00    -0.284 OA
HETATM    2  C   UNK N   1       2.995   0.940  -1.436  0.00  0.00     0.223 A 
HETATM    3  C   UNK N   1       1.737   1.055  -2.078  0.00  0.00     0.154 A 
HETATM    4  C   UNK N   1       0.585   0.666  -1.364  0.00  0.00     0.123 A 
HETATM    5  O   UNK N   1       0.694   0.176  -0.133  0.00  0.00    -0.306 OA
HETATM    6  C   UNK N   1       1.849   0.070   0.510  0.00  0.00     0.096 A 
HETATM    7  C   UNK N   1       3.056   0.449  -0.109  0.00  0.00     0.085 A 
HETATM    8  C   UNK N   1       4.277   0.323   0.607  0.00  0.00     0.091 A 
HETATM    9  C   UNK N   1       4.264  -0.172   1.939  0.00  0.00     0.005 A 
HETATM   10  C   UNK N   1       3.039  -0.534   2.536  0.00  0.00     0.077 A 
HETATM   11  C   UNK N   1       1.847  -0.413   1.817  0.00  0.00     0.075 A 
HETATM   12  C   UNK N   1       5.553  -0.310   2.715  0.00  0.00     0.054 C 
ENDROOT
BRANCH   4  13
HETATM   13  C   UNK N   1      -0.775   0.763  -1.948  0.00  0.00     0.001 A 
HETATM   14  C   UNK N   1      -1.169   1.880  -2.712  0.00  0.00     0.017 A 
HETATM   15  C   UNK N   1      -2.470   1.964  -3.217  0.00  0.00     0.037 A 
HETATM   16  C   UNK N   1      -3.384   0.926  -2.988  0.00  0.00     0.065 A 
HETATM   17  C   UNK N   1      -2.994  -0.189  -2.239  0.00  0.00     0.037 A 
HETATM   18  C   UNK N   1      -1.703  -0.262  -1.707  0.00  0.00     0.017 A 
BRANCH  16  19
HETATM   19  O   UNK N   1      -4.640   0.994  -3.475  0.00  0.00    -0.361 OA
HETATM   20  H   UNK N   1      -4.948   1.759  -3.982  0.00  0.00     0.217 HD
ENDBRANCH  16  19
ENDBRANCH   4  13
BRANCH   3  21
HETATM   21  O   UNK N   1       1.592   1.473  -3.371  0.00  0.00    -0.350 OA
HETATM   22  C   UNK N   1       2.584   1.627  -4.317  0.00  0.00     0.210 C 
ENDBRANCH   3  21
BRANCH   8  23
HETATM   23  O   UNK N   1       5.442   0.678   0.015  0.00  0.00    -0.359 OA
HETATM   24  H   UNK N   1       6.305   0.617   0.444  0.00  0.00     0.218 HD
ENDBRANCH   8  23
BRANCH  10  25
HETATM   25  O   UNK N   1       3.009  -0.998   3.805  0.00  0.00    -0.360 OA
HETATM   26  H   UNK N   1       2.180  -1.244   4.240  0.00  0.00     0.217 HD
ENDBRANCH  10  25
TORSDOF 5
