REMARK  9 active torsions:
REMARK  status: ('A' for Active; 'I' for Inactive)
REMARK    1  A    between atoms: C_3  and  O_4 
REMARK    2  A    between atoms: O_4  and  C_5 
REMARK    3  A    between atoms: C_8  and  O_9 
REMARK    4  A    between atoms: C_11  and  O_12 
REMARK    5  A    between atoms: C_14  and  O_15 
REMARK    6  A    between atoms: C_18  and  C_30 
REMARK    7  A    between atoms: C_22  and  O_23 
REMARK    8  A    between atoms: C_26  and  O_28 
REMARK    9  A    between atoms: C_33  and  O_34 
ROOT
HETATM    1  O   UNK N   1       1.452   3.561   2.508  0.00  0.00    -0.284 OA
HETATM    2  C   UNK N   1       0.264   3.508   2.255  0.00  0.00     0.223 A 
HETATM    3  C   UNK N   1      -0.192   3.095   0.972  0.00  0.00     0.157 A 
HETATM    4  C   UNK N   1      -1.587   3.074   0.739  0.00  0.00     0.124 A 
HETATM    5  O   UNK N   1      -2.431   3.434   1.705  0.00  0.00    -0.306 OA
HETATM    6  C   UNK N   1      -2.041   3.790   2.922  0.00  0.00     0.096 A 
HETATM    7  C   UNK N   1      -0.673   3.850   3.248  0.00  0.00     0.084 A 
HETATM    8  C   UNK N   1      -0.289   4.238   4.558  0.00  0.00     0.085 A 
HETATM    9  C   UNK N   1      -1.267   4.525   5.514  0.00  0.00     0.074 A 
HETATM   10  C   UNK N   1      -2.622   4.435   5.191  0.00  0.00     0.071 A 
HETATM   11  C   UNK N   1      -3.008   4.078   3.892  0.00  0.00     0.075 A 
ENDROOT
BRANCH   3  12
HETATM   12  O   UNK N   1       0.659   2.745  -0.045  0.00  0.00    -0.311 OA
BRANCH  12  13
HETATM   13  C   UNK N   1       1.992   2.402   0.095  0.00  0.00     0.298 C 
HETATM   14  O   UNK N   1       2.057   1.250   0.921  0.00  0.00    -0.351 OA
HETATM   15  C   UNK N   1       3.391   0.952   1.279  0.00  0.00     0.152 C 
HETATM   16  C   UNK N   1       4.214   0.592   0.015  0.00  0.00     0.178 C 
HETATM   17  C   UNK N   1       3.354  -0.217   2.262  0.00  0.00     0.042 C 
HETATM   18  C   UNK N   1       4.122   1.750  -1.006  0.00  0.00     0.183 C 
HETATM   19  C   UNK N   1       2.642   2.108  -1.271  0.00  0.00     0.205 C 
BRANCH  16  20
HETATM   20  O   UNK N   1       5.553   0.307   0.334  0.00  0.00    -0.390 OA
HETATM   21  H   UNK N   1       5.921   1.096   0.813  0.00  0.00     0.210 HD
ENDBRANCH  16  20
BRANCH  18  22
HETATM   22  O   UNK N   1       4.806   1.453  -2.197  0.00  0.00    -0.390 OA
HETATM   23  H   UNK N   1       4.441   0.603  -2.555  0.00  0.00     0.210 HD
ENDBRANCH  18  22
BRANCH  19  24
HETATM   24  O   UNK N   1       1.989   1.037  -1.904  0.00  0.00    -0.388 OA
HETATM   25  H   UNK N   1       1.199   1.418  -2.369  0.00  0.00     0.210 HD
ENDBRANCH  19  24
ENDBRANCH  12  13
ENDBRANCH   3  12
BRANCH   4  26
HETATM   26  C   UNK N   1      -2.181   2.595  -0.535  0.00  0.00     0.001 A 
HETATM   27  C   UNK N   1      -1.644   1.490  -1.225  0.00  0.00     0.017 A 
HETATM   28  C   UNK N   1      -2.265   1.012  -2.383  0.00  0.00     0.037 A 
HETATM   29  C   UNK N   1      -3.415   1.642  -2.878  0.00  0.00     0.065 A 
HETATM   30  C   UNK N   1      -3.945   2.747  -2.205  0.00  0.00     0.037 A 
HETATM   31  C   UNK N   1      -3.343   3.210  -1.031  0.00  0.00     0.017 A 
BRANCH  29  32
HETATM   32  O   UNK N   1      -4.024   1.186  -3.992  0.00  0.00    -0.361 OA
HETATM   33  H   UNK N   1      -3.700   0.407  -4.466  0.00  0.00     0.217 HD
ENDBRANCH  29  32
ENDBRANCH   4  26
BRANCH   8  34
HETATM   34  O   UNK N   1       1.007   4.326   4.911  0.00  0.00    -0.360 OA
ATOM     35  HO  UNK N   1       1.264   4.585   5.788  1.00  0.00     0.217 HD
ENDBRANCH   8  34
BRANCH  10  36
HETATM   36  O   UNK N   1      -3.548   4.688   6.138  0.00  0.00    -0.361 OA
HETATM   37  H   UNK N   1      -4.495   4.604   5.959  0.00  0.00     0.217 HD
ENDBRANCH  10  36
TORSDOF 9
