REMARK  9 active torsions:
REMARK  status: ('A' for Active; 'I' for Inactive)
REMARK    1  A    between atoms: C_3  and  O_4 
REMARK    2  A    between atoms: O_4  and  C_5 
REMARK    3  A    between atoms: C_8  and  O_9 
REMARK    4  A    between atoms: C_11  and  O_12 
REMARK    5  A    between atoms: C_14  and  O_15 
REMARK    6  A    between atoms: C_18  and  C_30 
REMARK    7  A    between atoms: C_22  and  O_23 
REMARK    8  A    between atoms: C_26  and  O_28 
REMARK    9  A    between atoms: C_33  and  O_34 
ROOT
HETATM    1  O   UNK N   1       4.216   1.753  -1.972  0.00  0.00    -0.284 OA
HETATM    2  C   UNK N   1       3.191   2.406  -2.023  0.00  0.00     0.223 A 
HETATM    3  C   UNK N   1       1.939   1.774  -2.257  0.00  0.00     0.157 A 
HETATM    4  C   UNK N   1       0.785   2.592  -2.313  0.00  0.00     0.124 A 
HETATM    5  O   UNK N   1       0.887   3.904  -2.114  0.00  0.00    -0.306 OA
HETATM    6  C   UNK N   1       2.039   4.528  -1.910  0.00  0.00     0.096 A 
HETATM    7  C   UNK N   1       3.247   3.805  -1.861  0.00  0.00     0.084 A 
HETATM    8  C   UNK N   1       4.464   4.505  -1.652  0.00  0.00     0.085 A 
HETATM    9  C   UNK N   1       4.447   5.901  -1.505  0.00  0.00     0.074 A 
HETATM   10  C   UNK N   1       3.244   6.607  -1.559  0.00  0.00     0.071 A 
HETATM   11  C   UNK N   1       2.041   5.918  -1.758  0.00  0.00     0.075 A 
ENDROOT
BRANCH   3  12
HETATM   12  O   UNK N   1       1.803   0.414  -2.379  0.00  0.00    -0.311 OA
BRANCH  12  13
HETATM   13  C   UNK N   1       2.667  -0.545  -1.858  0.00  0.00     0.298 C 
HETATM   14  O   UNK N   1       2.777  -0.400  -0.444  0.00  0.00    -0.351 OA
HETATM   15  C   UNK N   1       1.523  -0.613   0.200  0.00  0.00     0.152 C 
HETATM   16  C   UNK N   1       1.053  -2.071  -0.004  0.00  0.00     0.178 C 
HETATM   17  C   UNK N   1       1.675  -0.285   1.685  0.00  0.00     0.042 C 
HETATM   18  C   UNK N   1       0.922  -2.331  -1.518  0.00  0.00     0.183 C 
HETATM   19  C   UNK N   1       2.244  -1.985  -2.221  0.00  0.00     0.205 C 
BRANCH  16  20
HETATM   20  O   UNK N   1      -0.186  -2.274   0.626  0.00  0.00    -0.390 OA
HETATM   21  H   UNK N   1      -0.275  -3.251   0.777  0.00  0.00     0.210 HD
ENDBRANCH  16  20
BRANCH  18  22
HETATM   22  O   UNK N   1       0.534  -3.656  -1.787  0.00  0.00    -0.390 OA
HETATM   23  H   UNK N   1       1.179  -4.262  -1.337  0.00  0.00     0.210 HD
ENDBRANCH  18  22
BRANCH  19  24
HETATM   24  O   UNK N   1       3.242  -2.880  -1.794  0.00  0.00    -0.388 OA
HETATM   25  H   UNK N   1       4.003  -2.792  -2.425  0.00  0.00     0.210 HD
ENDBRANCH  19  24
ENDBRANCH  12  13
ENDBRANCH   3  12
BRANCH   4  26
HETATM   26  C   UNK N   1      -0.576   2.055  -2.578  0.00  0.00     0.001 A 
HETATM   27  C   UNK N   1      -0.797   0.998  -3.482  0.00  0.00     0.017 A 
HETATM   28  C   UNK N   1      -2.100   0.564  -3.753  0.00  0.00     0.037 A 
HETATM   29  C   UNK N   1      -3.192   1.163  -3.110  0.00  0.00     0.065 A 
HETATM   30  C   UNK N   1      -2.976   2.202  -2.201  0.00  0.00     0.037 A 
HETATM   31  C   UNK N   1      -1.680   2.657  -1.949  0.00  0.00     0.017 A 
BRANCH  29  32
HETATM   32  O   UNK N   1      -4.452   0.755  -3.366  0.00  0.00    -0.361 OA
HETATM   33  H   UNK N   1      -4.640   0.057  -4.009  0.00  0.00     0.217 HD
ENDBRANCH  29  32
ENDBRANCH   4  26
BRANCH   8  34
HETATM   34  O   UNK N   1       5.642   3.846  -1.599  0.00  0.00    -0.360 OA
HETATM   35  H   UNK N   1       6.482   4.307  -1.461  0.00  0.00     0.217 HD
ENDBRANCH   8  34
BRANCH  10  36
HETATM   36  O   UNK N   1       3.253   7.948  -1.423  0.00  0.00    -0.361 OA
HETATM   37  H   UNK N   1       2.439   8.470  -1.464  0.00  0.00     0.217 HD
ENDBRANCH  10  36
TORSDOF 9
