REMARK  9 active torsions:
REMARK  status: ('A' for Active; 'I' for Inactive)
REMARK    1  A    between atoms: C_3  and  O_4 
REMARK    2  A    between atoms: O_4  and  C_5 
REMARK    3  A    between atoms: C_8  and  O_9 
REMARK    4  A    between atoms: C_11  and  O_12 
REMARK    5  A    between atoms: C_14  and  O_15 
REMARK    6  A    between atoms: C_17  and  C_29 
REMARK    7  A    between atoms: C_21  and  O_22 
REMARK    8  A    between atoms: C_25  and  O_27 
REMARK    9  A    between atoms: C_32  and  O_33 
ROOT
HETATM    1  O   UNK N   1      -1.882   1.419  -2.436  0.00  0.00    -0.284 OA
HETATM    2  C   UNK N   1      -1.998   0.692  -1.466  0.00  0.00     0.223 A 
HETATM    3  C   UNK N   1      -0.925   0.539  -0.569  0.00  0.00     0.157 A 
HETATM    4  C   UNK N   1      -1.092  -0.295   0.554  0.00  0.00     0.124 A 
HETATM    5  O   UNK N   1      -2.235  -0.953   0.730  0.00  0.00    -0.306 OA
HETATM    6  C   UNK N   1      -3.278  -0.827  -0.082  0.00  0.00     0.096 A 
HETATM    7  C   UNK N   1      -3.208   0.006  -1.221  0.00  0.00     0.084 A 
HETATM    8  C   UNK N   1      -4.341   0.121  -2.066  0.00  0.00     0.085 A 
HETATM    9  C   UNK N   1      -5.515  -0.582  -1.752  0.00  0.00     0.074 A 
HETATM   10  C   UNK N   1      -5.576  -1.395  -0.617  0.00  0.00     0.071 A 
HETATM   11  C   UNK N   1      -4.456  -1.519   0.213  0.00  0.00     0.075 A 
ENDROOT
BRANCH   3  12
HETATM   12  O   UNK N   1       0.275   1.137  -0.797  0.00  0.00    -0.311 OA
BRANCH  12  13
HETATM   13  C   UNK N   1       1.041   0.847  -1.916  0.00  0.00     0.297 C 
HETATM   14  O   UNK N   1       1.369  -0.539  -1.891  0.00  0.00    -0.356 OA
HETATM   15  C   UNK N   1       2.072  -0.912  -3.065  0.00  0.00     0.205 C 
HETATM   16  C   UNK N   1       3.443  -0.211  -3.129  0.00  0.00     0.173 C 
HETATM   17  C   UNK N   1       3.213   1.313  -3.104  0.00  0.00     0.182 C 
HETATM   18  C   UNK N   1       2.328   1.704  -1.898  0.00  0.00     0.205 C 
BRANCH  16  19
HETATM   19  O   UNK N   1       4.286  -0.632  -2.081  0.00  0.00    -0.391 OA
HETATM   20  H   UNK N   1       3.788  -0.588  -1.225  0.00  0.00     0.210 HD
ENDBRANCH  16  19
BRANCH  17  21
HETATM   21  O   UNK N   1       4.426   2.022  -3.123  0.00  0.00    -0.390 OA
HETATM   22  H   UNK N   1       4.895   1.842  -2.267  0.00  0.00     0.210 HD
ENDBRANCH  17  21
BRANCH  18  23
HETATM   23  O   UNK N   1       2.024   3.077  -1.920  0.00  0.00    -0.388 OA
HETATM   24  H   UNK N   1       1.519   3.261  -2.755  0.00  0.00     0.210 HD
ENDBRANCH  18  23
ENDBRANCH  12  13
ENDBRANCH   3  12
BRANCH   4  25
HETATM   25  C   UNK N   1      -0.022  -0.482   1.559  0.00  0.00     0.001 A 
HETATM   26  C   UNK N   1       0.708   0.615   2.051  0.00  0.00     0.017 A 
HETATM   27  C   UNK N   1       1.673   0.429   3.046  0.00  0.00     0.037 A 
HETATM   28  C   UNK N   1       1.939  -0.858   3.537  0.00  0.00     0.065 A 
HETATM   29  C   UNK N   1       1.228  -1.952   3.035  0.00  0.00     0.037 A 
HETATM   30  C   UNK N   1       0.239  -1.764   2.066  0.00  0.00     0.017 A 
BRANCH  28  31
HETATM   31  O   UNK N   1       2.868  -1.050   4.495  0.00  0.00    -0.361 OA
HETATM   32  H   UNK N   1       3.360  -0.312   4.883  0.00  0.00     0.217 HD
ENDBRANCH  28  31
ENDBRANCH   4  25
BRANCH   8  33
HETATM   33  O   UNK N   1      -4.306   0.902  -3.167  0.00  0.00    -0.360 OA
HETATM   34  H   UNK N   1      -5.068   0.990  -3.757  0.00  0.00     0.217 HD
ENDBRANCH   8  33
BRANCH  10  35
HETATM   35  O   UNK N   1      -6.719  -2.051  -0.330  0.00  0.00    -0.361 OA
HETATM   36  H   UNK N   1      -6.800  -2.612   0.455  0.00  0.00     0.217 HD
ENDBRANCH  10  35
TORSDOF 9
