REMARK  9 active torsions:
REMARK  status: ('A' for Active; 'I' for Inactive)
REMARK    1  A    between atoms: C_3  and  O_4 
REMARK    2  A    between atoms: O_4  and  C_5 
REMARK    3  A    between atoms: C_8  and  O_9 
REMARK    4  A    between atoms: C_11  and  O_12 
REMARK    5  A    between atoms: C_14  and  O_15 
REMARK    6  A    between atoms: C_18  and  C_30 
REMARK    7  A    between atoms: C_22  and  O_23 
REMARK    8  A    between atoms: C_26  and  O_28 
REMARK    9  A    between atoms: C_33  and  O_34 
ROOT
HETATM    1  O   UNK N   1      -4.291  -0.264  -2.455  0.00  0.00    -0.284 OA
HETATM    2  C   UNK N   1      -3.521   0.630  -2.762  0.00  0.00     0.223 A 
HETATM    3  C   UNK N   1      -2.145   0.507  -2.480  0.00  0.00     0.157 A 
HETATM    4  C   UNK N   1      -1.279   1.542  -2.876  0.00  0.00     0.124 A 
HETATM    5  O   UNK N   1      -1.764   2.640  -3.448  0.00  0.00    -0.306 OA
HETATM    6  C   UNK N   1      -3.051   2.802  -3.727  0.00  0.00     0.096 A 
HETATM    7  C   UNK N   1      -3.991   1.797  -3.406  0.00  0.00     0.084 A 
HETATM    8  C   UNK N   1      -5.358   2.001  -3.727  0.00  0.00     0.085 A 
HETATM    9  C   UNK N   1      -5.752   3.192  -4.360  0.00  0.00     0.074 A 
HETATM   10  C   UNK N   1      -4.813   4.176  -4.674  0.00  0.00     0.071 A 
HETATM   11  C   UNK N   1      -3.464   3.980  -4.356  0.00  0.00     0.075 A 
ENDROOT
BRANCH   3  12
HETATM   12  O   UNK N   1      -1.638  -0.541  -1.774  0.00  0.00    -0.311 OA
BRANCH  12  13
HETATM   13  C   UNK N   1      -2.146  -0.952  -0.543  0.00  0.00     0.298 C 
HETATM   14  O   UNK N   1      -1.329  -0.453   0.509  0.00  0.00    -0.351 OA
HETATM   15  C   UNK N   1      -0.004  -0.963   0.442  0.00  0.00     0.152 C 
HETATM   16  C   UNK N   1      -0.000  -2.495   0.645  0.00  0.00     0.178 C 
HETATM   17  C   UNK N   1       0.831  -0.256   1.509  0.00  0.00     0.042 C 
HETATM   18  C   UNK N   1      -0.886  -3.133  -0.448  0.00  0.00     0.183 C 
HETATM   19  C   UNK N   1      -2.287  -2.488  -0.449  0.00  0.00     0.205 C 
BRANCH  16  20
HETATM   20  O   UNK N   1       1.312  -2.986   0.548  0.00  0.00    -0.390 OA
HETATM   21  H   UNK N   1       1.320  -3.875   0.990  0.00  0.00     0.210 HD
ENDBRANCH  16  20
BRANCH  18  22
HETATM   22  O   UNK N   1      -0.966  -4.529  -0.309  0.00  0.00    -0.390 OA
HETATM   23  H   UNK N   1      -1.276  -4.725   0.614  0.00  0.00     0.210 HD
ENDBRANCH  18  22
BRANCH  19  24
HETATM   24  O   UNK N   1      -3.015  -2.858   0.701  0.00  0.00    -0.388 OA
HETATM   25  H   UNK N   1      -2.674  -2.350   1.481  0.00  0.00     0.210 HD
ENDBRANCH  19  24
ENDBRANCH  12  13
ENDBRANCH   3  12
BRANCH   4  26
HETATM   26  C   UNK N   1       0.179   1.454  -2.654  0.00  0.00     0.001 A 
HETATM   27  C   UNK N   1       0.890   0.297  -3.020  0.00  0.00     0.017 A 
HETATM   28  C   UNK N   1       2.276   0.240  -2.849  0.00  0.00     0.037 A 
HETATM   29  C   UNK N   1       2.962   1.327  -2.287  0.00  0.00     0.065 A 
HETATM   30  C   UNK N   1       2.254   2.473  -1.909  0.00  0.00     0.037 A 
HETATM   31  C   UNK N   1       0.872   2.545  -2.109  0.00  0.00     0.017 A 
BRANCH  29  32
HETATM   32  O   UNK N   1       4.298   1.281  -2.114  0.00  0.00    -0.361 OA
HETATM   33  H   UNK N   1       4.821   0.513  -2.385  0.00  0.00     0.217 HD
ENDBRANCH  29  32
ENDBRANCH   4  26
BRANCH   8  34
HETATM   34  O   UNK N   1      -6.285   1.065  -3.431  0.00  0.00    -0.360 OA
HETATM   35  H   UNK N   1      -7.222   1.189  -3.640  0.00  0.00     0.217 HD
ENDBRANCH   8  34
BRANCH  10  36
HETATM   36  O   UNK N   1      -5.215   5.310  -5.284  0.00  0.00    -0.361 OA
HETATM   37  H   UNK N   1      -4.590   6.011  -5.518  0.00  0.00     0.217 HD
ENDBRANCH  10  36
TORSDOF 9
