REMARK  6 active torsions:
REMARK  status: ('A' for Active; 'I' for Inactive)
REMARK    1  A    between atoms: C_5  and  O_6 
REMARK    2  A    between atoms: C_10  and  C_15 
REMARK    3  A    between atoms: C_28  and  C_29 
REMARK    4  A    between atoms: C_29  and  O_30 
REMARK    5  A    between atoms: C_29  and  C_32 
REMARK    6  A    between atoms: C_32  and  O_34 
ROOT
HETATM    1  O   UNK N   1      -0.612  -1.102  -5.009  0.00  0.00    -0.296 OA
HETATM    2  C   UNK N   1      -1.255  -0.060  -4.965  0.00  0.00     0.147 C 
HETATM    3  C   UNK N   1      -2.431   0.147  -4.022  0.00  0.00     0.032 C 
HETATM    4  C   UNK N   1      -2.149   1.465  -3.133  0.00  0.00     0.036 C 
HETATM    5  C   UNK N   1      -0.765   2.158  -3.384  0.00  0.00     0.069 C 
HETATM    6  C   UNK N   1       0.355   1.340  -2.628  0.00  0.00     0.040 C 
HETATM    7  C   UNK N   1       0.109   1.216  -1.073  0.00  0.00    -0.006 C 
HETATM    8  C   UNK N   1       1.192   0.195  -0.569  0.00  0.00     0.175 C 
HETATM    9  O   UNK N   1       2.476   0.626  -0.859  0.00  0.00    -0.310 OA
HETATM   10  C   UNK N   1       2.825   1.297  -1.986  0.00  0.00     0.260 C 
HETATM   11  C   UNK N   1       1.785   1.859  -2.923  0.00  0.00     0.119 C 
HETATM   12  O   UNK N   1       4.000   1.562  -2.178  0.00  0.00    -0.265 OA
HETATM   13  C   UNK N   1      -1.317   0.650  -0.813  0.00  0.00     0.013 C 
HETATM   14  C   UNK N   1      -2.423   1.387  -1.600  0.00  0.00     0.010 C 
HETATM   15  C   UNK N   1       0.270   2.561  -0.301  0.00  0.00     0.019 C 
HETATM   16  C   UNK N   1      -0.550   2.310  -4.933  0.00  0.00     0.058 C 
HETATM   17  C   UNK N   1      -0.877   1.078  -5.816  0.00  0.00     0.129 C 
HETATM   18  C   UNK N   1      -2.042   1.359  -6.736  0.00  0.00     0.146 C 
HETATM   19  O   UNK N   1      -1.796   1.805  -7.849  0.00  0.00    -0.296 OA
HETATM   20  C   UNK N   1      -3.498   1.340  -6.234  0.00  0.00     0.021 C 
HETATM   21  C   UNK N   1      -3.693   0.321  -4.997  0.00  0.00     0.055 C 
HETATM   22  C   UNK N   1      -3.940   2.806  -5.989  0.00  0.00     0.023 C 
HETATM   23  C   UNK N   1      -4.373   0.828  -7.420  0.00  0.00     0.023 C 
HETATM   24  C   UNK N   1      -2.568  -1.170  -3.199  0.00  0.00     0.024 C 
ENDROOT
BRANCH  21  25
HETATM   25  C   UNK N   1      -5.104   0.451  -4.301  0.00  0.00     0.224 C 
BRANCH  25  26
HETATM   26  O   UNK N   1      -5.140   1.546  -3.416  0.00  0.00    -0.385 OA
HETATM   27  H   UNK N   1      -5.732   2.242  -3.798  0.00  0.00     0.210 HD
ENDBRANCH  25  26
BRANCH  25  28
HETATM   28  C   UNK N   1      -5.521  -0.800  -3.567  0.00  0.00     0.287 C 
HETATM   29  O   UNK N   1      -5.815  -0.752  -2.381  0.00  0.00    -0.262 OA
BRANCH  28  30
HETATM   30  O   UNK N   1      -5.550  -1.982  -4.239  0.00  0.00    -0.324 OA
HETATM   31  C   UNK N   1      -5.772  -3.196  -3.624  0.00  0.00     0.213 C 
ENDBRANCH  28  30
ENDBRANCH  25  28
ENDBRANCH  21  25
BRANCH   5  32
HETATM   32  O   UNK N   1      -0.829   3.463  -2.848  0.00  0.00    -0.389 OA
HETATM   33  H   UNK N   1      -0.067   3.998  -3.188  0.00  0.00     0.210 HD
ENDBRANCH   5  32
BRANCH   8  34
HETATM   34  C   UNK N   1       1.102  -0.151   0.897  0.00  0.00    -0.004 A 
HETATM   35  C   UNK N   1       0.250  -1.072   1.474  0.00  0.00     0.151 A 
HETATM   36  O   UNK N   1       0.471  -1.110   2.769  0.00  0.00    -0.334 OA
HETATM   37  C   UNK N   1       1.428  -0.258   3.070  0.00  0.00     0.142 A 
HETATM   38  C   UNK N   1       1.863   0.368   1.922  0.00  0.00     0.036 A 
ENDBRANCH   8  34
TORSDOF 6
