REMARK  6 active torsions:
REMARK  status: ('A' for Active; 'I' for Inactive)
REMARK    1  A    between atoms: C_2  and  O_3 
REMARK    2  A    between atoms: C_2  and  C_5 
REMARK    3  A    between atoms: C_6  and  C_7 
REMARK    4  A    between atoms: C_12  and  C_13 
REMARK    5  A    between atoms: C_13  and  C_14 
REMARK    6  A    between atoms: C_14  and  O_15 
ROOT
HETATM    1  C   UNK N   1      -2.808   0.895  -1.463  0.00  0.00    -0.035 A 
HETATM    2  C   UNK N   1      -1.513   0.605  -1.963  0.00  0.00     0.021 A 
HETATM    3  C   UNK N   1      -0.435   0.637  -1.085  0.00  0.00    -0.021 A 
HETATM    4  C   UNK N   1      -0.596   0.915   0.229  0.00  0.00     0.075 A 
HETATM    5  O   UNK N   1       0.563   0.906   0.885  0.00  0.00    -0.345 OA
HETATM    6  C   UNK N   1       1.622   0.788  -0.005  0.00  0.00     0.139 C 
HETATM    7  C   UNK N   1       0.986   0.337  -1.361  0.00  0.00     0.074 C 
HETATM    8  C   UNK N   1      -1.848   1.184   0.773  0.00  0.00     0.038 A 
HETATM    9  C   UNK N   1      -2.964   1.172  -0.081  0.00  0.00     0.014 A 
ENDROOT
BRANCH   1  10
HETATM   10  C   UNK N   1      -4.012   0.927  -2.338  0.00  0.00     0.017 C 
HETATM   11  C   UNK N   1      -3.946   0.934  -3.685  0.00  0.00     0.083 C 
BRANCH  11  12
HETATM   12  C   UNK N   1      -5.153   0.995  -4.533  0.00  0.00     0.282 C 
HETATM   13  O   UNK N   1      -6.269   0.972  -4.035  0.00  0.00    -0.260 OA
BRANCH  12  14
HETATM   14  O   UNK N   1      -4.996   1.088  -5.879  0.00  0.00    -0.323 OA
HETATM   15  C   UNK N   1      -6.050   1.132  -6.765  0.00  0.00     0.213 C 
ENDBRANCH  12  14
ENDBRANCH  11  12
ENDBRANCH   1  10
BRANCH   6  16
HETATM   16  C   UNK N   1       2.754  -0.129   0.502  0.00  0.00     0.035 C 
HETATM   17  C   UNK N   1       3.256   0.352   1.872  0.00  0.00     0.015 C 
BRANCH  16  18
HETATM   18  C   UNK N   1       3.915  -0.192  -0.518  0.00  0.00     0.170 C 
BRANCH  18  19
HETATM   19  O   UNK N   1       4.402   1.086  -0.836  0.00  0.00    -0.400 OA
HETATM   20  H   UNK N   1       4.971   1.380  -0.079  0.00  0.00     0.209 HD
ENDBRANCH  18  19
ENDBRANCH  16  18
ENDBRANCH   6  16
TORSDOF 6
