REMARK  5 active torsions:
REMARK  status: ('A' for Active; 'I' for Inactive)
REMARK    1  A    between atoms: C_4  and  O_5 
REMARK    2  A    between atoms: C_7  and  O_8 
REMARK    3  A    between atoms: C_10  and  O_11 
REMARK    4  A    between atoms: C_16  and  C_18 
REMARK    5  A    between atoms: C_21  and  O_22 
ROOT
HETATM    1  O   UNK N   1       3.922   1.410  -2.116  0.00  0.00    -0.287 OA
HETATM    2  C   UNK N   1       2.948   1.074  -1.473  0.00  0.00     0.190 A 
HETATM    3  C   UNK N   1       3.048   0.620  -0.130  0.00  0.00     0.084 A 
HETATM    4  C   UNK N   1       4.276   0.493   0.604  0.00  0.00     0.118 A 
HETATM    5  C   UNK N   1       4.243  -0.002   1.928  0.00  0.00     0.133 A 
HETATM    6  C   UNK N   1       3.033  -0.365   2.531  0.00  0.00     0.106 A 
HETATM    7  C   UNK N   1       1.837  -0.221   1.818  0.00  0.00     0.078 A 
HETATM    8  C   UNK N   1       1.837   0.264   0.516  0.00  0.00     0.096 A 
HETATM    9  O   UNK N   1       0.671   0.370  -0.109  0.00  0.00    -0.309 OA
HETATM   10  C   UNK N   1       0.553   0.769  -1.368  0.00  0.00     0.090 A 
HETATM   11  C   UNK N   1       1.698   1.130  -2.088  0.00  0.00     0.094 A 
ENDROOT
BRANCH  10  12
HETATM   12  C   UNK N   1      -0.801   0.810  -1.970  0.00  0.00    -0.002 A 
HETATM   13  C   UNK N   1      -1.926   0.933  -1.136  0.00  0.00     0.017 A 
HETATM   14  C   UNK N   1      -3.212   0.973  -1.682  0.00  0.00     0.037 A 
HETATM   15  C   UNK N   1      -3.399   0.863  -3.064  0.00  0.00     0.068 A 
HETATM   16  C   UNK N   1      -2.274   0.722  -3.901  0.00  0.00     0.037 A 
HETATM   17  C   UNK N   1      -0.990   0.706  -3.360  0.00  0.00     0.017 A 
BRANCH  15  18
HETATM   18  O   UNK N   1      -4.666   0.892  -3.555  0.00  0.00    -0.356 OA
HETATM   19  C   UNK N   1      -4.994   0.759  -4.889  0.00  0.00     0.210 C 
ENDBRANCH  15  18
ENDBRANCH  10  12
BRANCH   4  20
HETATM   20  O   UNK N   1       5.487   0.819   0.093  0.00  0.00    -0.357 OA
HETATM   21  H   UNK N   1       5.669   1.179  -0.779  0.00  0.00     0.218 HD
ENDBRANCH   4  20
BRANCH   6  22
HETATM   22  O   UNK N   1       3.052  -0.852   3.802  0.00  0.00    -0.353 OA
HETATM   23  C   UNK N   1       1.939  -1.271   4.505  0.00  0.00     0.210 C 
ENDBRANCH   6  22
BRANCH   5  24
HETATM   24  O   UNK N   1       5.387  -0.140   2.637  0.00  0.00    -0.356 OA
HETATM   25  H   UNK N   1       6.255   0.093   2.280  0.00  0.00     0.218 HD
ENDBRANCH   5  24
TORSDOF 5
