REMARK  8 active torsions:
REMARK  status: ('A' for Active; 'I' for Inactive)
REMARK    1  A    between atoms: C_2  and  O_3 
REMARK    2  A    between atoms: C_2  and  C_25 
REMARK    3  A    between atoms: O_3  and  C_4 
REMARK    4  A    between atoms: C_6  and  O_7 
REMARK    5  A    between atoms: C_6  and  C_9 
REMARK    6  A    between atoms: C_16  and  O_17 
REMARK    7  A    between atoms: O_17  and  C_18 
REMARK    8  A    between atoms: C_28  and  O_29 
ROOT
HETATM    1  C   UNK N   1      -0.479   2.583   1.582  0.00  0.00     0.163 C 
HETATM    2  C   UNK N   1       0.211   3.984   1.465  0.00  0.00     0.062 C 
HETATM    3  C   UNK N   1      -0.777   5.211   1.538  0.00  0.00     0.068 C 
HETATM    4  C   UNK N   1      -1.223   5.309   0.073  0.00  0.00     0.039 C 
HETATM    5  C   UNK N   1       0.086   5.211  -0.691  0.00  0.00     0.012 C 
HETATM    6  C   UNK N   1       0.979   4.212   0.109  0.00  0.00    -0.032 C 
HETATM    7  C   UNK N   1       1.198   2.945  -0.769  0.00  0.00     0.047 C 
HETATM    8  C   UNK N   1       2.072   1.826  -0.190  0.00  0.00     0.161 C 
HETATM    9  C   UNK N   1       1.580   1.108   1.059  0.00  0.00    -0.056 C 
HETATM   10  C   UNK N   1       0.495   1.444   1.804  0.00  0.00     0.011 C 
HETATM   11  C   UNK N   1       2.420  -0.063   1.522  0.00  0.00     0.046 C 
HETATM   12  C   UNK N   1       2.348   4.891   0.383  0.00  0.00     0.016 C 
ENDROOT
BRANCH   1  13
HETATM   13  O   UNK N   1      -1.351   2.308   0.546  0.00  0.00    -0.308 OA
BRANCH  13  14
HETATM   14  C   UNK N   1      -2.458   1.523   0.666  0.00  0.00     0.294 C 
HETATM   15  O   UNK N   1      -2.720   0.978   1.729  0.00  0.00    -0.259 OA
BRANCH  14  16
HETATM   16  C   UNK N   1      -3.356   1.347  -0.497  0.00  0.00     0.039 A 
HETATM   17  C   UNK N   1      -4.522   0.566  -0.389  0.00  0.00     0.020 A 
HETATM   18  C   UNK N   1      -5.364   0.403  -1.492  0.00  0.00     0.037 A 
HETATM   19  C   UNK N   1      -5.053   1.018  -2.713  0.00  0.00     0.065 A 
HETATM   20  C   UNK N   1      -3.898   1.798  -2.823  0.00  0.00     0.037 A 
HETATM   21  C   UNK N   1      -3.054   1.963  -1.723  0.00  0.00     0.020 A 
BRANCH  19  22
HETATM   22  O   UNK N   1      -5.857   0.864  -3.785  0.00  0.00    -0.361 OA
HETATM   23  H   UNK N   1      -6.661   0.328  -3.743  0.00  0.00     0.217 HD
ENDBRANCH  19  22
ENDBRANCH  14  16
ENDBRANCH  13  14
ENDBRANCH   1  13
BRANCH   3  24
HETATM   24  O   UNK N   1      -0.060   6.390   1.840  0.00  0.00    -0.389 OA
HETATM   25  H   UNK N   1       0.477   6.229   2.659  0.00  0.00     0.210 HD
ENDBRANCH   3  24
BRANCH   3  26
HETATM   26  C   UNK N   1      -1.994   5.087   2.525  0.00  0.00     0.012 C 
HETATM   27  C   UNK N   1      -1.554   4.932   3.995  0.00  0.00     0.012 C 
HETATM   28  C   UNK N   1      -2.942   6.296   2.423  0.00  0.00     0.012 C 
ENDBRANCH   3  26
BRANCH   8  29
HETATM   29  O   UNK N   1       2.253   0.887  -1.196  0.00  0.00    -0.312 OA
BRANCH  29  30
HETATM   30  C   UNK N   1       3.438   0.649  -1.827  0.00  0.00     0.255 C 
HETATM   31  O   UNK N   1       4.432   1.316  -1.576  0.00  0.00    -0.266 OA
HETATM   32  C   UNK N   1       3.518  -0.432  -2.853  0.00  0.00     0.126 C 
ENDBRANCH  29  30
ENDBRANCH   8  29
TORSDOF 8
