REMARK  6 active torsions:
REMARK  status: ('A' for Active; 'I' for Inactive)
REMARK    1  A    between atoms: C_5  and  O_6 
REMARK    2  A    between atoms: O_6  and  C_7 
REMARK    3  A    between atoms: C_7  and  C_9 
REMARK    4  A    between atoms: C_12  and  O_13 
REMARK    5  A    between atoms: C_18  and  O_19 
REMARK    6  A    between atoms: C_18  and  C_21 
ROOT
HETATM    1  O   UNK N   1       4.091   1.797  -3.024  0.00  0.00    -0.293 OA
HETATM    2  C   UNK N   1       3.161   1.232  -2.467  0.00  0.00     0.155 C 
HETATM    3  C   UNK N   1       3.135  -0.263  -2.460  0.00  0.00    -0.018 C 
HETATM    4  C   UNK N   1       2.283  -1.024  -1.727  0.00  0.00     0.016 C 
HETATM    5  C   UNK N   1       1.204  -0.554  -0.773  0.00  0.00     0.163 C 
HETATM    6  C   UNK N   1       1.583   0.573   0.208  0.00  0.00     0.062 C 
HETATM    7  C   UNK N   1       2.739   0.312   1.217  0.00  0.00     0.068 C 
HETATM    8  C   UNK N   1       2.977   1.755   1.725  0.00  0.00     0.039 C 
HETATM    9  C   UNK N   1       3.023   2.544   0.420  0.00  0.00     0.013 C 
HETATM   10  C   UNK N   1       1.817   2.006  -0.385  0.00  0.00    -0.028 C 
HETATM   11  C   UNK N   1       2.055   2.081  -1.913  0.00  0.00     0.093 C 
HETATM   12  C   UNK N   1       0.574   2.898  -0.101  0.00  0.00     0.016 C 
HETATM   13  C   UNK N   1       4.157  -0.967  -3.327  0.00  0.00     0.052 C 
ENDROOT
BRANCH   5  14
HETATM   14  O   UNK N   1       0.049  -0.209  -1.457  0.00  0.00    -0.308 OA
BRANCH  14  15
HETATM   15  C   UNK N   1      -1.199  -0.596  -1.058  0.00  0.00     0.294 C 
HETATM   16  O   UNK N   1      -1.346  -1.261  -0.042  0.00  0.00    -0.259 OA
BRANCH  15  17
HETATM   17  C   UNK N   1      -2.389  -0.181  -1.833  0.00  0.00     0.039 A 
HETATM   18  C   UNK N   1      -2.249   0.577  -3.005  0.00  0.00     0.020 A 
HETATM   19  C   UNK N   1      -3.378   0.967  -3.731  0.00  0.00     0.038 A 
HETATM   20  C   UNK N   1      -4.662   0.610  -3.300  0.00  0.00     0.068 A 
HETATM   21  C   UNK N   1      -4.804  -0.149  -2.121  0.00  0.00     0.038 A 
HETATM   22  C   UNK N   1      -3.677  -0.541  -1.397  0.00  0.00     0.020 A 
BRANCH  20  23
HETATM   23  O   UNK N   1      -5.731   1.010  -4.037  0.00  0.00    -0.356 OA
HETATM   24  C   UNK N   1      -7.049   0.735  -3.734  0.00  0.00     0.210 C 
ENDBRANCH  20  23
ENDBRANCH  15  17
ENDBRANCH  14  15
ENDBRANCH   5  14
BRANCH   7  25
HETATM   25  O   UNK N   1       3.866  -0.139   0.493  0.00  0.00    -0.389 OA
HETATM   26  H   UNK N   1       4.689   0.098   0.993  0.00  0.00     0.210 HD
ENDBRANCH   7  25
BRANCH   7  27
HETATM   27  C   UNK N   1       2.406  -0.742   2.344  0.00  0.00     0.012 C 
HETATM   28  C   UNK N   1       3.581  -0.918   3.323  0.00  0.00     0.012 C 
HETATM   29  C   UNK N   1       1.138  -0.434   3.173  0.00  0.00     0.012 C 
ENDBRANCH   7  27
TORSDOF 6
