REMARK  6 active torsions:
REMARK  status: ('A' for Active; 'I' for Inactive)
REMARK    1  A    between atoms: C_5  and  O_6 
REMARK    2  A    between atoms: O_6  and  C_7 
REMARK    3  A    between atoms: C_7  and  C_9 
REMARK    4  A    between atoms: C_12  and  O_13 
REMARK    5  A    between atoms: C_18  and  O_19 
REMARK    6  A    between atoms: C_18  and  C_21 
ROOT
HETATM    1  O   UNK N   1       4.092   1.787  -3.008  0.00  0.00    -0.293 OA
HETATM    2  C   UNK N   1       3.156   1.226  -2.456  0.00  0.00     0.155 C 
HETATM    3  C   UNK N   1       3.124  -0.268  -2.445  0.00  0.00    -0.018 C 
HETATM    4  C   UNK N   1       2.264  -1.025  -1.716  0.00  0.00     0.016 C 
HETATM    5  C   UNK N   1       1.182  -0.548  -0.769  0.00  0.00     0.163 C 
HETATM    6  C   UNK N   1       1.566   0.580   0.210  0.00  0.00     0.062 C 
HETATM    7  C   UNK N   1       2.725   0.322   1.216  0.00  0.00     0.068 C 
HETATM    8  C   UNK N   1       2.955   1.766   1.727  0.00  0.00     0.039 C 
HETATM    9  C   UNK N   1       2.998   2.557   0.423  0.00  0.00     0.013 C 
HETATM   10  C   UNK N   1       1.799   2.012  -0.387  0.00  0.00    -0.028 C 
HETATM   11  C   UNK N   1       2.047   2.080  -1.913  0.00  0.00     0.093 C 
HETATM   12  C   UNK N   1       0.551   2.899  -0.116  0.00  0.00     0.016 C 
HETATM   13  C   UNK N   1       4.150  -0.978  -3.303  0.00  0.00     0.052 C 
ENDROOT
BRANCH   5  14
HETATM   14  O   UNK N   1       0.034  -0.195  -1.461  0.00  0.00    -0.308 OA
BRANCH  14  15
HETATM   15  C   UNK N   1      -1.221  -0.581  -1.082  0.00  0.00     0.294 C 
HETATM   16  O   UNK N   1      -1.384  -1.249  -0.070  0.00  0.00    -0.259 OA
BRANCH  15  17
HETATM   17  C   UNK N   1      -2.398  -0.157  -1.873  0.00  0.00     0.039 A 
HETATM   18  C   UNK N   1      -3.697  -0.507  -1.455  0.00  0.00     0.020 A 
HETATM   19  C   UNK N   1      -4.809  -0.105  -2.198  0.00  0.00     0.037 A 
HETATM   20  C   UNK N   1      -4.639   0.650  -3.367  0.00  0.00     0.065 A 
HETATM   21  C   UNK N   1      -3.350   1.000  -3.786  0.00  0.00     0.037 A 
HETATM   22  C   UNK N   1      -2.235   0.601  -3.043  0.00  0.00     0.020 A 
BRANCH  20  23
HETATM   23  O   UNK N   1      -5.705   1.042  -4.092  0.00  0.00    -0.361 OA
HETATM   24  H   UNK N   1      -6.609   0.817  -3.829  0.00  0.00     0.217 HD
ENDBRANCH  20  23
ENDBRANCH  15  17
ENDBRANCH  14  15
ENDBRANCH   5  14
BRANCH   7  25
HETATM   25  O   UNK N   1       3.854  -0.121   0.489  0.00  0.00    -0.389 OA
HETATM   26  H   UNK N   1       4.676   0.123   0.987  0.00  0.00     0.210 HD
ENDBRANCH   7  25
BRANCH   7  27
HETATM   27  C   UNK N   1       2.403  -0.737   2.341  0.00  0.00     0.012 C 
HETATM   28  C   UNK N   1       3.581  -0.904   3.318  0.00  0.00     0.012 C 
HETATM   29  C   UNK N   1       1.134  -0.440   3.171  0.00  0.00     0.012 C 
ENDBRANCH   7  27
TORSDOF 6
