REMARK  12 active torsions:
REMARK  status: ('A' for Active; 'I' for Inactive)
REMARK    1  A    between atoms: C_1  and  N_2 
REMARK    2  A    between atoms: O_3  and  C_21 
REMARK    3  A    between atoms: N_5  and  C_20 
REMARK    4  A    between atoms: N_5  and  C_21 
REMARK    5  A    between atoms: N_5  and  C_22 
REMARK    6  A    between atoms: O_6  and  C_30 
REMARK    7  A    between atoms: C_11  and  C_14 
REMARK    8  A    between atoms: C_17  and  C_20 
REMARK    9  A    between atoms: C_21  and  C_32 
REMARK   10  A    between atoms: C_26  and  C_28 
REMARK   11  A    between atoms: C_28  and  C_29 
REMARK   12  A    between atoms: C_29  and  C_30 
ROOT
HETATM    1  N   FEX N   1       5.124  29.065  50.481  0.00  0.00    -0.350 N 
ENDROOT
BRANCH   1   2
HETATM    2  C   FEX N   1       6.091  27.987  50.530  0.00  0.00     0.164 C 
BRANCH   2   3
HETATM    3  C   FEX N   1       6.206  27.460  51.935  0.00  0.00    -0.040 A 
HETATM    4  C   FEX N   1       5.063  26.999  52.597  0.00  0.00     0.009 A 
HETATM    5  C   FEX N   1       5.145  26.495  53.892  0.00  0.00     0.013 A 
HETATM    6  C   FEX N   1       6.379  26.428  54.553  0.00  0.00    -0.026 A 
HETATM    7  C   FEX N   1       7.532  26.887  53.888  0.00  0.00     0.013 A 
HETATM    8  C   FEX N   1       7.444  27.404  52.585  0.00  0.00     0.009 A 
BRANCH   6   9
HETATM    9  C   FEX N   1       6.448  25.872  55.927  0.00  0.00    -0.026 A 
HETATM   10  C   FEX N   1       7.674  25.759  56.599  0.00  0.00     0.014 A 
HETATM   11  C   FEX N   1       7.727  25.229  57.893  0.00  0.00     0.030 A 
HETATM   12  C   FEX N   1       6.554  24.803  58.541  0.00  0.00     0.029 A 
HETATM   13  C   FEX N   1       5.329  24.917  57.866  0.00  0.00     0.030 A 
HETATM   14  C   FEX N   1       5.277  25.444  56.575  0.00  0.00     0.014 A 
BRANCH  12  15
HETATM   15  N   FEX N   1       6.605  24.266  59.863  0.00  0.00    -0.390 N 
HETATM   16  C   FEX N   1       5.404  23.832  60.533  0.00  0.00     0.149 C 
HETATM   17  C   FEX N   1       7.859  24.147  60.565  0.00  0.00     0.149 C 
ENDBRANCH  12  15
ENDBRANCH   6   9
ENDBRANCH   2   3
ENDBRANCH   1   2
BRANCH   1  18
HETATM   18  C   FEX N   1       3.806  28.758  49.922  0.00  0.00     0.224 C 
BRANCH  18  19
HETATM   19  O   FEX N   1       3.162  27.770  50.667  0.00  0.00    -0.376 OA
HETATM   20  H   FEX N   1       3.783  27.048  50.851  0.00  0.00     0.212 HD
ENDBRANCH  18  19
BRANCH  18  21
HETATM   21  C   FEX N   1       2.829  29.901  49.631  0.00  0.00     0.034 C 
HETATM   22  C   FEX N   1       2.160  30.534  50.853  0.00  0.00     0.009 C 
HETATM   23  C   FEX N   1       1.167  31.641  50.464  0.00  0.00     0.001 C 
HETATM   24  C   FEX N   1       0.861  31.664  48.965  0.00  0.00     0.000 C 
HETATM   25  C   FEX N   1       2.152  31.835  48.150  0.00  0.00     0.001 C 
HETATM   26  C   FEX N   1       3.310  30.935  48.619  0.00  0.00     0.009 C 
ENDBRANCH  18  21
ENDBRANCH   1  18
BRANCH   1  27
HETATM   27  C   FEX N   1       5.554  30.373  50.853  0.00  0.00     0.033 A 
HETATM   28  C   FEX N   1       6.699  30.922  50.257  0.00  0.00     0.029 A 
HETATM   29  C   FEX N   1       7.187  32.165  50.666  0.00  0.00     0.003 A 
HETATM   30  C   FEX N   1       6.578  32.836  51.726  0.00  0.00     0.007 A 
HETATM   31  C   FEX N   1       5.469  32.276  52.367  0.00  0.00    -0.056 A 
HETATM   32  C   FEX N   1       4.948  31.050  51.922  0.00  0.00     0.036 A 
BRANCH  31  33
HETATM   33  C   FEX N   1       4.923  32.941  53.584  0.00  0.00     0.048 C 
BRANCH  33  34
HETATM   34  C   FEX N   1       5.311  32.117  54.806  0.00  0.00     0.115 C 
BRANCH  34  35
HETATM   35  C   FEX N   1       5.201  32.906  56.068  0.00  0.00     0.258 C 
HETATM   36  O   FEX N   1       5.883  33.913  56.219  0.00  0.00    -0.265 OA
BRANCH  35  37
HETATM   37  O   FEX N   1       4.377  32.474  57.051  0.00  0.00    -0.326 OA
HETATM   38  C   FEX N   1       4.257  33.127  58.256  0.00  0.00     0.213 C 
ENDBRANCH  35  37
ENDBRANCH  34  35
ENDBRANCH  33  34
ENDBRANCH  31  33
ENDBRANCH   1  27
TORSDOF 12
