REMARK  3 active torsions:
REMARK  status: ('A' for Active; 'I' for Inactive)
REMARK    1  A    between atoms: C_6  and  C_7 
REMARK    2  A    between atoms: C_10  and  O_11 
REMARK    3  A    between atoms: C_17  and  O_18 
ROOT
HETATM    1  O   UNK N   1       3.515   1.313  -1.696  0.00  0.00    -0.292 OA
HETATM    2  C   UNK N   1       2.474   0.939  -1.179  0.00  0.00     0.165 C 
HETATM    3  C   UNK N   1       2.448   0.425   0.211  0.00  0.00     0.043 A 
HETATM    4  C   UNK N   1       1.210   0.019   0.745  0.00  0.00     0.086 A 
HETATM    5  O   UNK N   1       0.077   0.172   0.015  0.00  0.00    -0.340 OA
HETATM    6  C   UNK N   1       0.020   1.102  -1.011  0.00  0.00     0.169 C 
HETATM    7  C   UNK N   1       1.198   0.906  -1.978  0.00  0.00     0.121 C 
HETATM    8  C   UNK N   1       1.141  -0.523   2.027  0.00  0.00     0.074 A 
HETATM    9  C   UNK N   1       2.303  -0.629   2.805  0.00  0.00     0.068 A 
HETATM   10  C   UNK N   1       3.532  -0.197   2.288  0.00  0.00     0.037 A 
HETATM   11  C   UNK N   1       3.609   0.324   0.991  0.00  0.00     0.021 A 
ENDROOT
BRANCH   6  12
HETATM   12  C   UNK N   1      -1.299   1.046  -1.728  0.00  0.00    -0.028 A 
HETATM   13  C   UNK N   1      -1.829   2.218  -2.289  0.00  0.00     0.012 A 
HETATM   14  C   UNK N   1      -3.051   2.185  -2.963  0.00  0.00     0.037 A 
HETATM   15  C   UNK N   1      -3.753   0.981  -3.085  0.00  0.00     0.065 A 
HETATM   16  C   UNK N   1      -3.227  -0.193  -2.525  0.00  0.00     0.037 A 
HETATM   17  C   UNK N   1      -2.006  -0.162  -1.851  0.00  0.00     0.012 A 
BRANCH  15  18
HETATM   18  O   UNK N   1      -4.929   0.959  -3.741  0.00  0.00    -0.361 OA
HETATM   19  H   UNK N   1      -5.433   0.139  -3.846  0.00  0.00     0.217 HD
ENDBRANCH  15  18
ENDBRANCH   6  12
BRANCH   9  20
HETATM   20  O   UNK N   1       2.242  -1.138   4.051  0.00  0.00    -0.361 OA
HETATM   21  H   UNK N   1       1.405  -1.443   4.431  0.00  0.00     0.217 HD
ENDBRANCH   9  20
TORSDOF 3
