REMARK  10 active torsions:
REMARK  status: ('A' for Active; 'I' for Inactive)
REMARK    1  A    between atoms: C_2  and  O_3 
REMARK    2  A    between atoms: C_2  and  C_5 
REMARK    3  A    between atoms: C_8  and  O_9 
REMARK    4  A    between atoms: O_9  and  C_10 
REMARK    5  A    between atoms: C_12  and  C_22 
REMARK    6  A    between atoms: C_13  and  O_14 
REMARK    7  A    between atoms: C_16  and  O_17 
REMARK    8  A    between atoms: C_19  and  O_20 
REMARK    9  A    between atoms: C_22  and  O_23 
REMARK   10  A    between atoms: C_27  and  O_28 
ROOT
HETATM    1  C   UNK N   1       2.500   1.616  -2.289  0.00  0.00     0.044 C 
HETATM    2  C   UNK N   1       1.548   1.436  -3.234  0.00  0.00     0.151 C 
HETATM    3  O   UNK N   1       0.366   0.835  -2.930  0.00  0.00    -0.331 OA
HETATM    4  C   UNK N   1      -0.120   0.818  -1.632  0.00  0.00     0.273 C 
HETATM    5  C   UNK N   1       0.986   0.259  -0.712  0.00  0.00     0.056 C 
HETATM    6  C   UNK N   1       0.670   0.388   0.793  0.00  0.00     0.020 C 
HETATM    7  C   UNK N   1       0.961   1.877   1.046  0.00  0.00     0.123 C 
HETATM    8  C   UNK N   1       2.220   2.180   0.218  0.00  0.00     0.042 C 
HETATM    9  C   UNK N   1       2.272   1.089  -0.878  0.00  0.00     0.038 C 
HETATM   10  C   UNK N   1       1.560  -0.539   1.644  0.00  0.00     0.013 C 
ENDROOT
BRANCH   4  11
HETATM   11  O   UNK N   1      -1.247  -0.029  -1.516  0.00  0.00    -0.328 OA
BRANCH  11  12
HETATM   12  C   UNK N   1      -2.323   0.372  -2.341  0.00  0.00     0.294 C 
HETATM   13  O   UNK N   1      -2.768   1.668  -1.964  0.00  0.00    -0.348 OA
HETATM   14  C   UNK N   1      -3.817   2.107  -2.815  0.00  0.00     0.179 C 
HETATM   15  C   UNK N   1      -5.069   1.222  -2.612  0.00  0.00     0.180 C 
HETATM   16  C   UNK N   1      -4.690  -0.236  -2.935  0.00  0.00     0.183 C 
HETATM   17  C   UNK N   1      -3.456  -0.652  -2.121  0.00  0.00     0.204 C 
BRANCH  14  18
HETATM   18  C   UNK N   1      -4.110   3.584  -2.509  0.00  0.00     0.198 C 
BRANCH  18  19
HETATM   19  O   UNK N   1      -4.540   3.757  -1.185  0.00  0.00    -0.398 OA
HETATM   20  H   UNK N   1      -3.736   3.672  -0.610  0.00  0.00     0.209 HD
ENDBRANCH  18  19
ENDBRANCH  14  18
BRANCH  15  21
HETATM   21  O   UNK N   1      -6.104   1.650  -3.460  0.00  0.00    -0.390 OA
HETATM   22  H   UNK N   1      -6.936   1.215  -3.139  0.00  0.00     0.210 HD
ENDBRANCH  15  21
BRANCH  16  23
HETATM   23  O   UNK N   1      -5.767  -1.108  -2.699  0.00  0.00    -0.390 OA
HETATM   24  H   UNK N   1      -6.002  -1.041  -1.735  0.00  0.00     0.210 HD
ENDBRANCH  16  23
BRANCH  17  25
HETATM   25  O   UNK N   1      -3.051  -1.936  -2.524  0.00  0.00    -0.388 OA
HETATM   26  H   UNK N   1      -2.401  -2.262  -1.849  0.00  0.00     0.210 HD
ENDBRANCH  17  25
ENDBRANCH  11  12
ENDBRANCH   4  11
BRANCH   1  27
HETATM   27  C   UNK N   1       3.768   2.318  -2.619  0.00  0.00     0.291 C 
HETATM   28  O   UNK N   1       4.668   2.367  -1.794  0.00  0.00    -0.260 OA
BRANCH  27  29
HETATM   29  O   UNK N   1       3.900   2.945  -3.819  0.00  0.00    -0.323 OA
HETATM   30  C   UNK N   1       5.033   3.635  -4.194  0.00  0.00     0.213 C 
ENDBRANCH  27  29
ENDBRANCH   1  27
BRANCH   7  31
HETATM   31  O   UNK N   1       1.121   2.219   2.397  0.00  0.00    -0.395 OA
HETATM   32  H   UNK N   1       0.250   2.041   2.838  0.00  0.00     0.210 HD
ENDBRANCH   7  31
TORSDOF 10
