REMARK  9 active torsions:
REMARK  status: ('A' for Active; 'I' for Inactive)
REMARK    1  A    between atoms: C_6  and  C_8 
REMARK    2  A    between atoms: C_10  and  O_11 
REMARK    3  A    between atoms: C_13  and  O_14 
REMARK    4  A    between atoms: C_19  and  O_20 
REMARK    5  A    between atoms: O_20  and  C_21 
REMARK    6  A    between atoms: C_24  and  O_25 
REMARK    7  A    between atoms: C_27  and  O_28 
REMARK    8  A    between atoms: C_30  and  O_31 
REMARK    9  A    between atoms: C_35  and  O_36 
ROOT
HETATM    1  O   UNK N   1      -2.346   0.485   3.691  0.00  0.00    -0.287 OA
HETATM    2  C   UNK N   1      -1.773   0.336   2.631  0.00  0.00     0.190 A 
HETATM    3  C   UNK N   1      -2.478   0.178   1.408  0.00  0.00     0.081 A 
HETATM    4  C   UNK N   1      -1.698   0.013   0.233  0.00  0.00     0.095 A 
HETATM    5  O   UNK N   1      -0.368   0.038   0.286  0.00  0.00    -0.309 OA
HETATM    6  C   UNK N   1       0.315   0.176   1.420  0.00  0.00     0.090 A 
HETATM    7  C   UNK N   1      -0.379   0.321   2.628  0.00  0.00     0.094 A 
HETATM    8  C   UNK N   1      -2.312  -0.174  -1.009  0.00  0.00     0.075 A 
HETATM    9  C   UNK N   1      -3.700  -0.175  -1.126  0.00  0.00     0.077 A 
HETATM   10  C   UNK N   1      -4.487  -0.000   0.023  0.00  0.00     0.074 A 
HETATM   11  C   UNK N   1      -3.907   0.173   1.286  0.00  0.00     0.085 A 
ENDROOT
BRANCH   9  12
HETATM   12  O   UNK N   1      -4.253  -0.321  -2.362  0.00  0.00    -0.318 OA
BRANCH  12  13
HETATM   13  C   UNK N   1      -5.489   0.193  -2.726  0.00  0.00     0.298 C 
HETATM   14  O   UNK N   1      -6.566  -0.677  -2.379  0.00  0.00    -0.351 OA
HETATM   15  C   UNK N   1      -6.712  -1.815  -3.226  0.00  0.00     0.152 C 
HETATM   16  C   UNK N   1      -6.753  -1.438  -4.732  0.00  0.00     0.178 C 
HETATM   17  C   UNK N   1      -5.724  -2.934  -2.859  0.00  0.00     0.042 C 
HETATM   18  C   UNK N   1      -5.532  -0.594  -5.132  0.00  0.00     0.183 C 
HETATM   19  C   UNK N   1      -5.491   0.629  -4.208  0.00  0.00     0.205 C 
BRANCH  16  20
HETATM   20  O   UNK N   1      -6.851  -2.577  -5.548  0.00  0.00    -0.390 OA
HETATM   21  H   UNK N   1      -7.754  -2.961  -5.396  0.00  0.00     0.210 HD
ENDBRANCH  16  20
BRANCH  18  22
HETATM   22  O   UNK N   1      -4.338  -1.324  -5.021  0.00  0.00    -0.390 OA
HETATM   23  H   UNK N   1      -4.322  -1.966  -5.778  0.00  0.00     0.210 HD
ENDBRANCH  18  22
BRANCH  19  24
HETATM   24  O   UNK N   1      -6.619   1.430  -4.457  0.00  0.00    -0.388 OA
HETATM   25  H   UNK N   1      -6.431   2.323  -4.063  0.00  0.00     0.210 HD
ENDBRANCH  19  24
ENDBRANCH  12  13
ENDBRANCH   9  12
BRANCH  11  26
HETATM   26  O   UNK N   1      -4.757   0.335   2.327  0.00  0.00    -0.360 OA
HETATM   27  H   UNK N   1      -4.519   0.491   3.245  0.00  0.00     0.217 HD
ENDBRANCH  11  26
BRANCH   6  28
HETATM   28  C   UNK N   1       1.803   0.178   1.364  0.00  0.00     0.001 A 
HETATM   29  C   UNK N   1       2.449   0.514   0.159  0.00  0.00     0.053 A 
HETATM   30  C   UNK N   1       3.847   0.534   0.077  0.00  0.00     0.099 A 
HETATM   31  C   UNK N   1       4.619   0.184   1.199  0.00  0.00     0.098 A 
HETATM   32  C   UNK N   1       3.982  -0.163   2.398  0.00  0.00     0.040 A 
HETATM   33  C   UNK N   1       2.588  -0.155   2.486  0.00  0.00     0.017 A 
BRANCH  30  34
HETATM   34  O   UNK N   1       4.431   0.892  -1.086  0.00  0.00    -0.358 OA
HETATM   35  H   UNK N   1       5.392   0.946  -1.187  0.00  0.00     0.218 HD
ENDBRANCH  30  34
BRANCH  31  36
HETATM   36  O   UNK N   1       5.966   0.179   1.119  0.00  0.00    -0.358 OA
HETATM   37  H   UNK N   1       6.520  -0.075   1.871  0.00  0.00     0.218 HD
ENDBRANCH  31  36
ENDBRANCH   6  28
TORSDOF 9
