REMARK  9 active torsions:
REMARK  status: ('A' for Active; 'I' for Inactive)
REMARK    1  A    between atoms: C_6  and  C_8 
REMARK    2  A    between atoms: C_10  and  O_11 
REMARK    3  A    between atoms: C_13  and  O_14 
REMARK    4  A    between atoms: C_19  and  O_20 
REMARK    5  A    between atoms: O_20  and  C_21 
REMARK    6  A    between atoms: C_24  and  O_25 
REMARK    7  A    between atoms: C_27  and  O_28 
REMARK    8  A    between atoms: C_30  and  O_31 
REMARK    9  A    between atoms: C_35  and  O_36 
ROOT
HETATM    1  O   UNK N   1      -5.659   0.781  -3.616  0.00  0.00    -0.287 OA
HETATM    2  C   UNK N   1      -4.750   1.329  -4.206  0.00  0.00     0.190 A 
HETATM    3  C   UNK N   1      -3.389   1.117  -3.858  0.00  0.00     0.081 A 
HETATM    4  C   UNK N   1      -2.414   1.817  -4.617  0.00  0.00     0.095 A 
HETATM    5  O   UNK N   1      -2.776   2.641  -5.598  0.00  0.00    -0.309 OA
HETATM    6  C   UNK N   1      -4.041   2.834  -5.961  0.00  0.00     0.090 A 
HETATM    7  C   UNK N   1      -5.065   2.176  -5.268  0.00  0.00     0.094 A 
HETATM    8  C   UNK N   1      -1.050   1.631  -4.370  0.00  0.00     0.075 A 
HETATM    9  C   UNK N   1      -0.618   0.740  -3.389  0.00  0.00     0.077 A 
HETATM   10  C   UNK N   1      -1.569   0.065  -2.609  0.00  0.00     0.074 A 
HETATM   11  C   UNK N   1      -2.942   0.240  -2.816  0.00  0.00     0.085 A 
ENDROOT
BRANCH   9  12
HETATM   12  O   UNK N   1       0.719   0.528  -3.232  0.00  0.00    -0.318 OA
BRANCH  12  13
HETATM   13  C   UNK N   1       1.264  -0.653  -2.740  0.00  0.00     0.298 C 
HETATM   14  O   UNK N   1       1.352  -0.648  -1.321  0.00  0.00    -0.351 OA
HETATM   15  C   UNK N   1       2.263   0.331  -0.838  0.00  0.00     0.152 C 
HETATM   16  C   UNK N   1       3.703   0.089  -1.365  0.00  0.00     0.178 C 
HETATM   17  C   UNK N   1       2.244   0.262   0.692  0.00  0.00     0.042 C 
HETATM   18  C   UNK N   1       3.671   0.067  -2.906  0.00  0.00     0.183 C 
HETATM   19  C   UNK N   1       2.629  -0.953  -3.395  0.00  0.00     0.205 C 
BRANCH  16  20
HETATM   20  O   UNK N   1       4.549   1.115  -0.912  0.00  0.00    -0.390 OA
HETATM   21  H   UNK N   1       5.477   0.854  -1.149  0.00  0.00     0.210 HD
ENDBRANCH  16  20
BRANCH  18  22
HETATM   22  O   UNK N   1       4.938  -0.198  -3.455  0.00  0.00    -0.390 OA
HETATM   23  H   UNK N   1       5.248  -1.072  -3.098  0.00  0.00     0.210 HD
ENDBRANCH  18  22
BRANCH  19  24
HETATM   24  O   UNK N   1       3.040  -2.275  -3.127  0.00  0.00    -0.388 OA
HETATM   25  H   UNK N   1       2.912  -2.465  -2.162  0.00  0.00     0.210 HD
ENDBRANCH  19  24
ENDBRANCH  12  13
ENDBRANCH   9  12
BRANCH  11  26
HETATM   26  O   UNK N   1      -3.772  -0.462  -2.008  0.00  0.00    -0.360 OA
HETATM   27  H   UNK N   1      -4.732  -0.436  -2.009  0.00  0.00     0.217 HD
ENDBRANCH  11  26
BRANCH   6  28
HETATM   28  C   UNK N   1      -4.324   3.743  -7.107  0.00  0.00     0.001 A 
HETATM   29  C   UNK N   1      -5.514   3.647  -7.860  0.00  0.00     0.053 A 
HETATM   30  C   UNK N   1      -5.740   4.498  -8.948  0.00  0.00     0.099 A 
HETATM   31  C   UNK N   1      -4.787   5.476  -9.282  0.00  0.00     0.098 A 
HETATM   32  C   UNK N   1      -3.606   5.578  -8.534  0.00  0.00     0.040 A 
HETATM   33  C   UNK N   1      -3.371   4.711  -7.466  0.00  0.00     0.017 A 
BRANCH  30  34
HETATM   34  O   UNK N   1      -6.875   4.358  -9.667  0.00  0.00    -0.358 OA
HETATM   35  H   UNK N   1      -7.065   4.903 -10.444  0.00  0.00     0.218 HD
ENDBRANCH  30  34
BRANCH  31  36
HETATM   36  O   UNK N   1      -5.007   6.311 -10.319  0.00  0.00    -0.358 OA
HETATM   37  H   UNK N   1      -4.372   6.999 -10.564  0.00  0.00     0.218 HD
ENDBRANCH  31  36
ENDBRANCH   6  28
TORSDOF 9
