REMARK  11 active torsions:
REMARK  status: ('A' for Active; 'I' for Inactive)
REMARK    1  A    between atoms: C_6  and  C_8 
REMARK    2  A    between atoms: C_10  and  O_11 
REMARK    3  A    between atoms: O_11  and  C_12 
REMARK    4  A    between atoms: C_14  and  C_24 
REMARK    5  A    between atoms: C_15  and  O_16 
REMARK    6  A    between atoms: C_18  and  O_19 
REMARK    7  A    between atoms: C_21  and  O_22 
REMARK    8  A    between atoms: C_24  and  O_25 
REMARK    9  A    between atoms: C_27  and  O_28 
REMARK   10  A    between atoms: C_33  and  O_34 
REMARK   11  A    between atoms: C_37  and  O_38 
ROOT
HETATM    1  C   UNK N   1       0.440  -0.646   0.558  0.00  0.00     0.001 A 
HETATM    2  C   UNK N   1       1.616  -0.628  -0.203  0.00  0.00     0.054 A 
HETATM    3  C   UNK N   1       2.799  -0.086   0.322  0.00  0.00     0.106 A 
HETATM    4  C   UNK N   1       2.792   0.417   1.656  0.00  0.00     0.099 A 
HETATM    5  C   UNK N   1       1.603   0.400   2.399  0.00  0.00     0.040 A 
HETATM    6  C   UNK N   1       0.435  -0.123   1.852  0.00  0.00     0.017 A 
ENDROOT
BRANCH   3   7
HETATM    7  O   UNK N   1       3.903  -0.070  -0.483  0.00  0.00    -0.315 OA
BRANCH   7   8
HETATM    8  C   UNK N   1       4.932   0.857  -0.433  0.00  0.00     0.298 C 
HETATM    9  O   UNK N   1       5.103   1.452  -1.710  0.00  0.00    -0.348 OA
HETATM   10  C   UNK N   1       6.008   2.548  -1.612  0.00  0.00     0.179 C 
HETATM   11  C   UNK N   1       7.429   2.049  -1.221  0.00  0.00     0.180 C 
HETATM   12  C   UNK N   1       7.345   1.255   0.106  0.00  0.00     0.183 C 
HETATM   13  C   UNK N   1       6.246   0.172   0.010  0.00  0.00     0.205 C 
BRANCH  10  14
HETATM   14  C   UNK N   1       6.003   3.310  -2.941  0.00  0.00     0.198 C 
BRANCH  14  15
HETATM   15  O   UNK N   1       6.841   4.430  -2.856  0.00  0.00    -0.398 OA
HETATM   16  H   UNK N   1       6.813   4.862  -3.748  0.00  0.00     0.209 HD
ENDBRANCH  14  15
ENDBRANCH  10  14
BRANCH  11  17
HETATM   17  O   UNK N   1       7.948   1.243  -2.246  0.00  0.00    -0.390 OA
HETATM   18  H   UNK N   1       8.909   1.104  -2.039  0.00  0.00     0.210 HD
ENDBRANCH  11  17
BRANCH  12  19
HETATM   19  O   UNK N   1       7.028   2.150   1.143  0.00  0.00    -0.390 OA
HETATM   20  H   UNK N   1       7.150   1.657   1.997  0.00  0.00     0.210 HD
ENDBRANCH  12  19
BRANCH  13  21
HETATM   21  O   UNK N   1       6.625  -0.880  -0.850  0.00  0.00    -0.388 OA
HETATM   22  H   UNK N   1       6.457  -0.617  -1.790  0.00  0.00     0.210 HD
ENDBRANCH  13  21
ENDBRANCH   7   8
ENDBRANCH   3   7
BRANCH   4  23
HETATM   23  O   UNK N   1       3.914   0.897   2.233  0.00  0.00    -0.358 OA
HETATM   24  H   UNK N   1       3.921   1.251   3.133  0.00  0.00     0.218 HD
ENDBRANCH   4  23
BRANCH   1  25
HETATM   25  C   UNK N   1      -0.798  -1.190  -0.004  0.00  0.00     0.090 A 
HETATM   26  O   UNK N   1      -1.585  -0.401  -0.721  0.00  0.00    -0.309 OA
HETATM   27  C   UNK N   1      -2.737  -0.813  -1.240  0.00  0.00     0.095 A 
HETATM   28  C   UNK N   1      -3.187  -2.149  -1.052  0.00  0.00     0.081 A 
HETATM   29  C   UNK N   1      -3.498   0.099  -1.972  0.00  0.00     0.075 A 
HETATM   30  C   UNK N   1      -2.351  -3.008  -0.286  0.00  0.00     0.190 A 
HETATM   31  C   UNK N   1      -4.438  -2.534  -1.636  0.00  0.00     0.085 A 
HETATM   32  O   UNK N   1      -2.644  -4.166  -0.067  0.00  0.00    -0.287 OA
HETATM   33  C   UNK N   1      -1.157  -2.514   0.238  0.00  0.00     0.094 A 
HETATM   34  C   UNK N   1      -5.175  -1.592  -2.365  0.00  0.00     0.074 A 
HETATM   35  C   UNK N   1      -4.714  -0.276  -2.537  0.00  0.00     0.073 A 
BRANCH  31  36
HETATM   36  O   UNK N   1      -4.973  -3.773  -1.530  0.00  0.00    -0.360 OA
HETATM   37  H   UNK N   1      -4.594  -4.524  -1.066  0.00  0.00     0.217 HD
ENDBRANCH  31  36
BRANCH  35  38
HETATM   38  O   UNK N   1      -5.415   0.653  -3.240  0.00  0.00    -0.356 OA
HETATM   39  C   UNK N   1      -6.628   0.431  -3.859  0.00  0.00     0.210 C 
ENDBRANCH  35  38
ENDBRANCH   1  25
TORSDOF 11
