REMARK  4 active torsions:
REMARK  status: ('A' for Active; 'I' for Inactive)
REMARK    1  A    between atoms: C_4  and  C_9 
REMARK    2  A    between atoms: C_9  and  C_10 
REMARK    3  A    between atoms: C_12  and  O_13 
REMARK    4  A    between atoms: C_16  and  O_18 
ROOT
HETATM    1  C   UNK N   1      -1.761  -0.099  -1.649  0.00  0.00    -0.047 A 
HETATM    2  C   UNK N   1      -2.639   0.073  -2.732  0.00  0.00     0.044 A 
HETATM    3  C   UNK N   1      -3.746   0.924  -2.617  0.00  0.00     0.068 A 
HETATM    4  C   UNK N   1      -3.966   1.627  -1.423  0.00  0.00     0.073 A 
HETATM    5  C   UNK N   1      -3.093   1.471  -0.344  0.00  0.00     0.068 A 
HETATM    6  C   UNK N   1      -2.002   0.600  -0.451  0.00  0.00     0.044 A 
ENDROOT
BRANCH   1   7
HETATM    7  C   UNK N   1      -0.591  -1.050  -1.756  0.00  0.00     0.103 C 
BRANCH   7   8
HETATM    8  C   UNK N   1       0.677  -0.449  -1.219  0.00  0.00     0.061 A 
HETATM    9  C   UNK N   1       1.550   0.286  -2.031  0.00  0.00     0.087 A 
HETATM   10  C   UNK N   1       2.706   0.825  -1.458  0.00  0.00     0.176 A 
HETATM   11  O   UNK N   1       3.489   1.462  -2.138  0.00  0.00    -0.288 OA
HETATM   12  C   UNK N   1       2.952   0.629  -0.097  0.00  0.00     0.087 A 
HETATM   13  C   UNK N   1       2.032  -0.109   0.657  0.00  0.00     0.053 A 
HETATM   14  O   UNK N   1       0.951  -0.617   0.074  0.00  0.00    -0.319 OA
HETATM   15  C   UNK N   1       2.230  -0.337   2.122  0.00  0.00     0.077 C 
ENDBRANCH   7   8
ENDBRANCH   1   7
BRANCH   3  16
HETATM   16  O   UNK N   1      -4.596   1.057  -3.655  0.00  0.00    -0.361 OA
HETATM   17  H   UNK N   1      -5.379   1.624  -3.601  0.00  0.00     0.217 HD
ENDBRANCH   3  16
BRANCH   5  18
HETATM   18  O   UNK N   1      -3.309   2.162   0.795  0.00  0.00    -0.361 OA
HETATM   19  H   UNK N   1      -2.710   2.092   1.552  0.00  0.00     0.217 HD
ENDBRANCH   5  18
TORSDOF 4
