REMARK  10 active torsions:
REMARK  status: ('A' for Active; 'I' for Inactive)
REMARK    1  A    between atoms: C_2  and  O_3 
REMARK    2  A    between atoms: C_2  and  C_5 
REMARK    3  A    between atoms: C_5  and  C_7 
REMARK    4  A    between atoms: C_7  and  C_8 
REMARK    5  A    between atoms: C_8  and  C_9 
REMARK    6  A    between atoms: C_10  and  O_11 
REMARK    7  A    between atoms: C_22  and  C_23 
REMARK    8  A    between atoms: C_23  and  O_24 
REMARK    9  A    between atoms: C_23  and  C_26 
REMARK   10  A    between atoms: C_26  and  O_27 
ROOT
HETATM    1  C   UNK N   1      -0.073   0.029  -2.489  0.00  0.00    -0.028 C 
HETATM    2  C   UNK N   1      -0.040  -1.020  -3.332  0.00  0.00     0.020 C 
ENDROOT
BRANCH   1   3
HETATM    3  C   UNK N   1      -1.396   0.632  -2.027  0.00  0.00     0.187 C 
HETATM    4  O   UNK N   1      -2.519  -0.023  -2.613  0.00  0.00    -0.338 OA
HETATM    5  C   UNK N   1      -3.489   0.967  -2.917  0.00  0.00     0.089 C 
HETATM    6  C   UNK N   1      -2.991   2.277  -2.279  0.00  0.00     0.046 C 
HETATM    7  C   UNK N   1      -3.562   1.107  -4.459  0.00  0.00     0.049 C 
HETATM    8  C   UNK N   1      -1.509   2.105  -2.411  0.00  0.00     0.076 C 
BRANCH   5   9
HETATM    9  C   UNK N   1      -4.857   0.560  -2.276  0.00  0.00     0.176 C 
BRANCH   9  10
HETATM   10  O   UNK N   1      -5.825   1.572  -2.412  0.00  0.00    -0.390 OA
HETATM   11  H   UNK N   1      -6.090   1.619  -3.366  0.00  0.00     0.210 HD
ENDBRANCH   9  10
BRANCH   9  12
HETATM   12  C   UNK N   1      -5.421  -0.811  -2.712  0.00  0.00     0.198 C 
BRANCH  12  13
HETATM   13  O   UNK N   1      -5.850  -0.791  -4.046  0.00  0.00    -0.398 OA
HETATM   14  H   UNK N   1      -6.315  -1.654  -4.201  0.00  0.00     0.209 HD
ENDBRANCH  12  13
ENDBRANCH   9  12
ENDBRANCH   5   9
BRANCH   3  15
HETATM   15  O   UNK N   1      -1.491   0.512  -0.628  0.00  0.00    -0.362 OA
HETATM   16  H   UNK N   1      -1.577  -0.456  -0.421  0.00  0.00     0.213 HD
ENDBRANCH   3  15
ENDBRANCH   1   3
BRANCH   1  17
HETATM   17  C   UNK N   1       1.234   0.591  -1.969  0.00  0.00     0.039 C 
BRANCH  17  18
HETATM   18  C   UNK N   1       1.753  -0.273  -0.807  0.00  0.00     0.013 C 
BRANCH  18  19
HETATM   19  C   UNK N   1       3.096   0.206  -0.165  0.00  0.00     0.028 C 
HETATM   20  C   UNK N   1       4.325   0.150  -1.178  0.00  0.00     0.058 C 
HETATM   21  C   UNK N   1       5.639   0.541  -0.455  0.00  0.00     0.038 C 
HETATM   22  C   UNK N   1       4.510  -1.216  -1.881  0.00  0.00     0.046 C 
HETATM   23  C   UNK N   1       5.883  -0.274   0.816  0.00  0.00     0.004 C 
HETATM   24  C   UNK N   1       4.738  -0.024   1.801  0.00  0.00     0.009 C 
HETATM   25  C   UNK N   1       3.356  -0.478   1.254  0.00  0.00    -0.041 C 
HETATM   26  C   UNK N   1       2.300   0.009   2.288  0.00  0.00     0.015 C 
HETATM   27  C   UNK N   1       3.272  -2.027   1.251  0.00  0.00     0.015 C 
BRANCH  20  28
HETATM   28  O   UNK N   1       4.134   1.078  -2.221  0.00  0.00    -0.390 OA
HETATM   29  H   UNK N   1       4.012   1.982  -1.827  0.00  0.00     0.210 HD
ENDBRANCH  20  28
ENDBRANCH  18  19
ENDBRANCH  17  18
ENDBRANCH   1  17
TORSDOF 10
