REMARK  11 active torsions:
REMARK  status: ('A' for Active; 'I' for Inactive)
REMARK    1  A    between atoms: C_2  and  C_28 
REMARK    2  A    between atoms: C_3  and  O_4 
REMARK    3  A    between atoms: O_4  and  C_5 
REMARK    4  A    between atoms: C_8  and  O_9 
REMARK    5  A    between atoms: C_11  and  O_12 
REMARK    6  A    between atoms: C_14  and  O_15 
REMARK    7  A    between atoms: C_21  and  O_22 
REMARK    8  A    between atoms: C_25  and  O_26 
REMARK    9  A    between atoms: C_30  and  O_31 
REMARK   10  A    between atoms: C_33  and  O_34 
REMARK   11  A    between atoms: C_36  and  O_38 
ROOT
HETATM    1  O   UNK N   1       0.439   1.395  -0.951  0.00  0.00    -0.306 OA
HETATM    2  C   UNK N   1      -0.582   1.028  -0.186  0.00  0.00     0.120 A 
HETATM    3  C   UNK N   1      -0.366   0.259   0.973  0.00  0.00     0.108 A 
HETATM    4  C   UNK N   1       0.955  -0.127   1.274  0.00  0.00     0.057 A 
HETATM    5  C   UNK N   1       2.003   0.273   0.434  0.00  0.00     0.034 A 
HETATM    6  C   UNK N   1       1.692   1.062  -0.691  0.00  0.00     0.092 A 
HETATM    7  C   UNK N   1       2.705   1.508  -1.539  0.00  0.00     0.074 A 
HETATM    8  C   UNK N   1       4.037   1.168  -1.285  0.00  0.00     0.071 A 
HETATM    9  C   UNK N   1       4.354   0.370  -0.178  0.00  0.00     0.074 A 
HETATM   10  C   UNK N   1       3.342  -0.081   0.687  0.00  0.00     0.081 A 
ENDROOT
BRANCH   3  11
HETATM   11  O   UNK N   1      -1.419  -0.077   1.771  0.00  0.00    -0.315 OA
BRANCH  11  12
HETATM   12  C   UNK N   1      -1.312  -0.356   3.125  0.00  0.00     0.297 C 
HETATM   13  O   UNK N   1      -0.814   0.813   3.763  0.00  0.00    -0.356 OA
HETATM   14  C   UNK N   1      -0.614   0.593   5.144  0.00  0.00     0.205 C 
HETATM   15  C   UNK N   1      -1.959   0.355   5.846  0.00  0.00     0.173 C 
HETATM   16  C   UNK N   1      -2.598  -0.897   5.218  0.00  0.00     0.182 C 
HETATM   17  C   UNK N   1      -2.705  -0.736   3.686  0.00  0.00     0.205 C 
BRANCH  15  18
HETATM   18  O   UNK N   1      -2.797   1.469   5.664  0.00  0.00    -0.391 OA
HETATM   19  H   UNK N   1      -2.423   2.203   6.219  0.00  0.00     0.210 HD
ENDBRANCH  15  18
BRANCH  16  20
HETATM   20  O   UNK N   1      -3.845  -1.186   5.800  0.00  0.00    -0.390 OA
HETATM   21  H   UNK N   1      -4.461  -0.437   5.589  0.00  0.00     0.210 HD
ENDBRANCH  16  20
BRANCH  17  22
HETATM   22  O   UNK N   1      -3.156  -1.946   3.133  0.00  0.00    -0.388 OA
HETATM   23  H   UNK N   1      -3.279  -1.800   2.160  0.00  0.00     0.210 HD
ENDBRANCH  17  22
ENDBRANCH  11  12
ENDBRANCH   3  11
BRANCH   2  24
HETATM   24  C   UNK N   1      -1.906   1.509  -0.575  0.00  0.00     0.006 A 
HETATM   25  C   UNK N   1      -2.362   2.740  -0.098  0.00  0.00     0.054 A 
HETATM   26  C   UNK N   1      -3.586   3.270  -0.551  0.00  0.00     0.105 A 
HETATM   27  C   UNK N   1      -4.347   2.541  -1.491  0.00  0.00     0.133 A 
HETATM   28  C   UNK N   1      -3.887   1.301  -1.968  0.00  0.00     0.105 A 
HETATM   29  C   UNK N   1      -2.658   0.793  -1.504  0.00  0.00     0.054 A 
BRANCH  26  30
HETATM   30  O   UNK N   1      -4.042   4.479  -0.121  0.00  0.00    -0.353 OA
HETATM   31  C   UNK N   1      -3.379   5.311   0.760  0.00  0.00     0.210 C 
ENDBRANCH  26  30
BRANCH  27  32
HETATM   32  O   UNK N   1      -5.517   3.030  -1.958  0.00  0.00    -0.356 OA
HETATM   33  H   UNK N   1      -5.870   3.888  -1.681  0.00  0.00     0.218 HD
ENDBRANCH  27  32
BRANCH  28  34
HETATM   34  O   UNK N   1      -4.637   0.631  -2.886  0.00  0.00    -0.353 OA
HETATM   35  C   UNK N   1      -4.289  -0.577  -3.459  0.00  0.00     0.210 C 
ENDBRANCH  28  34
ENDBRANCH   2  24
BRANCH  10  36
HETATM   36  O   UNK N   1       3.656  -0.848   1.754  0.00  0.00    -0.360 OA
HETATM   37  H   UNK N   1       4.567  -1.112   1.941  0.00  0.00     0.217 HD
ENDBRANCH  10  36
BRANCH   8  38
HETATM   38  O   UNK N   1       5.020   1.604  -2.098  0.00  0.00    -0.361 OA
HETATM   39  H   UNK N   1       4.831   2.166  -2.863  0.00  0.00     0.217 HD
ENDBRANCH   8  38
TORSDOF 11
