REMARK  8 active torsions:
REMARK  status: ('A' for Active; 'I' for Inactive)
REMARK    1  A    between atoms: C_9  and  C_13 
REMARK    2  A    between atoms: C_13  and  O_14 
REMARK    3  A    between atoms: O_14  and  C_15 
REMARK    4  A    between atoms: C_17  and  C_27 
REMARK    5  A    between atoms: C_18  and  O_19 
REMARK    6  A    between atoms: C_21  and  O_22 
REMARK    7  A    between atoms: C_24  and  O_25 
REMARK    8  A    between atoms: C_27  and  O_28 
ROOT
HETATM    1  C   UNK N   1       1.528  -0.017   1.029  0.00  0.00     0.084 C 
HETATM    2  C   UNK N   1       1.696  -1.494   1.454  0.00  0.00     0.048 C 
HETATM    3  C   UNK N   1       0.807   0.708   2.186  0.00  0.00     0.048 C 
ENDROOT
BRANCH   1   4
HETATM    4  C   UNK N   1       0.664   0.072  -0.270  0.00  0.00     0.167 C 
HETATM    5  C   UNK N   1       0.451   1.507  -0.864  0.00  0.00     0.077 C 
HETATM    6  C   UNK N   1      -0.930   1.358  -1.371  0.00  0.00    -0.021 A 
HETATM    7  C   UNK N   1      -1.665   2.241  -2.160  0.00  0.00     0.024 A 
HETATM    8  C   UNK N   1      -1.464   0.196  -0.913  0.00  0.00     0.078 A 
HETATM    9  C   UNK N   1      -2.978   1.878  -2.517  0.00  0.00    -0.001 A 
HETATM   10  C   UNK N   1      -3.528   0.648  -2.057  0.00  0.00     0.092 A 
HETATM   11  C   UNK N   1      -3.764   2.700  -3.325  0.00  0.00     0.020 A 
HETATM   12  O   UNK N   1      -4.763   0.297  -2.405  0.00  0.00    -0.275 OA
HETATM   13  C   UNK N   1      -2.762  -0.196  -1.235  0.00  0.00     0.075 A 
HETATM   14  C   UNK N   1      -5.528   1.062  -3.183  0.00  0.00     0.288 A 
HETATM   15  O   UNK N   1      -6.648   0.690  -3.478  0.00  0.00    -0.260 OA
HETATM   16  C   UNK N   1      -5.051   2.289  -3.664  0.00  0.00     0.083 A 
HETATM   17  O   UNK N   1      -0.601  -0.487  -0.164  0.00  0.00    -0.342 OA
ENDBRANCH   1   4
BRANCH   1  18
HETATM   18  O   UNK N   1       2.794   0.633   0.888  0.00  0.00    -0.346 OA
BRANCH  18  19
HETATM   19  C   UNK N   1       3.673   0.111  -0.102  0.00  0.00     0.292 C 
HETATM   20  O   UNK N   1       4.456  -0.931   0.462  0.00  0.00    -0.348 OA
HETATM   21  C   UNK N   1       5.268  -1.540  -0.534  0.00  0.00     0.179 C 
HETATM   22  C   UNK N   1       6.322  -0.522  -1.035  0.00  0.00     0.180 C 
HETATM   23  C   UNK N   1       5.597   0.716  -1.598  0.00  0.00     0.183 C 
HETATM   24  C   UNK N   1       4.591   1.261  -0.569  0.00  0.00     0.204 C 
BRANCH  21  25
HETATM   25  C   UNK N   1       5.938  -2.785   0.063  0.00  0.00     0.198 C 
BRANCH  25  26
HETATM   26  O   UNK N   1       4.973  -3.727   0.447  0.00  0.00    -0.398 OA
HETATM   27  H   UNK N   1       4.555  -3.389   1.281  0.00  0.00     0.209 HD
ENDBRANCH  25  26
ENDBRANCH  21  25
BRANCH  22  28
HETATM   28  O   UNK N   1       7.169  -1.084  -2.008  0.00  0.00    -0.390 OA
HETATM   29  H   UNK N   1       6.600  -1.385  -2.765  0.00  0.00     0.210 HD
ENDBRANCH  22  28
BRANCH  23  30
HETATM   30  O   UNK N   1       6.512   1.708  -1.991  0.00  0.00    -0.390 OA
HETATM   31  H   UNK N   1       7.007   1.998  -1.180  0.00  0.00     0.210 HD
ENDBRANCH  23  30
BRANCH  24  32
HETATM   32  O   UNK N   1       3.842   2.287  -1.169  0.00  0.00    -0.388 OA
HETATM   33  H   UNK N   1       3.296   2.710  -0.457  0.00  0.00     0.210 HD
ENDBRANCH  24  32
ENDBRANCH  18  19
ENDBRANCH   1  18
TORSDOF 8
