REMARK  4 active torsions:
REMARK  status: ('A' for Active; 'I' for Inactive)
REMARK    1  A    between atoms: C_8  and  O_10 
REMARK    2  A    between atoms: O_10  and  C_11 
REMARK    3  A    between atoms: C_11  and  C_12 
REMARK    4  A    between atoms: C_16  and  O_17 
ROOT
HETATM    1  C   UNK N   1      -2.742  -1.425  -0.896  0.00  0.00     0.047 C 
HETATM    2  C   UNK N   1      -3.327  -1.523  -2.368  0.00  0.00    -0.030 C 
HETATM    3  C   UNK N   1      -4.880  -1.843  -2.228  0.00  0.00     0.005 C 
HETATM    4  C   UNK N   1      -5.748  -1.692  -3.549  0.00  0.00    -0.017 C 
HETATM    5  C   UNK N   1      -5.448  -0.294  -4.188  0.00  0.00     0.126 C 
HETATM    6  C   UNK N   1      -3.940  -0.083  -4.425  0.00  0.00     0.033 C 
HETATM    7  C   UNK N   1      -3.171  -0.154  -3.096  0.00  0.00     0.013 C 
HETATM    8  C   UNK N   1      -5.543  -2.819  -4.598  0.00  0.00     0.018 C 
HETATM    9  C   UNK N   1      -7.259  -1.738  -3.186  0.00  0.00     0.018 C 
HETATM   10  C   UNK N   1      -5.107  -3.184  -1.466  0.00  0.00     0.010 C 
HETATM   11  C   UNK N   1      -4.470  -3.142  -0.072  0.00  0.00     0.034 C 
HETATM   12  C   UNK N   1      -3.022  -2.746  -0.177  0.00  0.00    -0.082 C 
HETATM   13  C   UNK N   1      -2.067  -3.543   0.339  0.00  0.00     0.015 C 
HETATM   14  C   UNK N   1      -2.520  -2.607  -3.158  0.00  0.00     0.016 C 
ENDROOT
BRANCH   1  15
HETATM   15  C   UNK N   1      -1.275  -0.943  -0.846  0.00  0.00     0.185 C 
BRANCH  15  16
HETATM   16  O   UNK N   1      -0.820  -0.817   0.451  0.00  0.00    -0.350 OA
BRANCH  16  17
HETATM   17  C   UNK N   1       0.441  -0.409   0.758  0.00  0.00     0.071 A 
HETATM   18  C   UNK N   1       0.835  -0.374   2.102  0.00  0.00     0.038 A 
HETATM   19  C   UNK N   1       2.126   0.038   2.453  0.00  0.00     0.017 A 
HETATM   20  C   UNK N   1       3.034   0.421   1.456  0.00  0.00    -0.002 A 
HETATM   21  C   UNK N   1       2.647   0.388   0.101  0.00  0.00     0.092 A 
HETATM   22  C   UNK N   1       4.330   0.841   1.767  0.00  0.00     0.020 A 
HETATM   23  O   UNK N   1       3.500   0.749  -0.854  0.00  0.00    -0.275 OA
HETATM   24  C   UNK N   1       1.363  -0.024  -0.242  0.00  0.00     0.075 A 
HETATM   25  C   UNK N   1       4.739   1.154  -0.587  0.00  0.00     0.288 A 
HETATM   26  O   UNK N   1       5.479   1.473  -1.498  0.00  0.00    -0.260 OA
HETATM   27  C   UNK N   1       5.192   1.212   0.737  0.00  0.00     0.083 A 
ENDBRANCH  16  17
ENDBRANCH  15  16
ENDBRANCH   1  15
BRANCH   5  28
HETATM   28  O   UNK N   1      -5.925   0.731  -3.348  0.00  0.00    -0.395 OA
HETATM   29  H   UNK N   1      -5.889   1.575  -3.870  0.00  0.00     0.210 HD
ENDBRANCH   5  28
TORSDOF 4
