REMARK  4 active torsions:
REMARK  status: ('A' for Active; 'I' for Inactive)
REMARK    1  A    between atoms: C_7  and  O_8 
REMARK    2  A    between atoms: O_8  and  C_9 
REMARK    3  A    between atoms: C_16  and  O_17 
REMARK    4  A    between atoms: O_17  and  C_18 
ROOT
HETATM    1  O   UNK N   1      -4.630   0.850  -2.864  0.00  0.00    -0.265 OA
HETATM    2  C   UNK N   1      -3.667   0.396  -2.268  0.00  0.00     0.263 C 
HETATM    3  O   UNK N   1      -2.494   1.038  -2.214  0.00  0.00    -0.315 OA
HETATM    4  C   UNK N   1      -1.636   0.445  -1.315  0.00  0.00     0.142 C 
HETATM    5  C   UNK N   1      -0.178   0.513  -1.826  0.00  0.00     0.030 C 
HETATM    6  C   UNK N   1       0.494   1.859  -1.533  0.00  0.00     0.018 C 
HETATM    7  C   UNK N   1       1.959   1.582  -1.871  0.00  0.00     0.136 C 
HETATM    8  C   UNK N   1       2.197   0.115  -1.467  0.00  0.00     0.042 C 
HETATM    9  C   UNK N   1       0.803  -0.484  -1.203  0.00  0.00     0.026 C 
HETATM   10  C   UNK N   1       0.497  -0.812   0.257  0.00  0.00    -0.055 C 
HETATM   11  C   UNK N   1       1.054  -0.145   1.291  0.00  0.00     0.017 C 
HETATM   12  C   UNK N   1      -0.438  -1.991   0.488  0.00  0.00     0.161 C 
HETATM   13  C   UNK N   1      -1.912  -1.628   0.248  0.00  0.00     0.045 C 
HETATM   14  C   UNK N   1      -2.222  -0.979  -1.124  0.00  0.00     0.032 C 
HETATM   15  C   UNK N   1      -3.734  -0.758  -1.339  0.00  0.00     0.088 C 
HETATM   16  C   UNK N   1      -4.440  -1.993  -1.902  0.00  0.00     0.021 C 
HETATM   17  C   UNK N   1      -0.082   3.044  -2.318  0.00  0.00     0.013 C 
ENDROOT
BRANCH   7  18
HETATM   18  O   UNK N   1       2.788   2.469  -1.209  0.00  0.00    -0.316 OA
BRANCH  18  19
HETATM   19  C   UNK N   1       4.143   2.452  -1.274  0.00  0.00     0.255 C 
HETATM   20  O   UNK N   1       4.728   1.652  -1.992  0.00  0.00    -0.266 OA
HETATM   21  C   UNK N   1       4.921   3.410  -0.435  0.00  0.00     0.126 C 
ENDBRANCH  18  19
ENDBRANCH   7  18
BRANCH  12  22
HETATM   22  O   UNK N   1      -0.297  -2.503   1.769  0.00  0.00    -0.312 OA
BRANCH  22  23
HETATM   23  C   UNK N   1       0.538  -3.530   2.086  0.00  0.00     0.255 C 
HETATM   24  O   UNK N   1       1.249  -4.049   1.236  0.00  0.00    -0.266 OA
HETATM   25  C   UNK N   1       0.601  -4.012   3.496  0.00  0.00     0.126 C 
ENDBRANCH  22  23
ENDBRANCH  12  22
TORSDOF 4
