REMARK  11 active torsions:
REMARK  status: ('A' for Active; 'I' for Inactive)
REMARK    1  A    between atoms: C_2  and  O_3 
REMARK    2  A    between atoms: C_2  and  C_5 
REMARK    3  A    between atoms: C_6  and  C_7 
REMARK    4  A    between atoms: C_9  and  O_10 
REMARK    5  A    between atoms: C_12  and  O_13 
REMARK    6  A    between atoms: O_13  and  C_14 
REMARK    7  A    between atoms: C_16  and  C_26 
REMARK    8  A    between atoms: C_17  and  O_18 
REMARK    9  A    between atoms: C_20  and  O_21 
REMARK   10  A    between atoms: C_23  and  O_24 
REMARK   11  A    between atoms: C_26  and  O_27 
ROOT
HETATM    1  C   UNK N   1      -2.214  -0.656  -0.718  0.00  0.00     0.298 C 
HETATM    2  O   UNK N   1      -2.856   0.544  -0.307  0.00  0.00    -0.348 OA
HETATM    3  C   UNK N   1      -3.593   1.110  -1.387  0.00  0.00     0.179 C 
HETATM    4  C   UNK N   1      -4.730   0.154  -1.836  0.00  0.00     0.180 C 
HETATM    5  C   UNK N   1      -4.125  -1.199  -2.241  0.00  0.00     0.183 C 
HETATM    6  C   UNK N   1      -3.262  -1.722  -1.086  0.00  0.00     0.205 C 
ENDROOT
BRANCH   1   7
HETATM    7  O   UNK N   1      -1.436  -1.159   0.310  0.00  0.00    -0.315 OA
BRANCH   7   8
HETATM    8  C   UNK N   1      -0.191  -0.726   0.654  0.00  0.00     0.105 A 
HETATM    9  C   UNK N   1       0.572  -1.496   1.557  0.00  0.00     0.099 A 
HETATM   10  C   UNK N   1       1.875  -1.099   1.891  0.00  0.00     0.051 A 
HETATM   11  C   UNK N   1       2.441   0.038   1.305  0.00  0.00    -0.033 A 
HETATM   12  C   UNK N   1       1.666   0.822   0.432  0.00  0.00     0.014 A 
HETATM   13  C   UNK N   1       0.362   0.448   0.112  0.00  0.00     0.040 A 
BRANCH   9  14
HETATM   14  O   UNK N   1       0.080  -2.633   2.091  0.00  0.00    -0.358 OA
HETATM   15  H   UNK N   1      -0.799  -2.972   1.867  0.00  0.00     0.218 HD
ENDBRANCH   9  14
BRANCH  11  16
HETATM   16  C   UNK N   1       3.836   0.424   1.638  0.00  0.00     0.017 C 
HETATM   17  C   UNK N   1       4.756   0.853   0.743  0.00  0.00     0.083 C 
BRANCH  17  18
HETATM   18  C   UNK N   1       4.591   0.823  -0.736  0.00  0.00     0.282 C 
HETATM   19  O   UNK N   1       5.435   1.359  -1.440  0.00  0.00    -0.260 OA
BRANCH  18  20
HETATM   20  O   UNK N   1       3.606   0.074  -1.299  0.00  0.00    -0.323 OA
HETATM   21  C   UNK N   1       3.476  -0.150  -2.652  0.00  0.00     0.213 C 
ENDBRANCH  18  20
ENDBRANCH  17  18
ENDBRANCH  11  16
ENDBRANCH   7   8
ENDBRANCH   1   7
BRANCH   6  22
HETATM   22  O   UNK N   1      -2.649  -2.940  -1.431  0.00  0.00    -0.388 OA
HETATM   23  H   UNK N   1      -2.006  -2.760  -2.166  0.00  0.00     0.210 HD
ENDBRANCH   6  22
BRANCH   3  24
HETATM   24  C   UNK N   1      -4.181   2.454  -0.937  0.00  0.00     0.198 C 
BRANCH  24  25
HETATM   25  O   UNK N   1      -3.150   3.315  -0.542  0.00  0.00    -0.398 OA
HETATM   26  H   UNK N   1      -3.589   4.164  -0.275  0.00  0.00     0.209 HD
ENDBRANCH  24  25
ENDBRANCH   3  24
BRANCH   5  27
HETATM   27  O   UNK N   1      -5.135  -2.130  -2.529  0.00  0.00    -0.390 OA
HETATM   28  H   UNK N   1      -5.385  -2.001  -3.481  0.00  0.00     0.210 HD
ENDBRANCH   5  27
BRANCH   4  29
HETATM   29  O   UNK N   1      -5.424   0.712  -2.923  0.00  0.00    -0.390 OA
HETATM   30  H   UNK N   1      -6.314   0.273  -2.955  0.00  0.00     0.210 HD
ENDBRANCH   4  29
TORSDOF 11
