REMARK  6 active torsions:
REMARK  status: ('A' for Active; 'I' for Inactive)
REMARK    1  A    between atoms: C_2  and  O_3 
REMARK    2  A    between atoms: C_2  and  C_15 
REMARK    3  A    between atoms: O_3  and  C_4 
REMARK    4  A    between atoms: C_15  and  C_16 
REMARK    5  A    between atoms: C_15  and  C_19 
REMARK    6  A    between atoms: C_16  and  O_17 
ROOT
HETATM    1  O   UNK N   1       0.572   1.948  -0.531  0.00  0.00    -0.264 OA
HETATM    2  C   UNK N   1       0.991   0.873  -0.936  0.00  0.00     0.270 C 
ENDROOT
BRANCH   2   3
HETATM    3  O   UNK N   1       0.212   0.053  -1.678  0.00  0.00    -0.315 OA
BRANCH   3   4
HETATM    4  C   UNK N   1      -1.017   0.353  -2.223  0.00  0.00     0.136 C 
HETATM    5  C   UNK N   1      -1.741  -0.990  -2.533  0.00  0.00     0.069 C 
HETATM    6  C   UNK N   1      -2.906  -0.783  -3.547  0.00  0.00     0.224 C 
HETATM    7  N   UNK N   1      -2.378  -0.200  -4.816  0.00  0.00    -0.061 N 
HETATM    8  C   UNK N   1      -3.832   0.291  -2.916  0.00  0.00     0.184 A 
HETATM    9  C   UNK N   1      -1.160  -0.885  -5.365  0.00  0.00     0.273 C 
HETATM   10  C   UNK N   1      -3.363  -0.307  -5.938  0.00  0.00     0.273 C 
HETATM   11  C   UNK N   1      -2.153   1.209  -4.371  0.00  0.00     0.224 C 
HETATM   12  C   UNK N   1      -3.347   1.579  -3.450  0.00  0.00     0.184 A 
HETATM   13  C   UNK N   1      -0.877   1.293  -3.466  0.00  0.00     0.069 C 
HETATM   14  O   UNK N   1      -4.602   1.054  -3.815  0.00  0.00    -0.371 OA
ENDBRANCH   3   4
ENDBRANCH   2   3
BRANCH   2  15
HETATM   15  C   UNK N   1       2.359   0.382  -0.552  0.00  0.00     0.142 C 
BRANCH  15  16
HETATM   16  C   UNK N   1       3.477   1.350  -0.978  0.00  0.00     0.183 C 
BRANCH  16  17
HETATM   17  O   UNK N   1       3.450   1.521  -2.369  0.00  0.00    -0.400 OA
HETATM   18  H   UNK N   1       4.185   2.153  -2.582  0.00  0.00     0.209 HD
ENDBRANCH  16  17
ENDBRANCH  15  16
BRANCH  15  19
HETATM   19  C   UNK N   1       2.370   0.009   0.918  0.00  0.00    -0.043 A 
HETATM   20  C   UNK N   1       2.034  -1.309   1.286  0.00  0.00     0.008 A 
HETATM   21  C   UNK N   1       2.017  -1.687   2.630  0.00  0.00     0.001 A 
HETATM   22  C   UNK N   1       2.340  -0.759   3.621  0.00  0.00     0.000 A 
HETATM   23  C   UNK N   1       2.672   0.552   3.270  0.00  0.00     0.001 A 
HETATM   24  C   UNK N   1       2.681   0.941   1.926  0.00  0.00     0.008 A 
ENDBRANCH  15  19
ENDBRANCH   2  15
TORSDOF 6
