REMARK  5 active torsions:
REMARK  status: ('A' for Active; 'I' for Inactive)
REMARK    1  A    between atoms: C_3  and  C_24 
REMARK    2  A    between atoms: C_5  and  O_6 
REMARK    3  A    between atoms: C_11  and  C_12 
REMARK    4  A    between atoms: C_12  and  O_14 
REMARK    5  A    between atoms: C_24  and  O_25 
ROOT
HETATM    1  O   UNK N   1      -3.882  -1.139  -1.118  0.00  0.00    -0.293 OA
HETATM    2  C   UNK N   1      -3.074  -0.269  -0.829  0.00  0.00     0.158 C 
HETATM    3  C   UNK N   1      -3.310   1.151  -1.238  0.00  0.00     0.020 C 
HETATM    4  C   UNK N   1      -2.298   2.051  -1.082  0.00  0.00     0.025 C 
HETATM    5  C   UNK N   1      -0.920   1.675  -0.536  0.00  0.00     0.081 C 
HETATM    6  C   UNK N   1      -0.644   0.140  -0.733  0.00  0.00     0.039 C 
HETATM    7  C   UNK N   1       0.805  -0.310  -0.269  0.00  0.00    -0.032 C 
HETATM    8  C   UNK N   1       1.823   0.556  -1.114  0.00  0.00     0.012 C 
HETATM    9  C   UNK N   1       3.340   0.123  -1.063  0.00  0.00     0.049 C 
HETATM   10  C   UNK N   1       3.428  -1.400  -1.365  0.00  0.00     0.020 C 
HETATM   11  C   UNK N   1       2.506  -2.250  -0.482  0.00  0.00     0.002 C 
HETATM   12  C   UNK N   1       1.039  -1.805  -0.652  0.00  0.00     0.010 C 
HETATM   13  C   UNK N   1       4.058   0.456   0.276  0.00  0.00     0.026 C 
HETATM   14  C   UNK N   1       1.596   2.074  -0.887  0.00  0.00     0.010 C 
HETATM   15  C   UNK N   1       0.169   2.467  -1.302  0.00  0.00     0.043 C 
HETATM   16  C   UNK N   1       0.949  -0.170   1.280  0.00  0.00     0.016 C 
HETATM   17  C   UNK N   1      -1.809  -0.653  -0.118  0.00  0.00     0.092 C 
ENDROOT
BRANCH   3  18
HETATM   18  C   UNK N   1      -4.676   1.536  -1.847  0.00  0.00     0.081 C 
HETATM   19  C   UNK N   1      -4.766   3.010  -2.306  0.00  0.00     0.051 C 
HETATM   20  C   UNK N   1      -5.788   1.288  -0.802  0.00  0.00     0.051 C 
BRANCH  18  21
HETATM   21  O   UNK N   1      -4.878   0.709  -2.971  0.00  0.00    -0.386 OA
HETATM   22  H   UNK N   1      -5.788   0.880  -3.329  0.00  0.00     0.211 HD
ENDBRANCH  18  21
ENDBRANCH   3  18
BRANCH   5  23
HETATM   23  O   UNK N   1      -0.893   2.013   0.829  0.00  0.00    -0.385 OA
HETATM   24  H   UNK N   1      -1.049   2.991   0.914  0.00  0.00     0.211 HD
ENDBRANCH   5  23
BRANCH   9  25
HETATM   25  C   UNK N   1       4.074   0.840  -2.202  0.00  0.00     0.267 C 
HETATM   26  O   UNK N   1       5.025   1.576  -1.978  0.00  0.00    -0.264 OA
BRANCH  25  27
HETATM   27  O   UNK N   1       3.643   0.648  -3.479  0.00  0.00    -0.326 OA
HETATM   28  C   UNK N   1       4.209   1.254  -4.577  0.00  0.00     0.213 C 
ENDBRANCH  25  27
ENDBRANCH   9  25
TORSDOF 5
