REMARK  10 active torsions:
REMARK  status: ('A' for Active; 'I' for Inactive)
REMARK    1  A    between atoms: C_2  and  O_3 
REMARK    2  A    between atoms: C_2  and  C_5 
REMARK    3  A    between atoms: C_8  and  O_9 
REMARK    4  A    between atoms: O_9  and  C_10 
REMARK    5  A    between atoms: C_12  and  C_22 
REMARK    6  A    between atoms: C_13  and  O_14 
REMARK    7  A    between atoms: C_16  and  O_17 
REMARK    8  A    between atoms: C_19  and  O_20 
REMARK    9  A    between atoms: C_22  and  O_23 
REMARK   10  A    between atoms: C_26  and  O_27 
ROOT
HETATM    1  C   UNK N   1       1.791   1.337  -0.942  0.00  0.00     0.042 C 
HETATM    2  C   UNK N   1       0.707   1.722  -0.224  0.00  0.00     0.152 C 
HETATM    3  O   UNK N   1      -0.168   0.807   0.277  0.00  0.00    -0.331 OA
HETATM    4  C   UNK N   1      -0.312  -0.454  -0.281  0.00  0.00     0.276 C 
HETATM    5  C   UNK N   1       1.077  -1.094  -0.439  0.00  0.00     0.084 C 
HETATM    6  C   UNK N   1       1.807  -1.611   0.826  0.00  0.00     0.063 C 
HETATM    7  C   UNK N   1       3.212  -1.813   0.237  0.00  0.00     0.039 C 
HETATM    8  C   UNK N   1       3.458  -0.525  -0.540  0.00  0.00     0.013 C 
HETATM    9  C   UNK N   1       2.083  -0.149  -1.151  0.00  0.00     0.039 C 
HETATM   10  C   UNK N   1       1.807  -0.637   2.026  0.00  0.00     0.046 C 
ENDROOT
BRANCH   4  11
HETATM   11  O   UNK N   1      -0.897  -0.357  -1.570  0.00  0.00    -0.328 OA
BRANCH  11  12
HETATM   12  C   UNK N   1      -2.208   0.188  -1.533  0.00  0.00     0.294 C 
HETATM   13  O   UNK N   1      -3.046  -0.576  -0.673  0.00  0.00    -0.348 OA
HETATM   14  C   UNK N   1      -4.338   0.008  -0.584  0.00  0.00     0.179 C 
HETATM   15  C   UNK N   1      -5.058  -0.096  -1.949  0.00  0.00     0.180 C 
HETATM   16  C   UNK N   1      -4.218   0.633  -3.016  0.00  0.00     0.183 C 
HETATM   17  C   UNK N   1      -2.769   0.121  -2.970  0.00  0.00     0.204 C 
BRANCH  14  18
HETATM   18  C   UNK N   1      -5.129  -0.725   0.508  0.00  0.00     0.198 C 
BRANCH  18  19
HETATM   19  O   UNK N   1      -4.460  -0.605   1.733  0.00  0.00    -0.398 OA
HETATM   20  H   UNK N   1      -5.009  -1.100   2.395  0.00  0.00     0.209 HD
ENDBRANCH  18  19
ENDBRANCH  14  18
BRANCH  15  21
HETATM   21  O   UNK N   1      -6.333   0.490  -1.857  0.00  0.00    -0.390 OA
HETATM   22  H   UNK N   1      -6.871   0.143  -2.615  0.00  0.00     0.210 HD
ENDBRANCH  15  21
BRANCH  16  23
HETATM   23  O   UNK N   1      -4.739   0.406  -4.301  0.00  0.00    -0.390 OA
HETATM   24  H   UNK N   1      -5.565   0.947  -4.387  0.00  0.00     0.210 HD
ENDBRANCH  16  23
BRANCH  17  25
HETATM   25  O   UNK N   1      -1.957   0.839  -3.865  0.00  0.00    -0.388 OA
HETATM   26  H   UNK N   1      -1.938   1.785  -3.560  0.00  0.00     0.210 HD
ENDBRANCH  17  25
ENDBRANCH  11  12
ENDBRANCH   4  11
BRANCH   6  27
HETATM   27  O   UNK N   1       1.302  -2.854   1.252  0.00  0.00    -0.390 OA
HETATM   28  H   UNK N   1       0.331  -2.746   1.422  0.00  0.00     0.210 HD
ENDBRANCH   6  27
BRANCH   1  29
HETATM   29  C   UNK N   1       2.712   2.357  -1.520  0.00  0.00     0.174 C 
HETATM   30  O   UNK N   1       2.505   3.549  -1.349  0.00  0.00    -0.646 OA
BRANCH  29  31
HETATM   31  O   UNK N   1       3.779   1.962  -2.248  0.00  0.00    -0.773 OA
HETATM   32  H   UNK N   1       4.388   2.608  -2.635  0.00  0.00     0.167 HD
ENDBRANCH  29  31
ENDBRANCH   1  29
TORSDOF 10
