REMARK  8 active torsions:
REMARK  status: ('A' for Active; 'I' for Inactive)
REMARK       I    between atoms: C_2  and  N_3 
REMARK    1  A    between atoms: C_2  and  C_15 
REMARK    2  A    between atoms: N_3  and  C_4 
REMARK    3  A    between atoms: C_4  and  C_5 
REMARK    4  A    between atoms: C_5  and  C_6 
REMARK    5  A    between atoms: C_9  and  O_10 
REMARK    6  A    between atoms: C_16  and  C_17 
REMARK    7  A    between atoms: C_19  and  O_20 
REMARK    8  A    between atoms: C_22  and  O_23 
ROOT
HETATM    1  O   UNK N   1       3.343   1.864  -2.258  0.00  0.00    -0.269 OA
HETATM    2  C   UNK N   1       2.210   1.944  -1.808  0.00  0.00     0.241 C 
HETATM    3  N   UNK N   1       1.229   2.591  -2.496  0.00  0.00    -0.357 N 
HETATM    4  H   UNK N   1       0.275   2.603  -2.105  0.00  0.00     0.162 HD
ENDROOT
BRANCH   2   5
HETATM    5  C   UNK N   1       1.864   1.308  -0.516  0.00  0.00     0.075 C 
HETATM    6  C   UNK N   1       2.755   0.627   0.229  0.00  0.00     0.017 C 
BRANCH   6   7
HETATM    7  C   UNK N   1       2.413   0.014   1.549  0.00  0.00    -0.033 A 
HETATM    8  C   UNK N   1       1.089  -0.054   2.039  0.00  0.00     0.050 A 
HETATM    9  C   UNK N   1       0.819  -0.602   3.295  0.00  0.00     0.099 A 
HETATM   10  C   UNK N   1       1.871  -1.091   4.087  0.00  0.00     0.098 A 
HETATM   11  C   UNK N   1       3.185  -1.041   3.601  0.00  0.00     0.040 A 
HETATM   12  C   UNK N   1       3.453  -0.498   2.341  0.00  0.00     0.014 A 
BRANCH   9  13
HETATM   13  O   UNK N   1      -0.459  -0.645   3.729  0.00  0.00    -0.358 OA
HETATM   14  H   UNK N   1      -0.704  -1.011   4.590  0.00  0.00     0.218 HD
ENDBRANCH   9  13
BRANCH  10  15
HETATM   15  O   UNK N   1       1.614  -1.603   5.309  0.00  0.00    -0.358 OA
HETATM   16  H   UNK N   1       2.320  -1.930   5.884  0.00  0.00     0.218 HD
ENDBRANCH  10  15
ENDBRANCH   6   7
ENDBRANCH   2   5
BRANCH   3  17
HETATM   17  C   UNK N   1       1.433   3.209  -3.792  0.00  0.00     0.127 C 
BRANCH  17  18
HETATM   18  C   UNK N   1       0.798   2.340  -4.884  0.00  0.00     0.058 C 
BRANCH  18  19
HETATM   19  C   UNK N   1      -0.652   2.022  -4.616  0.00  0.00    -0.057 A 
HETATM   20  C   UNK N   1      -1.669   2.871  -5.078  0.00  0.00     0.010 A 
HETATM   21  C   UNK N   1      -3.011   2.558  -4.831  0.00  0.00     0.037 A 
HETATM   22  C   UNK N   1      -3.346   1.401  -4.117  0.00  0.00     0.065 A 
HETATM   23  C   UNK N   1      -2.332   0.554  -3.649  0.00  0.00     0.037 A 
HETATM   24  C   UNK N   1      -0.993   0.860  -3.900  0.00  0.00     0.010 A 
BRANCH  22  25
HETATM   25  O   UNK N   1      -4.643   1.111  -3.887  0.00  0.00    -0.361 OA
HETATM   26  H   UNK N   1      -4.907   0.318  -3.399  0.00  0.00     0.217 HD
ENDBRANCH  22  25
ENDBRANCH  18  19
ENDBRANCH  17  18
ENDBRANCH   3  17
TORSDOF 8
