REMARK  7 active torsions:
REMARK  status: ('A' for Active; 'I' for Inactive)
REMARK    1  A    between atoms: C_5  and  N_6 
REMARK       I    between atoms: N_6  and  C_7 
REMARK    2  A    between atoms: C_10  and  C_11 
REMARK    3  A    between atoms: C_11  and  C_12 
REMARK    4  A    between atoms: C_15  and  O_16 
REMARK    5  A    between atoms: C_20  and  C_23 
REMARK    6  A    between atoms: C_23  and  C_24 
REMARK    7  A    between atoms: C_27  and  O_28 
ROOT
HETATM    1  N   UNK N   1      -3.768  -0.047   0.418  0.00  0.00    -0.171 N 
HETATM    2  C   UNK N   1      -2.559  -0.796   0.336  0.00  0.00     0.686 A 
HETATM    3  N   UNK N   1      -1.988  -1.209  -0.816  0.00  0.00    -0.193 N 
ATOM      4  HN  UNK N   1      -2.332  -1.070  -1.766  1.00  0.00     0.184 HD
HETATM    5  C   UNK N   1      -0.857  -1.849  -0.433  0.00  0.00     0.054 A 
HETATM    6  C   UNK N   1      -0.766  -1.819   0.949  0.00  0.00     0.056 A 
HETATM    7  N   UNK N   1      -1.839  -1.152   1.422  0.00  0.00    -0.189 N 
HETATM    8  C   UNK N   1      -2.182  -0.849   2.813  0.00  0.00     0.175 C 
HETATM    9  H   UNK N   1      -4.131   0.195   1.350  0.00  0.00     0.186 HD
ENDROOT
BRANCH   1  10
HETATM   10  C   UNK N   1      -4.498   0.433  -0.704  0.00  0.00     0.194 A 
HETATM   11  N   UNK N   1      -4.179   0.270  -1.943  0.00  0.00    -0.289 N 
HETATM   12  C   UNK N   1      -5.135   0.900  -2.681  0.00  0.00     0.330 A 
ATOM     13  HN  UNK N   1      -3.367  -0.233  -2.301  1.00  0.00     0.172 HD
HETATM   14  O   UNK N   1      -5.133   0.939  -3.901  0.00  0.00    -0.246 OA
HETATM   15  N   UNK N   1      -6.080   1.476  -1.904  0.00  0.00    -0.268 N 
HETATM   16  C   UNK N   1      -5.726   1.213  -0.641  0.00  0.00     0.296 A 
HETATM   17  C   UNK N   1      -7.239   2.225  -2.346  0.00  0.00     0.165 C 
HETATM   18  O   UNK N   1      -6.334   1.572   0.355  0.00  0.00    -0.264 OA
ENDBRANCH   1  10
BRANCH   5  19
HETATM   19  C   UNK N   1       0.163  -2.369  -1.411  0.00  0.00     0.098 C 
BRANCH  19  20
HETATM   20  C   UNK N   1       1.268  -1.355  -1.621  0.00  0.00    -0.052 A 
HETATM   21  C   UNK N   1       2.622  -1.696  -1.456  0.00  0.00     0.010 A 
HETATM   22  C   UNK N   1       3.626  -0.744  -1.702  0.00  0.00     0.037 A 
HETATM   23  C   UNK N   1       3.282   0.565  -2.107  0.00  0.00     0.068 A 
HETATM   24  C   UNK N   1       1.934   0.898  -2.253  0.00  0.00     0.037 A 
HETATM   25  C   UNK N   1       0.938  -0.049  -2.022  0.00  0.00     0.010 A 
BRANCH  23  26
HETATM   26  O   UNK N   1       4.211   1.522  -2.371  0.00  0.00    -0.356 OA
HETATM   27  C   UNK N   1       5.578   1.342  -2.359  0.00  0.00     0.210 C 
ENDBRANCH  23  26
ENDBRANCH  19  20
ENDBRANCH   5  19
BRANCH   6  28
HETATM   28  C   UNK N   1       0.330  -2.405   1.805  0.00  0.00     0.098 C 
BRANCH  28  29
HETATM   29  C   UNK N   1       1.363  -1.401   2.266  0.00  0.00    -0.052 A 
HETATM   30  C   UNK N   1       1.393  -0.078   1.782  0.00  0.00     0.010 A 
HETATM   31  C   UNK N   1       2.396   0.800   2.188  0.00  0.00     0.037 A 
HETATM   32  C   UNK N   1       3.386   0.378   3.098  0.00  0.00     0.068 A 
HETATM   33  C   UNK N   1       3.346  -0.931   3.593  0.00  0.00     0.037 A 
HETATM   34  C   UNK N   1       2.348  -1.816   3.175  0.00  0.00     0.010 A 
BRANCH  32  35
HETATM   35  O   UNK N   1       4.388   1.200   3.508  0.00  0.00    -0.356 OA
HETATM   36  C   UNK N   1       4.584   2.490   3.058  0.00  0.00     0.210 C 
ENDBRANCH  32  35
ENDBRANCH  28  29
ENDBRANCH   6  28
TORSDOF 7
