REMARK  7 active torsions:
REMARK  status: ('A' for Active; 'I' for Inactive)
REMARK    1  A    between atoms: C_5  and  N_6 
REMARK       I    between atoms: N_6  and  C_7 
REMARK    2  A    between atoms: C_10  and  C_11 
REMARK    3  A    between atoms: C_11  and  C_12 
REMARK    4  A    between atoms: C_15  and  O_16 
REMARK    5  A    between atoms: C_20  and  C_23 
REMARK    6  A    between atoms: C_23  and  C_24 
REMARK    7  A    between atoms: C_27  and  O_28 
ROOT
HETATM    1  N   UNK N   1      -3.768  -0.025   0.417  0.00  0.00    -0.171 N 
HETATM    2  C   UNK N   1      -2.556  -0.769   0.337  0.00  0.00     0.686 A 
HETATM    3  N   UNK N   1      -1.986  -1.187  -0.814  0.00  0.00    -0.193 N 
ATOM      4  HN  UNK N   1      -2.333  -1.052  -1.764  1.00  0.00     0.184 HD
HETATM    5  C   UNK N   1      -0.855  -1.823  -0.430  0.00  0.00     0.054 A 
HETATM    6  C   UNK N   1      -0.760  -1.786   0.952  0.00  0.00     0.056 A 
HETATM    7  N   UNK N   1      -1.833  -1.119   1.424  0.00  0.00    -0.189 N 
HETATM    8  C   UNK N   1      -2.177  -0.816   2.814  0.00  0.00     0.175 C 
HETATM    9  H   UNK N   1      -4.131   0.218   1.349  0.00  0.00     0.186 HD
ENDROOT
BRANCH   1  10
HETATM   10  C   UNK N   1      -4.501   0.448  -0.706  0.00  0.00     0.194 A 
HETATM   11  N   UNK N   1      -4.182   0.281  -1.945  0.00  0.00    -0.289 N 
HETATM   12  C   UNK N   1      -5.138   0.907  -2.685  0.00  0.00     0.330 A 
ATOM     13  HN  UNK N   1      -3.369  -0.222  -2.301  1.00  0.00     0.172 HD
HETATM   14  O   UNK N   1      -5.137   0.942  -3.905  0.00  0.00    -0.246 OA
HETATM   15  N   UNK N   1      -6.084   1.484  -1.910  0.00  0.00    -0.268 N 
HETATM   16  C   UNK N   1      -5.730   1.225  -0.646  0.00  0.00     0.296 A 
HETATM   17  C   UNK N   1      -7.244   2.231  -2.354  0.00  0.00     0.165 C 
HETATM   18  O   UNK N   1      -6.339   1.587   0.349  0.00  0.00    -0.264 OA
ENDBRANCH   1  10
BRANCH   5  19
HETATM   19  C   UNK N   1       0.160  -2.353  -1.408  0.00  0.00     0.098 C 
BRANCH  19  20
HETATM   20  C   UNK N   1       1.268  -1.343  -1.622  0.00  0.00    -0.052 A 
HETATM   21  C   UNK N   1       2.622  -1.687  -1.457  0.00  0.00     0.010 A 
HETATM   22  C   UNK N   1       3.627  -0.737  -1.706  0.00  0.00     0.037 A 
HETATM   23  C   UNK N   1       3.284   0.571  -2.114  0.00  0.00     0.068 A 
HETATM   24  C   UNK N   1       1.937   0.907  -2.262  0.00  0.00     0.037 A 
HETATM   25  C   UNK N   1       0.940  -0.038  -2.027  0.00  0.00     0.010 A 
BRANCH  23  26
HETATM   26  O   UNK N   1       4.215   1.526  -2.382  0.00  0.00    -0.356 OA
HETATM   27  C   UNK N   1       5.581   1.343  -2.369  0.00  0.00     0.210 C 
ENDBRANCH  23  26
ENDBRANCH  19  20
ENDBRANCH   5  19
BRANCH   6  28
HETATM   28  C   UNK N   1       0.333  -2.380   1.807  0.00  0.00     0.098 C 
BRANCH  28  29
HETATM   29  C   UNK N   1       1.375  -1.392   2.282  0.00  0.00    -0.052 A 
HETATM   30  C   UNK N   1       2.355  -1.834   3.187  0.00  0.00     0.010 A 
HETATM   31  C   UNK N   1       3.361  -0.966   3.621  0.00  0.00     0.037 A 
HETATM   32  C   UNK N   1       3.409   0.348   3.147  0.00  0.00     0.065 A 
HETATM   33  C   UNK N   1       2.436   0.798   2.246  0.00  0.00     0.037 A 
HETATM   34  C   UNK N   1       1.421  -0.061   1.819  0.00  0.00     0.010 A 
BRANCH  32  35
HETATM   35  O   UNK N   1       4.397   1.168   3.558  0.00  0.00    -0.361 OA
HETATM   36  H   UNK N   1       4.469   2.078   3.236  0.00  0.00     0.217 HD
ENDBRANCH  32  35
ENDBRANCH  28  29
ENDBRANCH   6  28
TORSDOF 7
