REMARK  7 active torsions:
REMARK  status: ('A' for Active; 'I' for Inactive)
REMARK    1  A    between atoms: C_5  and  N_6 
REMARK       I    between atoms: N_6  and  C_7 
REMARK    2  A    between atoms: C_10  and  C_11 
REMARK    3  A    between atoms: C_11  and  C_12 
REMARK    4  A    between atoms: C_15  and  O_16 
REMARK    5  A    between atoms: C_20  and  C_23 
REMARK    6  A    between atoms: C_23  and  C_24 
REMARK    7  A    between atoms: C_27  and  O_28 
ROOT
HETATM    1  N   UNK N   1       1.602   4.231  -2.327  0.00  0.00    -0.171 N 
HETATM    2  C   UNK N   1       0.606   3.751  -1.423  0.00  0.00     0.684 A 
HETATM    3  N   UNK N   1      -0.641   4.274  -1.361  0.00  0.00    -0.193 N 
ATOM      4  HN  UNK N   1      -1.025   5.038  -1.917  1.00  0.00     0.184 HD
HETATM    5  C   UNK N   1      -1.264   3.558  -0.399  0.00  0.00     0.054 A 
HETATM    6  C   UNK N   1      -0.392   2.602   0.090  0.00  0.00     0.054 A 
HETATM    7  N   UNK N   1       0.778   2.733  -0.554  0.00  0.00    -0.193 N 
HETATM    8  H   UNK N   1       1.616   2.143  -0.396  0.00  0.00     0.184 HD
HETATM    9  H   UNK N   1       1.348   5.009  -2.953  0.00  0.00     0.186 HD
ENDROOT
BRANCH   1  10
HETATM   10  C   UNK N   1       2.928   3.703  -2.421  0.00  0.00     0.194 A 
HETATM   11  N   UNK N   1       3.406   2.752  -1.695  0.00  0.00    -0.289 N 
HETATM   12  C   UNK N   1       4.687   2.547  -2.084  0.00  0.00     0.330 A 
ATOM     13  HN  UNK N   1       2.910   2.245  -0.962  1.00  0.00     0.172 HD
HETATM   14  O   UNK N   1       5.419   1.706  -1.587  0.00  0.00    -0.246 OA
HETATM   15  N   UNK N   1       5.051   3.379  -3.081  0.00  0.00    -0.268 N 
HETATM   16  C   UNK N   1       3.976   4.138  -3.340  0.00  0.00     0.296 A 
HETATM   17  C   UNK N   1       6.346   3.428  -3.726  0.00  0.00     0.165 C 
HETATM   18  O   UNK N   1       3.916   5.017  -4.185  0.00  0.00    -0.264 OA
ENDBRANCH   1  10
BRANCH   5  19
HETATM   19  C   UNK N   1      -2.693   3.747   0.015  0.00  0.00     0.098 C 
BRANCH  19  20
HETATM   20  C   UNK N   1      -3.593   3.030  -0.952  0.00  0.00    -0.052 A 
HETATM   21  C   UNK N   1      -3.924   3.599  -2.191  0.00  0.00     0.010 A 
HETATM   22  C   UNK N   1      -4.744   2.903  -3.088  0.00  0.00     0.037 A 
HETATM   23  C   UNK N   1      -5.225   1.616  -2.759  0.00  0.00     0.068 A 
HETATM   24  C   UNK N   1      -4.886   1.056  -1.524  0.00  0.00     0.037 A 
HETATM   25  C   UNK N   1      -4.087   1.758  -0.624  0.00  0.00     0.010 A 
BRANCH  23  26
HETATM   26  O   UNK N   1      -6.007   0.891  -3.601  0.00  0.00    -0.356 OA
HETATM   27  C   UNK N   1      -6.447   1.310  -4.838  0.00  0.00     0.210 C 
ENDBRANCH  23  26
ENDBRANCH  19  20
ENDBRANCH   5  19
BRANCH   6  28
HETATM   28  C   UNK N   1      -0.680   1.546   1.134  0.00  0.00     0.098 C 
BRANCH  28  29
HETATM   29  C   UNK N   1       0.517   0.654   1.346  0.00  0.00    -0.052 A 
HETATM   30  C   UNK N   1       0.701  -0.487   0.548  0.00  0.00     0.010 A 
HETATM   31  C   UNK N   1       1.845  -1.277   0.699  0.00  0.00     0.037 A 
HETATM   32  C   UNK N   1       2.826  -0.931   1.653  0.00  0.00     0.068 A 
HETATM   33  C   UNK N   1       2.635   0.208   2.446  0.00  0.00     0.037 A 
HETATM   34  C   UNK N   1       1.491   0.997   2.294  0.00  0.00     0.010 A 
BRANCH  32  35
HETATM   35  O   UNK N   1       3.961  -1.659   1.828  0.00  0.00    -0.356 OA
HETATM   36  C   UNK N   1       4.298  -2.791   1.114  0.00  0.00     0.210 C 
ENDBRANCH  32  35
ENDBRANCH  28  29
ENDBRANCH   6  28
TORSDOF 7
