REMARK  8 active torsions:
REMARK  status: ('A' for Active; 'I' for Inactive)
REMARK    1  A    between atoms: C_5  and  N_6 
REMARK       I    between atoms: N_6  and  C_7 
REMARK    2  A    between atoms: C_10  and  C_11 
REMARK    3  A    between atoms: C_11  and  C_12 
REMARK    4  A    between atoms: C_15  and  O_16 
REMARK    5  A    between atoms: C_20  and  C_23 
REMARK    6  A    between atoms: C_23  and  C_24 
REMARK    7  A    between atoms: C_26  and  O_27 
REMARK    8  A    between atoms: C_29  and  O_30 
ROOT
HETATM    1  N   UNK N   1      -3.605  -0.444  -0.096  0.00  0.00    -0.171 N 
HETATM    2  C   UNK N   1      -2.296  -0.819  -0.518  0.00  0.00     0.686 A 
HETATM    3  N   UNK N   1      -1.880  -0.854  -1.806  0.00  0.00    -0.193 N 
ATOM      4  HN  UNK N   1      -2.416  -0.618  -2.642  1.00  0.00     0.184 HD
HETATM    5  C   UNK N   1      -0.594  -1.273  -1.739  0.00  0.00     0.054 A 
HETATM    6  C   UNK N   1      -0.250  -1.482  -0.405  0.00  0.00     0.056 A 
HETATM    7  N   UNK N   1      -1.334  -1.211   0.347  0.00  0.00    -0.189 N 
HETATM    8  C   UNK N   1      -1.497  -1.342   1.795  0.00  0.00     0.175 C 
HETATM    9  H   UNK N   1      -3.826  -0.494   0.908  0.00  0.00     0.186 HD
ENDROOT
BRANCH   1  10
HETATM   10  C   UNK N   1      -4.638   0.017  -0.956  0.00  0.00     0.194 A 
HETATM   11  N   UNK N   1      -4.542   0.196  -2.229  0.00  0.00    -0.289 N 
HETATM   12  C   UNK N   1      -5.749   0.663  -2.652  0.00  0.00     0.330 A 
ATOM     13  HN  UNK N   1      -3.720   0.022  -2.808  1.00  0.00     0.172 HD
HETATM   14  O   UNK N   1      -6.000   0.940  -3.813  0.00  0.00    -0.246 OA
HETATM   15  N   UNK N   1      -6.632   0.785  -1.634  0.00  0.00    -0.268 N 
HETATM   16  C   UNK N   1      -5.981   0.389  -0.536  0.00  0.00     0.296 A 
HETATM   17  C   UNK N   1      -8.002   1.249  -1.715  0.00  0.00     0.165 C 
HETATM   18  O   UNK N   1      -6.448   0.358   0.593  0.00  0.00    -0.264 OA
ENDBRANCH   1  10
BRANCH   5  19
HETATM   19  C   UNK N   1       0.293  -1.495  -2.938  0.00  0.00     0.098 C 
BRANCH  19  20
HETATM   20  C   UNK N   1       0.081  -2.878  -3.497  0.00  0.00    -0.052 A 
HETATM   21  C   UNK N   1      -1.015  -3.150  -4.327  0.00  0.00     0.010 A 
HETATM   22  C   UNK N   1      -1.216  -4.442  -4.828  0.00  0.00     0.037 A 
HETATM   23  C   UNK N   1      -0.329  -5.485  -4.483  0.00  0.00     0.068 A 
HETATM   24  C   UNK N   1       0.761  -5.207  -3.655  0.00  0.00     0.037 A 
HETATM   25  C   UNK N   1       0.974  -3.915  -3.175  0.00  0.00     0.010 A 
BRANCH  23  26
HETATM   26  O   UNK N   1      -0.494  -6.760  -4.925  0.00  0.00    -0.356 OA
HETATM   27  C   UNK N   1      -1.492  -7.184  -5.776  0.00  0.00     0.210 C 
ENDBRANCH  23  26
ENDBRANCH  19  20
ENDBRANCH   5  19
BRANCH   6  28
HETATM   28  C   UNK N   1       1.088  -1.969   0.115  0.00  0.00     0.098 C 
BRANCH  28  29
HETATM   29  C   UNK N   1       1.993  -0.830   0.531  0.00  0.00    -0.050 A 
HETATM   30  C   UNK N   1       2.992  -0.377  -0.348  0.00  0.00     0.047 A 
HETATM   31  C   UNK N   1       3.837   0.681   0.013  0.00  0.00     0.099 A 
HETATM   32  C   UNK N   1       3.709   1.286   1.271  0.00  0.00     0.101 A 
HETATM   33  C   UNK N   1       2.717   0.824   2.159  0.00  0.00     0.040 A 
HETATM   34  C   UNK N   1       1.865  -0.218   1.787  0.00  0.00     0.010 A 
BRANCH  31  35
HETATM   35  O   UNK N   1       4.778   1.124  -0.848  0.00  0.00    -0.358 OA
HETATM   36  H   UNK N   1       4.880   0.741  -1.731  0.00  0.00     0.218 HD
ENDBRANCH  31  35
BRANCH  32  37
HETATM   37  O   UNK N   1       4.553   2.303   1.595  0.00  0.00    -0.353 OA
HETATM   38  C   UNK N   1       4.567   2.968   2.803  0.00  0.00     0.210 C 
ENDBRANCH  32  37
ENDBRANCH  28  29
ENDBRANCH   6  28
TORSDOF 8
