REMARK  1 active torsions:
REMARK  status: ('A' for Active; 'I' for Inactive)
REMARK    1  A    between atoms: C_4  and  C_21 
ROOT
HETATM    1  O   UNK N   1       4.167   1.510  -1.942  0.00  0.00    -0.260 OA
HETATM    2  C   UNK N   1       2.995   1.317  -1.673  0.00  0.00     0.284 C 
HETATM    3  O   UNK N   1       2.652   0.798  -0.463  0.00  0.00    -0.308 OA
HETATM    4  C   UNK N   1       1.361   0.904   0.032  0.00  0.00     0.169 C 
HETATM    5  C   UNK N   1       0.356   0.628  -1.085  0.00  0.00    -0.022 C 
HETATM    6  C   UNK N   1      -0.792  -0.076  -0.912  0.00  0.00     0.016 C 
HETATM    7  C   UNK N   1      -1.734  -0.378  -2.058  0.00  0.00     0.161 C 
HETATM    8  O   UNK N   1      -2.978   0.202  -1.938  0.00  0.00    -0.311 OA
HETATM    9  C   UNK N   1      -3.519   0.429  -3.151  0.00  0.00     0.268 C 
HETATM   10  C   UNK N   1      -2.575   0.147  -4.279  0.00  0.00     0.052 C 
HETATM   11  C   UNK N   1      -1.252   0.073  -3.454  0.00  0.00     0.050 C 
HETATM   12  C   UNK N   1      -0.502   1.437  -3.387  0.00  0.00    -0.009 C 
HETATM   13  C   UNK N   1       0.666   1.236  -2.417  0.00  0.00    -0.035 C 
HETATM   14  C   UNK N   1       1.943   1.590  -2.681  0.00  0.00     0.090 C 
HETATM   15  C   UNK N   1      -0.092   1.818  -4.853  0.00  0.00     0.014 C 
HETATM   16  C   UNK N   1      -1.133   1.417  -5.943  0.00  0.00     0.002 C 
HETATM   17  C   UNK N   1      -2.553   1.250  -5.391  0.00  0.00     0.020 C 
HETATM   18  C   UNK N   1      -1.310   2.617  -2.748  0.00  0.00     0.021 C 
HETATM   19  C   UNK N   1      -2.914  -1.233  -4.885  0.00  0.00     0.026 C 
HETATM   20  O   UNK N   1      -4.697   0.715  -3.298  0.00  0.00    -0.264 OA
ENDROOT
BRANCH   4  21
HETATM   21  C   UNK N   1       1.216   0.084   1.342  0.00  0.00     0.011 C 
HETATM   22  C   UNK N   1       1.529  -1.406   1.113  0.00  0.00     0.012 C 
HETATM   23  C   UNK N   1       2.143   0.646   2.428  0.00  0.00     0.012 C 
ENDBRANCH   4  21
TORSDOF 1
