REMARK  8 active torsions:
REMARK  status: ('A' for Active; 'I' for Inactive)
REMARK    1  A    between atoms: C_6  and  C_7 
REMARK    2  A    between atoms: C_10  and  O_11 
REMARK    3  A    between atoms: C_17  and  O_18 
REMARK    4  A    between atoms: O_18  and  C_19 
REMARK    5  A    between atoms: C_22  and  O_23 
REMARK    6  A    between atoms: C_25  and  O_26 
REMARK    7  A    between atoms: C_28  and  O_29 
REMARK    8  A    between atoms: C_33  and  O_34 
ROOT
HETATM    1  O   UNK N   1      -5.917  -0.022  -2.626  0.00  0.00    -0.292 OA
HETATM    2  C   UNK N   1      -4.912  -0.658  -2.354  0.00  0.00     0.167 C 
HETATM    3  C   UNK N   1      -3.638   0.006  -1.916  0.00  0.00     0.076 A 
HETATM    4  C   UNK N   1      -2.568  -0.858  -1.571  0.00  0.00     0.089 A 
HETATM    5  O   UNK N   1      -2.748  -2.202  -1.558  0.00  0.00    -0.340 OA
HETATM    6  C   UNK N   1      -4.011  -2.765  -1.462  0.00  0.00     0.169 C 
HETATM    7  C   UNK N   1      -4.928  -2.156  -2.522  0.00  0.00     0.121 C 
HETATM    8  C   UNK N   1      -1.318  -0.341  -1.233  0.00  0.00     0.074 A 
HETATM    9  C   UNK N   1      -1.110   1.044  -1.183  0.00  0.00     0.077 A 
HETATM   10  C   UNK N   1      -2.174   1.907  -1.461  0.00  0.00     0.074 A 
HETATM   11  C   UNK N   1      -3.431   1.415  -1.840  0.00  0.00     0.085 A 
ENDROOT
BRANCH   9  12
HETATM   12  O   UNK N   1       0.105   1.576  -0.885  0.00  0.00    -0.318 OA
BRANCH  12  13
HETATM   13  C   UNK N   1       1.316   0.943  -1.138  0.00  0.00     0.298 C 
HETATM   14  O   UNK N   1       1.701   0.074  -0.080  0.00  0.00    -0.351 OA
HETATM   15  C   UNK N   1       1.974   0.774   1.128  0.00  0.00     0.152 C 
HETATM   16  C   UNK N   1       3.122   1.803   0.953  0.00  0.00     0.178 C 
HETATM   17  C   UNK N   1       2.355  -0.262   2.190  0.00  0.00     0.042 C 
HETATM   18  C   UNK N   1       2.747   2.775  -0.182  0.00  0.00     0.183 C 
HETATM   19  C   UNK N   1       2.411   1.983  -1.456  0.00  0.00     0.205 C 
BRANCH  16  20
HETATM   20  O   UNK N   1       3.313   2.511   2.151  0.00  0.00    -0.390 OA
HETATM   21  H   UNK N   1       4.165   3.012   2.059  0.00  0.00     0.210 HD
ENDBRANCH  16  20
BRANCH  18  22
HETATM   22  O   UNK N   1       3.758   3.721  -0.423  0.00  0.00    -0.390 OA
HETATM   23  H   UNK N   1       4.593   3.228  -0.638  0.00  0.00     0.210 HD
ENDBRANCH  18  22
BRANCH  19  24
HETATM   24  O   UNK N   1       3.558   1.367  -1.998  0.00  0.00    -0.388 OA
HETATM   25  H   UNK N   1       3.772   0.556  -1.469  0.00  0.00     0.210 HD
ENDBRANCH  19  24
ENDBRANCH  12  13
ENDBRANCH   9  12
BRANCH  11  26
HETATM   26  O   UNK N   1      -4.390   2.326  -2.130  0.00  0.00    -0.360 OA
HETATM   27  H   UNK N   1      -5.290   2.126  -2.403  0.00  0.00     0.217 HD
ENDBRANCH  11  26
BRANCH   6  28
HETATM   28  C   UNK N   1      -3.946  -4.268  -1.571  0.00  0.00    -0.028 A 
HETATM   29  C   UNK N   1      -2.976  -4.898  -2.370  0.00  0.00     0.012 A 
HETATM   30  C   UNK N   1      -2.926  -6.293  -2.451  0.00  0.00     0.037 A 
HETATM   31  C   UNK N   1      -3.854  -7.080  -1.737  0.00  0.00     0.068 A 
HETATM   32  C   UNK N   1      -4.821  -6.447  -0.949  0.00  0.00     0.037 A 
HETATM   33  C   UNK N   1      -4.868  -5.055  -0.864  0.00  0.00     0.012 A 
BRANCH  31  34
HETATM   34  O   UNK N   1      -3.846  -8.439  -1.786  0.00  0.00    -0.356 OA
HETATM   35  C   UNK N   1      -2.954  -9.202  -2.511  0.00  0.00     0.210 C 
ENDBRANCH  31  34
ENDBRANCH   6  28
TORSDOF 8
