REMARK  10 active torsions:
REMARK  status: ('A' for Active; 'I' for Inactive)
REMARK    1  A    between atoms: C_6  and  C_7 
REMARK    2  A    between atoms: C_10  and  O_11 
REMARK    3  A    between atoms: C_17  and  O_18 
REMARK    4  A    between atoms: O_18  and  C_19 
REMARK    5  A    between atoms: C_21  and  C_31 
REMARK    6  A    between atoms: C_22  and  O_23 
REMARK    7  A    between atoms: C_25  and  O_26 
REMARK    8  A    between atoms: C_28  and  O_29 
REMARK    9  A    between atoms: C_31  and  O_32 
REMARK   10  A    between atoms: C_35  and  O_36 
ROOT
HETATM    1  O   UNK N   1       3.694   1.031  -1.766  0.00  0.00    -0.292 OA
HETATM    2  C   UNK N   1       2.998   0.075  -1.472  0.00  0.00     0.167 C 
HETATM    3  C   UNK N   1       1.504   0.116  -1.549  0.00  0.00     0.076 A 
HETATM    4  C   UNK N   1       0.817  -0.918  -0.874  0.00  0.00     0.089 A 
HETATM    5  O   UNK N   1       1.507  -1.864  -0.182  0.00  0.00    -0.340 OA
HETATM    6  C   UNK N   1       2.818  -1.690   0.243  0.00  0.00     0.169 C 
HETATM    7  C   UNK N   1       3.641  -1.190  -0.958  0.00  0.00     0.121 C 
HETATM    8  C   UNK N   1      -0.576  -0.985  -0.898  0.00  0.00     0.074 A 
HETATM    9  C   UNK N   1      -1.320  -0.031  -1.591  0.00  0.00     0.077 A 
HETATM   10  C   UNK N   1      -0.653   1.016  -2.252  0.00  0.00     0.074 A 
HETATM   11  C   UNK N   1       0.746   1.108  -2.238  0.00  0.00     0.085 A 
ENDROOT
BRANCH   9  12
HETATM   12  O   UNK N   1      -2.674  -0.151  -1.613  0.00  0.00    -0.318 OA
BRANCH  12  13
HETATM   13  C   UNK N   1      -3.484   0.310  -2.639  0.00  0.00     0.298 C 
HETATM   14  O   UNK N   1      -3.880   1.670  -2.445  0.00  0.00    -0.348 OA
HETATM   15  C   UNK N   1      -4.858   1.868  -1.421  0.00  0.00     0.179 C 
HETATM   16  C   UNK N   1      -6.111   0.969  -1.613  0.00  0.00     0.180 C 
HETATM   17  C   UNK N   1      -5.682  -0.505  -1.726  0.00  0.00     0.183 C 
HETATM   18  C   UNK N   1      -4.663  -0.661  -2.868  0.00  0.00     0.205 C 
BRANCH  15  19
HETATM   19  C   UNK N   1      -4.255   1.795  -0.002  0.00  0.00     0.198 C 
BRANCH  19  20
HETATM   20  O   UNK N   1      -3.250   2.760   0.157  0.00  0.00    -0.398 OA
HETATM   21  H   UNK N   1      -2.455   2.429  -0.333  0.00  0.00     0.209 HD
ENDBRANCH  19  20
ENDBRANCH  15  19
BRANCH  16  22
HETATM   22  O   UNK N   1      -6.864   1.361  -2.743  0.00  0.00    -0.390 OA
HETATM   23  H   UNK N   1      -6.263   1.758  -3.426  0.00  0.00     0.210 HD
ENDBRANCH  16  22
BRANCH  17  24
HETATM   24  O   UNK N   1      -6.786  -1.363  -1.884  0.00  0.00    -0.390 OA
HETATM   25  H   UNK N   1      -7.245  -1.128  -2.732  0.00  0.00     0.210 HD
ENDBRANCH  17  24
BRANCH  18  26
HETATM   26  O   UNK N   1      -5.271  -0.391  -4.105  0.00  0.00    -0.388 OA
HETATM   27  H   UNK N   1      -4.670  -0.754  -4.807  0.00  0.00     0.210 HD
ENDBRANCH  18  26
ENDBRANCH  12  13
ENDBRANCH   9  12
BRANCH  11  28
HETATM   28  O   UNK N   1       1.310   2.138  -2.908  0.00  0.00    -0.360 OA
HETATM   29  H   UNK N   1       2.255   2.288  -3.000  0.00  0.00     0.217 HD
ENDBRANCH  11  28
BRANCH   6  30
HETATM   30  C   UNK N   1       2.837  -0.794   1.480  0.00  0.00    -0.028 A 
HETATM   31  C   UNK N   1       1.833  -0.964   2.452  0.00  0.00     0.012 A 
HETATM   32  C   UNK N   1       1.805  -0.165   3.597  0.00  0.00     0.037 A 
HETATM   33  C   UNK N   1       2.792   0.800   3.804  0.00  0.00     0.065 A 
HETATM   34  C   UNK N   1       3.807   0.972   2.853  0.00  0.00     0.037 A 
HETATM   35  C   UNK N   1       3.828   0.187   1.695  0.00  0.00     0.012 A 
BRANCH  33  36
HETATM   36  O   UNK N   1       2.759   1.556   4.921  0.00  0.00    -0.361 OA
HETATM   37  H   UNK N   1       3.432   2.227   5.102  0.00  0.00     0.217 HD
ENDBRANCH  33  36
ENDBRANCH   6  30
TORSDOF 10
