REMARK  10 active torsions:
REMARK  status: ('A' for Active; 'I' for Inactive)
REMARK    1  A    between atoms: C_6  and  C_7 
REMARK    2  A    between atoms: C_10  and  O_11 
REMARK    3  A    between atoms: C_17  and  O_18 
REMARK    4  A    between atoms: C_21  and  O_22 
REMARK    5  A    between atoms: O_22  and  C_23 
REMARK    6  A    between atoms: C_23  and  C_24 
REMARK    7  A    between atoms: C_26  and  O_27 
REMARK    8  A    between atoms: C_29  and  O_30 
REMARK    9  A    between atoms: C_32  and  O_33 
REMARK   10  A    between atoms: C_35  and  O_36 
ROOT
HETATM    1  O   UNK N   1      -1.966  -1.590  -0.454  0.00  0.00    -0.292 OA
HETATM    2  C   UNK N   1      -1.616  -1.315   0.683  0.00  0.00     0.167 C 
HETATM    3  C   UNK N   1      -2.001  -0.030   1.329  0.00  0.00     0.077 A 
HETATM    4  C   UNK N   1      -1.346   0.295   2.536  0.00  0.00     0.089 A 
HETATM    5  O   UNK N   1      -0.385  -0.526   3.037  0.00  0.00    -0.340 OA
HETATM    6  C   UNK N   1       0.297  -1.452   2.255  0.00  0.00     0.169 C 
HETATM    7  C   UNK N   1      -0.750  -2.271   1.472  0.00  0.00     0.121 C 
HETATM    8  C   UNK N   1      -1.660   1.468   3.220  0.00  0.00     0.074 A 
HETATM    9  C   UNK N   1      -2.609   2.348   2.705  0.00  0.00     0.071 A 
HETATM   10  C   UNK N   1      -3.256   2.051   1.499  0.00  0.00     0.074 A 
HETATM   11  C   UNK N   1      -2.965   0.860   0.793  0.00  0.00     0.088 A 
ENDROOT
BRANCH  11  12
HETATM   12  O   UNK N   1      -3.599   0.561  -0.378  0.00  0.00    -0.347 OA
BRANCH  12  13
HETATM   13  C   UNK N   1      -4.548   1.373  -0.982  0.00  0.00     0.210 C 
BRANCH  13  14
HETATM   14  C   UNK N   1      -5.073   0.759  -2.284  0.00  0.00     0.180 C 
HETATM   15  O   UNK N   1      -3.985   0.611  -3.189  0.00  0.00    -0.349 OA
HETATM   16  C   UNK N   1      -4.419   0.150  -4.462  0.00  0.00     0.288 C 
HETATM   17  C   UNK N   1      -5.067  -1.246  -4.346  0.00  0.00     0.204 C 
HETATM   18  C   UNK N   1      -6.252  -1.197  -3.364  0.00  0.00     0.183 C 
HETATM   19  C   UNK N   1      -5.774  -0.601  -2.026  0.00  0.00     0.180 C 
BRANCH  16  20
HETATM   20  O   UNK N   1      -5.298   1.072  -5.062  0.00  0.00    -0.369 OA
HETATM   21  H   UNK N   1      -4.739   1.806  -5.427  0.00  0.00     0.212 HD
ENDBRANCH  16  20
BRANCH  17  22
HETATM   22  O   UNK N   1      -5.457  -1.739  -5.604  0.00  0.00    -0.388 OA
HETATM   23  H   UNK N   1      -6.164  -1.140  -5.960  0.00  0.00     0.210 HD
ENDBRANCH  17  22
BRANCH  18  24
HETATM   24  O   UNK N   1      -6.818  -2.471  -3.182  0.00  0.00    -0.390 OA
HETATM   25  H   UNK N   1      -6.119  -3.058  -2.791  0.00  0.00     0.210 HD
ENDBRANCH  18  24
BRANCH  19  26
HETATM   26  O   UNK N   1      -6.851  -0.468  -1.131  0.00  0.00    -0.390 OA
HETATM   27  H   UNK N   1      -7.491   0.181  -1.525  0.00  0.00     0.210 HD
ENDBRANCH  19  26
ENDBRANCH  13  14
ENDBRANCH  12  13
ENDBRANCH  11  12
BRANCH   9  28
HETATM   28  O   UNK N   1      -2.889   3.486   3.372  0.00  0.00    -0.361 OA
HETATM   29  H   UNK N   1      -3.535   4.125   3.039  0.00  0.00     0.217 HD
ENDBRANCH   9  28
BRANCH   6  30
HETATM   30  C   UNK N   1       1.352  -0.736   1.409  0.00  0.00    -0.028 A 
HETATM   31  C   UNK N   1       2.055   0.350   1.968  0.00  0.00     0.012 A 
HETATM   32  C   UNK N   1       3.031   1.025   1.231  0.00  0.00     0.037 A 
HETATM   33  C   UNK N   1       3.340   0.615  -0.067  0.00  0.00     0.065 A 
HETATM   34  C   UNK N   1       2.660  -0.472  -0.632  0.00  0.00     0.037 A 
HETATM   35  C   UNK N   1       1.670  -1.142   0.095  0.00  0.00     0.012 A 
BRANCH  33  36
HETATM   36  O   UNK N   1       4.293   1.269  -0.762  0.00  0.00    -0.361 OA
HETATM   37  H   UNK N   1       4.540   1.006  -1.661  0.00  0.00     0.217 HD
ENDBRANCH  33  36
ENDBRANCH   6  30
TORSDOF 10
