REMARK  11 active torsions:
REMARK  status: ('A' for Active; 'I' for Inactive)
REMARK    1  A    between atoms: C_2  and  O_3 
REMARK    2  A    between atoms: C_2  and  C_20 
REMARK    3  A    between atoms: O_3  and  C_4 
REMARK    4  A    between atoms: C_5  and  O_6 
REMARK    5  A    between atoms: C_8  and  O_9 
REMARK    6  A    between atoms: C_12  and  O_13 
REMARK    7  A    between atoms: C_12  and  C_15 
REMARK    8  A    between atoms: C_15  and  O_17 
REMARK    9  A    between atoms: C_21  and  C_22 
REMARK   10  A    between atoms: C_24  and  O_25 
REMARK   11  A    between atoms: C_27  and  O_28 
ROOT
HETATM    1  C   UNK N   1      -4.316   1.105  -0.785  0.00  0.00     0.166 C 
HETATM    2  C   UNK N   1      -4.922   2.450  -0.314  0.00  0.00     0.176 C 
HETATM    3  C   UNK N   1      -6.338   2.629  -0.907  0.00  0.00     0.152 C 
HETATM    4  C   UNK N   1      -6.282   2.583  -2.453  0.00  0.00     0.083 C 
HETATM    5  C   UNK N   1      -5.667   1.266  -3.000  0.00  0.00     0.147 C 
HETATM    6  C   UNK N   1      -4.278   1.058  -2.328  0.00  0.00     0.084 C 
ENDROOT
BRANCH   1   7
HETATM    7  O   UNK N   1      -3.018   0.945  -0.329  0.00  0.00    -0.310 OA
BRANCH   7   8
HETATM    8  C   UNK N   1      -2.652   0.757   0.967  0.00  0.00     0.283 C 
HETATM    9  O   UNK N   1      -3.492   0.703   1.852  0.00  0.00    -0.260 OA
BRANCH   8  10
HETATM   10  C   UNK N   1      -1.227   0.553   1.307  0.00  0.00     0.083 C 
HETATM   11  C   UNK N   1      -0.259   0.655   0.375  0.00  0.00     0.017 C 
BRANCH  11  12
HETATM   12  C   UNK N   1       1.193   0.441   0.648  0.00  0.00    -0.033 A 
HETATM   13  C   UNK N   1       2.121   0.785  -0.349  0.00  0.00     0.050 A 
HETATM   14  C   UNK N   1       3.496   0.608  -0.143  0.00  0.00     0.099 A 
HETATM   15  C   UNK N   1       3.955   0.065   1.070  0.00  0.00     0.098 A 
HETATM   16  C   UNK N   1       3.035  -0.290   2.064  0.00  0.00     0.040 A 
HETATM   17  C   UNK N   1       1.666  -0.101   1.861  0.00  0.00     0.014 A 
BRANCH  14  18
HETATM   18  O   UNK N   1       4.359   0.966  -1.117  0.00  0.00    -0.358 OA
HETATM   19  H   UNK N   1       5.318   0.878  -1.017  0.00  0.00     0.218 HD
ENDBRANCH  14  18
BRANCH  15  20
HETATM   20  O   UNK N   1       5.278  -0.115   1.274  0.00  0.00    -0.358 OA
HETATM   21  H   UNK N   1       5.620  -0.490   2.098  0.00  0.00     0.218 HD
ENDBRANCH  15  20
ENDBRANCH  11  12
ENDBRANCH   8  10
ENDBRANCH   7   8
ENDBRANCH   1   7
BRANCH   2  22
HETATM   22  O   UNK N   1      -4.084   3.504  -0.720  0.00  0.00    -0.390 OA
HETATM   23  H   UNK N   1      -4.378   4.315  -0.227  0.00  0.00     0.210 HD
ENDBRANCH   2  22
BRANCH   3  24
HETATM   24  O   UNK N   1      -7.188   1.631  -0.403  0.00  0.00    -0.393 OA
HETATM   25  H   UNK N   1      -8.117   1.970  -0.489  0.00  0.00     0.210 HD
ENDBRANCH   3  24
BRANCH   5  26
HETATM   26  O   UNK N   1      -5.475   1.424  -4.386  0.00  0.00    -0.379 OA
HETATM   27  H   UNK N   1      -5.035   0.602  -4.730  0.00  0.00     0.211 HD
ENDBRANCH   5  26
BRANCH   5  28
HETATM   28  C   UNK N   1      -6.631   0.099  -2.795  0.00  0.00     0.176 C 
HETATM   29  O   UNK N   1      -6.316  -0.862  -2.110  0.00  0.00    -0.648 OA
BRANCH  28  30
HETATM   30  O   UNK N   1      -7.828   0.092  -3.422  0.00  0.00    -0.774 OA
HETATM   31  H   UNK N   1      -8.082   0.795  -4.036  0.00  0.00     0.167 HD
ENDBRANCH  28  30
ENDBRANCH   5  28
TORSDOF 11
