REMARK  6 active torsions:
REMARK  status: ('A' for Active; 'I' for Inactive)
REMARK    1  A    between atoms: C_3  and  O_4 
REMARK    2  A    between atoms: C_10  and  O_11 
REMARK    3  A    between atoms: C_15  and  C_16 
REMARK    4  A    between atoms: C_16  and  O_17 
REMARK    5  A    between atoms: C_22  and  O_23 
REMARK    6  A    between atoms: C_22  and  C_25 
ROOT
HETATM    1  O   UNK N   1       5.761   1.386  -1.241  0.00  0.00    -0.292 OA
HETATM    2  C   UNK N   1       5.080   1.634  -0.259  0.00  0.00     0.187 C 
HETATM    3  C   UNK N   1       5.253   2.931   0.501  0.00  0.00     0.224 C 
HETATM    4  C   UNK N   1       4.164   3.959   0.099  0.00  0.00     0.087 C 
HETATM    5  O   UNK N   1       2.909   3.343  -0.147  0.00  0.00    -0.372 OA
HETATM    6  C   UNK N   1       2.402   2.434   0.820  0.00  0.00     0.134 C 
HETATM    7  C   UNK N   1       2.639   0.963   0.330  0.00  0.00     0.020 C 
HETATM    8  C   UNK N   1       4.172   0.578   0.332  0.00  0.00     0.201 C 
HETATM    9  C   UNK N   1       2.055   0.894  -1.145  0.00  0.00     0.008 C 
HETATM   10  C   UNK N   1       0.651   1.595  -1.418  0.00  0.00    -0.033 C 
HETATM   11  C   UNK N   1      -0.171   0.445  -2.121  0.00  0.00     0.028 C 
HETATM   12  C   UNK N   1       0.923  -0.352  -2.855  0.00  0.00     0.009 C 
HETATM   13  C   UNK N   1       1.959  -0.513  -1.760  0.00  0.00     0.007 C 
HETATM   14  C   UNK N   1      -0.024   2.080  -0.094  0.00  0.00     0.012 C 
HETATM   15  C   UNK N   1       0.898   2.778   0.936  0.00  0.00     0.034 C 
HETATM   16  C   UNK N   1       0.834   2.805  -2.382  0.00  0.00     0.016 C 
HETATM   17  C   UNK N   1       1.953  -0.060   1.296  0.00  0.00     0.021 C 
HETATM   18  C   UNK N   1       4.547   4.632  -1.235  0.00  0.00     0.049 C 
HETATM   19  C   UNK N   1       4.031   5.067   1.168  0.00  0.00     0.049 C 
ENDROOT
BRANCH  11  20
HETATM   20  C   UNK N   1      -1.459   0.738  -2.983  0.00  0.00     0.063 C 
HETATM   21  C   UNK N   1      -2.102  -0.651  -3.425  0.00  0.00     0.048 C 
HETATM   22  C   UNK N   1      -3.654  -0.626  -3.671  0.00  0.00    -0.035 C 
HETATM   23  C   UNK N   1      -4.065   0.783  -4.082  0.00  0.00     0.029 C 
HETATM   24  C   UNK N   1      -4.090  -1.386  -4.932  0.00  0.00     0.012 C 
HETATM   25  C   UNK N   1      -4.409  -1.183  -2.423  0.00  0.00     0.016 C 
HETATM   26  C   UNK N   1      -5.488   0.667  -4.687  0.00  0.00     0.065 C 
HETATM   27  C   UNK N   1      -3.812   1.837  -2.988  0.00  0.00     0.011 C 
HETATM   28  C   UNK N   1      -5.474  -0.797  -5.265  0.00  0.00     0.039 C 
HETATM   29  C   UNK N   1      -2.518   1.537  -2.183  0.00  0.00     0.039 C 
BRANCH  20  30
HETATM   30  O   UNK N   1      -1.136   1.517  -4.114  0.00  0.00    -0.389 OA
HETATM   31  H   UNK N   1      -0.565   0.979  -4.720  0.00  0.00     0.210 HD
ENDBRANCH  20  30
BRANCH  26  32
HETATM   32  O   UNK N   1      -6.399   0.748  -3.609  0.00  0.00    -0.389 OA
HETATM   33  H   UNK N   1      -7.264   0.344  -3.876  0.00  0.00     0.210 HD
ENDBRANCH  26  32
BRANCH  26  34
HETATM   34  C   UNK N   1      -5.833   1.803  -5.719  0.00  0.00     0.012 C 
HETATM   35  C   UNK N   1      -4.865   1.894  -6.918  0.00  0.00     0.012 C 
HETATM   36  C   UNK N   1      -7.267   1.658  -6.264  0.00  0.00     0.012 C 
ENDBRANCH  26  34
ENDBRANCH  11  20
BRANCH   8  37
HETATM   37  O   UNK N   1       4.613   0.333   1.647  0.00  0.00    -0.387 OA
HETATM   38  H   UNK N   1       5.459  -0.184   1.584  0.00  0.00     0.210 HD
ENDBRANCH   8  37
BRANCH   3  39
HETATM   39  O   UNK N   1       6.546   3.461   0.339  0.00  0.00    -0.385 OA
HETATM   40  H   UNK N   1       7.174   2.830   0.779  0.00  0.00     0.210 HD
ENDBRANCH   3  39
TORSDOF 6
