REMARK  6 active torsions:
REMARK  status: ('A' for Active; 'I' for Inactive)
REMARK    1  A    between atoms: C_7  and  O_8 
REMARK    2  A    between atoms: C_10  and  O_11 
REMARK    3  A    between atoms: C_15  and  C_16 
REMARK    4  A    between atoms: C_16  and  O_17 
REMARK    5  A    between atoms: C_22  and  O_23 
REMARK    6  A    between atoms: C_22  and  C_25 
ROOT
HETATM    1  O   UNK N   1      -5.004   2.225  -0.954  0.00  0.00    -0.292 OA
HETATM    2  C   UNK N   1      -4.407   2.845  -1.824  0.00  0.00     0.191 C 
HETATM    3  C   UNK N   1      -3.907   4.262  -1.533  0.00  0.00     0.117 C 
HETATM    4  O   UNK N   1      -2.495   4.363  -1.718  0.00  0.00    -0.367 OA
HETATM    5  C   UNK N   1      -1.754   3.248  -1.220  0.00  0.00     0.134 C 
HETATM    6  C   UNK N   1      -1.521   2.106  -2.314  0.00  0.00     0.015 C 
HETATM    7  C   UNK N   1      -2.553   2.257  -3.503  0.00  0.00     0.165 C 
HETATM    8  C   UNK N   1      -4.064   2.143  -3.128  0.00  0.00     0.220 C 
HETATM    9  C   UNK N   1      -0.041   2.213  -2.897  0.00  0.00     0.007 C 
HETATM   10  C   UNK N   1       1.136   2.314  -1.846  0.00  0.00    -0.033 C 
HETATM   11  C   UNK N   1       1.829   0.891  -1.922  0.00  0.00     0.028 C 
HETATM   12  C   UNK N   1       1.766   0.642  -3.455  0.00  0.00     0.009 C 
HETATM   13  C   UNK N   1       0.357   1.055  -3.849  0.00  0.00     0.007 C 
HETATM   14  C   UNK N   1       0.605   2.747  -0.441  0.00  0.00     0.012 C 
HETATM   15  C   UNK N   1      -0.474   3.819  -0.583  0.00  0.00     0.034 C 
HETATM   16  C   UNK N   1       2.126   3.442  -2.322  0.00  0.00     0.016 C 
HETATM   17  C   UNK N   1      -1.769   0.718  -1.625  0.00  0.00     0.021 C 
HETATM   18  C   UNK N   1      -4.267   4.715  -0.097  0.00  0.00     0.054 C 
HETATM   19  C   UNK N   1      -4.581   5.237  -2.512  0.00  0.00     0.054 C 
ENDROOT
BRANCH  11  20
HETATM   20  C   UNK N   1       3.301   0.676  -1.339  0.00  0.00     0.063 C 
HETATM   21  C   UNK N   1       3.524   1.041   0.181  0.00  0.00     0.048 C 
HETATM   22  C   UNK N   1       3.087  -0.021   1.244  0.00  0.00    -0.035 C 
HETATM   23  C   UNK N   1       3.763  -1.348   0.880  0.00  0.00     0.029 C 
HETATM   24  C   UNK N   1       3.729   0.197   2.624  0.00  0.00     0.012 C 
HETATM   25  C   UNK N   1       1.545  -0.082   1.426  0.00  0.00     0.016 C 
HETATM   26  C   UNK N   1       3.634  -2.252   2.135  0.00  0.00     0.065 C 
HETATM   27  C   UNK N   1       3.327  -1.846  -0.505  0.00  0.00     0.011 C 
HETATM   28  C   UNK N   1       3.653  -1.189   3.299  0.00  0.00     0.039 C 
HETATM   29  C   UNK N   1       3.813  -0.807  -1.544  0.00  0.00     0.039 C 
BRANCH  20  30
HETATM   30  O   UNK N   1       4.164   1.534  -2.058  0.00  0.00    -0.389 OA
HETATM   31  H   UNK N   1       4.443   1.102  -2.907  0.00  0.00     0.210 HD
ENDBRANCH  20  30
BRANCH  26  32
HETATM   32  O   UNK N   1       2.370  -2.878   2.061  0.00  0.00    -0.389 OA
HETATM   33  H   UNK N   1       2.102  -3.175   2.969  0.00  0.00     0.210 HD
ENDBRANCH  26  32
BRANCH  26  34
HETATM   34  C   UNK N   1       4.748  -3.365   2.237  0.00  0.00     0.012 C 
HETATM   35  C   UNK N   1       6.201  -2.833   2.242  0.00  0.00     0.012 C 
HETATM   36  C   UNK N   1       4.565  -4.246   3.489  0.00  0.00     0.012 C 
ENDBRANCH  26  34
ENDBRANCH  11  20
BRANCH   7  37
HETATM   37  O   UNK N   1      -2.332   3.495  -4.139  0.00  0.00    -0.392 OA
HETATM   38  H   UNK N   1      -2.618   3.404  -5.085  0.00  0.00     0.210 HD
ENDBRANCH   7  37
BRANCH   8  39
HETATM   39  O   UNK N   1      -4.420   0.785  -3.042  0.00  0.00    -0.385 OA
HETATM   40  H   UNK N   1      -5.395   0.726  -3.224  0.00  0.00     0.210 HD
ENDBRANCH   8  39
TORSDOF 6
