REMARK  6 active torsions:
REMARK  status: ('A' for Active; 'I' for Inactive)
REMARK    1  A    between atoms: C_2  and  O_3 
REMARK    2  A    between atoms: C_2  and  C_24 
REMARK    3  A    between atoms: O_3  and  C_4 
REMARK    4  A    between atoms: C_11  and  O_12 
REMARK    5  A    between atoms: C_24  and  C_25 
REMARK    6  A    between atoms: C_25  and  O_26 
ROOT
HETATM    1  C   UNK N   1      -0.484   0.537   1.095  0.00  0.00     0.157 C 
HETATM    2  C   UNK N   1       0.127  -0.756   1.678  0.00  0.00     0.003 C 
HETATM    3  C   UNK N   1       1.463  -0.978   1.768  0.00  0.00    -0.011 C 
HETATM    4  C   UNK N   1       2.429   0.137   1.434  0.00  0.00     0.036 C 
HETATM    5  C   UNK N   1       1.788   0.838   0.184  0.00  0.00     0.148 C 
HETATM    6  O   UNK N   1       2.813   1.438  -0.503  0.00  0.00    -0.341 OA
HETATM    7  C   UNK N   1       3.923   0.732  -0.264  0.00  0.00     0.110 A 
HETATM    8  C   UNK N   1       5.112   0.791  -0.991  0.00  0.00     0.099 A 
HETATM    9  C   UNK N   1       6.196   0.011  -0.553  0.00  0.00     0.040 A 
HETATM   10  C   UNK N   1       6.083  -0.759   0.622  0.00  0.00     0.012 A 
HETATM   11  C   UNK N   1       4.872  -0.775   1.348  0.00  0.00    -0.020 A 
HETATM   12  C   UNK N   1       3.784  -0.070   0.839  0.00  0.00     0.001 A 
HETATM   13  C   UNK N   1       4.778  -1.430   2.694  0.00  0.00     0.308 C 
HETATM   14  N   UNK N   1       4.601  -0.395   3.729  0.00  0.00     0.087 N 
HETATM   15  C   UNK N   1       3.236   0.126   3.915  0.00  0.00     0.271 C 
HETATM   16  C   UNK N   1       2.663   0.963   2.736  0.00  0.00     0.051 C 
HETATM   17  H   UNK N   1       5.287   0.388   3.607  0.00  0.00     0.316 HD
HETATM   18  C   UNK N   1       0.555   1.607   0.602  0.00  0.00     0.070 C 
ENDROOT
BRANCH   1  19
HETATM   19  O   UNK N   1      -1.273   0.147   0.026  0.00  0.00    -0.312 OA
BRANCH  19  20
HETATM   20  C   UNK N   1      -2.207   0.954  -0.545  0.00  0.00     0.261 C 
HETATM   21  O   UNK N   1      -2.365   2.099  -0.140  0.00  0.00    -0.265 OA
BRANCH  20  22
HETATM   22  C   UNK N   1      -3.085   0.402  -1.637  0.00  0.00     0.142 C 
BRANCH  22  23
HETATM   23  C   UNK N   1      -4.303   1.288  -1.967  0.00  0.00     0.123 C 
HETATM   24  C   UNK N   1      -5.242   1.408  -0.751  0.00  0.00     0.040 C 
BRANCH  23  25
HETATM   25  O   UNK N   1      -5.002   0.700  -3.032  0.00  0.00    -0.395 OA
HETATM   26  H   UNK N   1      -5.687   1.358  -3.324  0.00  0.00     0.210 HD
ENDBRANCH  23  25
ENDBRANCH  22  23
ENDBRANCH  20  22
ENDBRANCH  19  20
ENDBRANCH   1  19
BRANCH   8  27
HETATM   27  O   UNK N   1       5.232   1.574  -2.081  0.00  0.00    -0.358 OA
HETATM   28  H   UNK N   1       4.499   2.123  -2.396  0.00  0.00     0.218 HD
ENDBRANCH   8  27
TORSDOF 6
