REMARK  12 active torsions:
REMARK  status: ('A' for Active; 'I' for Inactive)
REMARK    1  A    between atoms: C_2  and  O_3 
REMARK    2  A    between atoms: C_2  and  C_5 
REMARK    3  A    between atoms: C_8  and  O_9 
REMARK    4  A    between atoms: O_9  and  C_10 
REMARK    5  A    between atoms: C_12  and  C_22 
REMARK    6  A    between atoms: C_13  and  O_14 
REMARK    7  A    between atoms: C_16  and  O_17 
REMARK    8  A    between atoms: C_19  and  O_20 
REMARK    9  A    between atoms: C_22  and  O_23 
REMARK   10  A    between atoms: C_26  and  C_27 
REMARK   11  A    between atoms: C_27  and  C_28 
REMARK   12  A    between atoms: C_28  and  O_30 
ROOT
HETATM    1  C   UNK N   1       2.644  -0.940  -2.379  0.00  0.00     0.048 C 
HETATM    2  C   UNK N   1       1.486  -1.415  -2.908  0.00  0.00     0.152 C 
HETATM    3  O   UNK N   1       0.271  -1.098  -2.380  0.00  0.00    -0.327 OA
HETATM    4  C   UNK N   1       0.073  -0.093  -1.448  0.00  0.00     0.299 C 
HETATM    5  C   UNK N   1       1.253  -0.094  -0.489  0.00  0.00    -0.020 C 
HETATM    6  C   UNK N   1       2.622  -0.013  -1.157  0.00  0.00     0.070 C 
HETATM    7  C   UNK N   1       1.067  -0.206   0.857  0.00  0.00    -0.023 C 
HETATM    8  C   UNK N   1       2.148  -0.185   1.909  0.00  0.00     0.036 C 
ENDROOT
BRANCH   4   9
HETATM    9  O   UNK N   1      -1.156  -0.276  -0.763  0.00  0.00    -0.324 OA
BRANCH   9  10
HETATM   10  C   UNK N   1      -2.266  -0.292  -1.642  0.00  0.00     0.295 C 
HETATM   11  O   UNK N   1      -2.346   0.939  -2.347  0.00  0.00    -0.348 OA
HETATM   12  C   UNK N   1      -3.419   0.920  -3.275  0.00  0.00     0.179 C 
HETATM   13  C   UNK N   1      -4.765   0.849  -2.516  0.00  0.00     0.180 C 
HETATM   14  C   UNK N   1      -4.786  -0.439  -1.674  0.00  0.00     0.183 C 
HETATM   15  C   UNK N   1      -3.535  -0.475  -0.782  0.00  0.00     0.204 C 
BRANCH  12  16
HETATM   16  C   UNK N   1      -3.332   2.186  -4.133  0.00  0.00     0.198 C 
BRANCH  16  17
HETATM   17  O   UNK N   1      -2.104   2.208  -4.807  0.00  0.00    -0.398 OA
HETATM   18  H   UNK N   1      -2.094   3.047  -5.336  0.00  0.00     0.209 HD
ENDBRANCH  16  17
ENDBRANCH  12  16
BRANCH  13  19
HETATM   19  O   UNK N   1      -5.833   0.844  -3.428  0.00  0.00    -0.390 OA
HETATM   20  H   UNK N   1      -6.623   1.208  -2.949  0.00  0.00     0.210 HD
ENDBRANCH  13  19
BRANCH  14  21
HETATM   21  O   UNK N   1      -5.936  -0.487  -0.869  0.00  0.00    -0.390 OA
HETATM   22  H   UNK N   1      -6.676  -0.818  -1.440  0.00  0.00     0.210 HD
ENDBRANCH  14  21
BRANCH  15  23
HETATM   23  O   UNK N   1      -3.480  -1.668  -0.038  0.00  0.00    -0.388 OA
HETATM   24  H   UNK N   1      -3.406  -2.422  -0.680  0.00  0.00     0.210 HD
ENDBRANCH  15  23
ENDBRANCH   9  10
ENDBRANCH   4   9
BRANCH   6  25
HETATM   25  C   UNK N   1       2.902   1.460  -1.547  0.00  0.00     0.124 C 
BRANCH  25  26
HETATM   26  C   UNK N   1       4.253   1.689  -2.160  0.00  0.00     0.140 C 
HETATM   27  O   UNK N   1       5.266   1.455  -1.518  0.00  0.00    -0.650 OA
BRANCH  26  28
HETATM   28  O   UNK N   1       4.344   2.183  -3.414  0.00  0.00    -0.776 OA
HETATM   29  H   UNK N   1       5.203   2.351  -3.826  0.00  0.00     0.167 HD
ENDBRANCH  26  28
ENDBRANCH  25  26
ENDBRANCH   6  25
BRANCH   1  30
HETATM   30  C   UNK N   1       3.945  -1.389  -2.955  0.00  0.00     0.291 C 
HETATM   31  O   UNK N   1       3.976  -1.958  -4.037  0.00  0.00    -0.260 OA
BRANCH  30  32
HETATM   32  O   UNK N   1       5.078  -1.269  -2.213  0.00  0.00    -0.323 OA
HETATM   33  C   UNK N   1       6.299  -1.772  -2.610  0.00  0.00     0.213 C 
ENDBRANCH  30  32
ENDBRANCH   1  30
TORSDOF 12
