REMARK  5 active torsions:
REMARK  status: ('A' for Active; 'I' for Inactive)
REMARK    1  A    between atoms: C_9  and  C_10 
REMARK    2  A    between atoms: C_10  and  C_11 
REMARK    3  A    between atoms: C_13  and  O_14 
REMARK    4  A    between atoms: C_16  and  O_17 
REMARK    5  A    between atoms: C_22  and  C_23 
ROOT
HETATM    1  O   UNK N   1       3.394   1.399  -2.443  0.00  0.00    -0.293 OA
HETATM    2  C   UNK N   1       3.015   1.071  -1.330  0.00  0.00     0.154 C 
HETATM    3  C   UNK N   1       3.916   1.321  -0.171  0.00  0.00     0.051 C 
HETATM    4  C   UNK N   1       3.634   0.852   1.055  0.00  0.00     0.010 C 
HETATM    5  C   UNK N   1       2.362   0.144   1.314  0.00  0.00    -0.062 C 
HETATM    6  C   UNK N   1       2.171  -0.527   2.458  0.00  0.00     0.019 C 
HETATM    7  C   UNK N   1       1.264   0.258   0.288  0.00  0.00     0.037 C 
HETATM    8  C   UNK N   1       1.753   0.219  -1.168  0.00  0.00     0.073 C 
HETATM    9  C   UNK N   1       0.471   0.746  -1.860  0.00  0.00     0.003 C 
HETATM   10  C   UNK N   1       0.129   1.991  -1.053  0.00  0.00     0.014 C 
HETATM   11  C   UNK N   1       0.514   1.616   0.394  0.00  0.00     0.017 C 
ENDROOT
BRANCH   9  12
HETATM   12  C   UNK N   1       0.529   0.913  -3.397  0.00  0.00     0.044 C 
BRANCH  12  13
HETATM   13  C   UNK N   1      -0.751   1.442  -4.022  0.00  0.00    -0.055 A 
HETATM   14  C   UNK N   1      -2.011   0.938  -3.651  0.00  0.00     0.046 A 
HETATM   15  C   UNK N   1      -3.180   1.430  -4.247  0.00  0.00     0.099 A 
HETATM   16  C   UNK N   1      -3.109   2.405  -5.251  0.00  0.00     0.101 A 
HETATM   17  C   UNK N   1      -1.845   2.903  -5.634  0.00  0.00     0.040 A 
HETATM   18  C   UNK N   1      -0.683   2.434  -5.016  0.00  0.00     0.010 A 
BRANCH  15  19
HETATM   19  O   UNK N   1      -4.388   0.964  -3.859  0.00  0.00    -0.358 OA
HETATM   20  H   UNK N   1      -4.478   0.314  -3.147  0.00  0.00     0.218 HD
ENDBRANCH  15  19
BRANCH  16  21
HETATM   21  O   UNK N   1      -4.262   2.836  -5.826  0.00  0.00    -0.353 OA
HETATM   22  C   UNK N   1      -4.349   3.731  -6.873  0.00  0.00     0.210 C 
ENDBRANCH  16  21
ENDBRANCH  12  13
ENDBRANCH   9  12
BRANCH  11  23
HETATM   23  C   UNK N   1      -0.682   1.480   1.308  0.00  0.00    -0.032 C 
HETATM   24  C   UNK N   1      -0.818   2.232   2.404  0.00  0.00     0.007 C 
ENDBRANCH  11  23
TORSDOF 5
