REMARK  5 active torsions:
REMARK  status: ('A' for Active; 'I' for Inactive)
REMARK    1  A    between atoms: C_9  and  C_10 
REMARK    2  A    between atoms: C_10  and  C_11 
REMARK    3  A    between atoms: C_13  and  O_14 
REMARK    4  A    between atoms: C_16  and  O_17 
REMARK    5  A    between atoms: C_22  and  C_23 
ROOT
HETATM    1  O   UNK N   1       3.348   1.542  -2.375  0.00  0.00    -0.293 OA
HETATM    2  C   UNK N   1       3.131   1.190  -1.226  0.00  0.00     0.154 C 
HETATM    3  C   UNK N   1       4.257   1.005  -0.269  0.00  0.00     0.051 C 
HETATM    4  C   UNK N   1       4.048   0.389   0.916  0.00  0.00     0.010 C 
HETATM    5  C   UNK N   1       2.710  -0.189   1.233  0.00  0.00    -0.062 C 
HETATM    6  C   UNK N   1       2.392  -0.503   2.499  0.00  0.00     0.019 C 
HETATM    7  C   UNK N   1       1.758  -0.381   0.055  0.00  0.00     0.037 C 
HETATM    8  C   UNK N   1       1.722   0.910  -0.737  0.00  0.00     0.073 C 
HETATM    9  C   UNK N   1       0.655   0.602  -1.789  0.00  0.00     0.003 C 
HETATM   10  C   UNK N   1      -0.415  -0.198  -1.001  0.00  0.00     0.014 C 
HETATM   11  C   UNK N   1       0.269  -0.647   0.309  0.00  0.00     0.017 C 
ENDROOT
BRANCH   9  12
HETATM   12  C   UNK N   1       0.118   1.838  -2.532  0.00  0.00     0.044 C 
BRANCH  12  13
HETATM   13  C   UNK N   1      -0.936   1.476  -3.546  0.00  0.00    -0.055 A 
HETATM   14  C   UNK N   1      -2.290   1.480  -3.179  0.00  0.00     0.046 A 
HETATM   15  C   UNK N   1      -3.289   1.139  -4.111  0.00  0.00     0.101 A 
HETATM   16  C   UNK N   1      -2.916   0.805  -5.429  0.00  0.00     0.099 A 
HETATM   17  C   UNK N   1      -1.563   0.810  -5.793  0.00  0.00     0.040 A 
HETATM   18  C   UNK N   1      -0.578   1.138  -4.858  0.00  0.00     0.010 A 
BRANCH  15  19
HETATM   19  O   UNK N   1      -4.608   1.120  -3.769  0.00  0.00    -0.353 OA
HETATM   20  C   UNK N   1      -5.104   1.395  -2.510  0.00  0.00     0.210 C 
ENDBRANCH  15  19
BRANCH  16  21
HETATM   21  O   UNK N   1      -3.842   0.479  -6.354  0.00  0.00    -0.358 OA
HETATM   22  H   UNK N   1      -4.789   0.460  -6.156  0.00  0.00     0.218 HD
ENDBRANCH  16  21
ENDBRANCH  12  13
ENDBRANCH   9  12
BRANCH  11  23
HETATM   23  C   UNK N   1      -0.155  -2.040   0.732  0.00  0.00    -0.032 C 
HETATM   24  C   UNK N   1       0.698  -3.062   0.886  0.00  0.00     0.007 C 
ENDBRANCH  11  23
TORSDOF 5
