REMARK  9 active torsions:
REMARK  status: ('A' for Active; 'I' for Inactive)
REMARK    1  A    between atoms: C_2  and  O_3 
REMARK    2  A    between atoms: C_2  and  C_14 
REMARK    3  A    between atoms: O_3  and  C_4 
REMARK    4  A    between atoms: C_4  and  C_5 
REMARK    5  A    between atoms: C_5  and  C_6 
REMARK    6  A    between atoms: C_9  and  O_10 
REMARK    7  A    between atoms: C_15  and  C_16 
REMARK    8  A    between atoms: C_18  and  O_19 
REMARK    9  A    between atoms: C_21  and  O_22 
ROOT
HETATM    1  O   UNK N   1       3.783   0.925  -2.948  0.00  0.00    -0.260 OA
HETATM    2  C   UNK N   1       2.827   0.523  -2.302  0.00  0.00     0.282 C 
ENDROOT
BRANCH   2   3
HETATM    3  O   UNK N   1       3.014  -0.147  -1.131  0.00  0.00    -0.318 OA
BRANCH   3   4
HETATM    4  C   UNK N   1       4.254  -0.441  -0.579  0.00  0.00     0.183 C 
BRANCH   4   5
HETATM    5  C   UNK N   1       4.414   0.328   0.731  0.00  0.00     0.065 C 
BRANCH   5   6
HETATM    6  C   UNK N   1       3.369  -0.079   1.736  0.00  0.00    -0.056 A 
HETATM    7  C   UNK N   1       3.492  -1.288   2.441  0.00  0.00     0.010 A 
HETATM    8  C   UNK N   1       2.521  -1.658   3.378  0.00  0.00     0.037 A 
HETATM    9  C   UNK N   1       1.414  -0.833   3.607  0.00  0.00     0.065 A 
HETATM   10  C   UNK N   1       1.285   0.370   2.899  0.00  0.00     0.037 A 
HETATM   11  C   UNK N   1       2.262   0.749   1.975  0.00  0.00     0.010 A 
BRANCH   9  12
HETATM   12  O   UNK N   1       0.480  -1.204   4.506  0.00  0.00    -0.361 OA
HETATM   13  H   UNK N   1      -0.299  -0.658   4.684  0.00  0.00     0.217 HD
ENDBRANCH   9  12
ENDBRANCH   5   6
ENDBRANCH   4   5
ENDBRANCH   3   4
ENDBRANCH   2   3
BRANCH   2  14
HETATM   14  C   UNK N   1       1.462   0.790  -2.811  0.00  0.00     0.083 C 
HETATM   15  C   UNK N   1       0.356   0.403  -2.146  0.00  0.00     0.017 C 
BRANCH  15  16
HETATM   16  C   UNK N   1      -1.041   0.638  -2.632  0.00  0.00    -0.033 A 
HETATM   17  C   UNK N   1      -2.114   0.216  -1.825  0.00  0.00     0.051 A 
HETATM   18  C   UNK N   1      -3.442   0.405  -2.241  0.00  0.00     0.102 A 
HETATM   19  C   UNK N   1      -3.709   1.015  -3.473  0.00  0.00     0.099 A 
HETATM   20  C   UNK N   1      -2.651   1.440  -4.282  0.00  0.00     0.040 A 
HETATM   21  C   UNK N   1      -1.328   1.257  -3.870  0.00  0.00     0.014 A 
BRANCH  18  22
HETATM   22  O   UNK N   1      -4.463  -0.005  -1.458  0.00  0.00    -0.353 OA
HETATM   23  C   UNK N   1      -4.967   0.794  -0.456  0.00  0.00     0.210 C 
ENDBRANCH  18  22
BRANCH  19  24
HETATM   24  O   UNK N   1      -4.988   1.190  -3.870  0.00  0.00    -0.358 OA
HETATM   25  H   UNK N   1      -5.206   1.609  -4.715  0.00  0.00     0.218 HD
ENDBRANCH  19  24
ENDBRANCH  15  16
ENDBRANCH   2  14
TORSDOF 9
