REMARK  5 active torsions:
REMARK  status: ('A' for Active; 'I' for Inactive)
REMARK    1  A    between atoms: C_2  and  O_3 
REMARK    2  A    between atoms: C_2  and  C_6 
REMARK    3  A    between atoms: O_3  and  C_4 
REMARK    4  A    between atoms: C_7  and  C_8 
REMARK    5  A    between atoms: C_11  and  O_12 
ROOT
HETATM    1  C   UNK N   1      -1.506   0.757  -2.048  0.00  0.00    -0.036 A 
HETATM    2  C   UNK N   1      -2.564  -0.095  -1.693  0.00  0.00     0.014 A 
HETATM    3  C   UNK N   1      -3.796  -0.007  -2.347  0.00  0.00     0.037 A 
HETATM    4  C   UNK N   1      -3.993   0.950  -3.352  0.00  0.00     0.065 A 
HETATM    5  C   UNK N   1      -2.952   1.816  -3.697  0.00  0.00     0.037 A 
HETATM    6  C   UNK N   1      -1.713   1.721  -3.057  0.00  0.00     0.014 A 
ENDROOT
BRANCH   1   7
HETATM    7  C   UNK N   1      -0.208   0.610  -1.339  0.00  0.00     0.017 C 
HETATM    8  C   UNK N   1       0.953   1.115  -1.795  0.00  0.00     0.083 C 
BRANCH   8   9
HETATM    9  C   UNK N   1       2.213   0.936  -1.046  0.00  0.00     0.282 C 
HETATM   10  O   UNK N   1       3.264   1.316  -1.536  0.00  0.00    -0.260 OA
BRANCH   9  11
HETATM   11  O   UNK N   1       2.185   0.385   0.196  0.00  0.00    -0.319 OA
BRANCH  11  12
HETATM   12  C   UNK N   1       3.301   0.231   0.989  0.00  0.00     0.174 C 
HETATM   13  C   UNK N   1       2.877  -0.341   2.333  0.00  0.00     0.034 C 
ENDBRANCH  11  12
ENDBRANCH   9  11
ENDBRANCH   8   9
ENDBRANCH   1   7
BRANCH   4  14
HETATM   14  O   UNK N   1      -5.176   1.042  -3.991  0.00  0.00    -0.361 OA
HETATM   15  H   UNK N   1      -5.912   0.448  -3.786  0.00  0.00     0.217 HD
ENDBRANCH   4  14
TORSDOF 5
