REMARK  6 active torsions:
REMARK  status: ('A' for Active; 'I' for Inactive)
REMARK    1  A    between atoms: C_5  and  O_6 
REMARK    2  A    between atoms: C_8  and  O_9 
REMARK    3  A    between atoms: O_9  and  C_10 
REMARK    4  A    between atoms: C_10  and  C_11 
REMARK    5  A    between atoms: C_15  and  O_16 
REMARK    6  A    between atoms: C_27  and  O_28 
ROOT
HETATM    1  C   UNK N   1       0.685   1.364   0.984  0.00  0.00     0.185 C 
ENDROOT
BRANCH   1   2
HETATM    2  O   UNK N   1      -0.361   0.460   0.911  0.00  0.00    -0.345 OA
BRANCH   2   3
HETATM    3  C   UNK N   1      -1.627   0.854   0.626  0.00  0.00     0.138 A 
HETATM    4  C   UNK N   1      -2.130   0.608  -0.666  0.00  0.00     0.139 A 
HETATM    5  C   UNK N   1      -3.436   1.047  -0.997  0.00  0.00     0.126 A 
HETATM    6  O   UNK N   1      -3.935   0.845  -2.217  0.00  0.00    -0.272 OA
HETATM    7  C   UNK N   1      -4.216   1.716  -0.032  0.00  0.00     0.004 A 
HETATM    8  C   UNK N   1      -5.147   1.250  -2.580  0.00  0.00     0.288 A 
HETATM    9  O   UNK N   1      -5.540   1.034  -3.713  0.00  0.00    -0.260 OA
HETATM   10  C   UNK N   1      -5.968   1.921  -1.674  0.00  0.00     0.083 A 
HETATM   11  C   UNK N   1      -5.497   2.154  -0.385  0.00  0.00     0.020 A 
HETATM   12  C   UNK N   1      -3.713   1.939   1.251  0.00  0.00     0.054 A 
HETATM   13  C   UNK N   1      -2.414   1.511   1.594  0.00  0.00     0.105 A 
BRANCH   4  14
HETATM   14  O   UNK N   1      -1.314  -0.034  -1.551  0.00  0.00    -0.351 OA
HETATM   15  C   UNK N   1      -1.602  -0.344  -2.866  0.00  0.00     0.210 C 
ENDBRANCH   4  14
BRANCH  13  16
HETATM   16  O   UNK N   1      -1.905   1.712   2.841  0.00  0.00    -0.353 OA
HETATM   17  C   UNK N   1      -2.582   2.331   3.876  0.00  0.00     0.210 C 
ENDBRANCH  13  16
ENDBRANCH   2   3
ENDBRANCH   1   2
BRANCH   1  18
HETATM   18  C   UNK N   1       2.026   0.635   0.690  0.00  0.00     0.047 C 
HETATM   19  C   UNK N   1       3.292   1.574   0.509  0.00  0.00    -0.030 C 
HETATM   20  C   UNK N   1       4.491   0.646   0.007  0.00  0.00     0.005 C 
HETATM   21  C   UNK N   1       3.016   2.644  -0.589  0.00  0.00     0.013 C 
HETATM   22  C   UNK N   1       3.560   2.300   1.864  0.00  0.00     0.016 C 
HETATM   23  C   UNK N   1       5.784   1.391  -0.539  0.00  0.00    -0.017 C 
HETATM   24  C   UNK N   1       4.797  -0.478   1.042  0.00  0.00     0.010 C 
HETATM   25  C   UNK N   1       5.337   2.467  -1.584  0.00  0.00     0.126 C 
HETATM   26  C   UNK N   1       6.709   0.374  -1.268  0.00  0.00     0.018 C 
HETATM   27  C   UNK N   1       6.671   2.040   0.558  0.00  0.00     0.018 C 
HETATM   28  C   UNK N   1       4.276   3.423  -1.005  0.00  0.00     0.033 C 
HETATM   29  C   UNK N   1       3.557  -1.341   1.303  0.00  0.00     0.034 C 
HETATM   30  C   UNK N   1       2.389  -0.470   1.682  0.00  0.00    -0.082 C 
HETATM   31  C   UNK N   1       1.744  -0.677   2.846  0.00  0.00     0.015 C 
BRANCH  25  32
HETATM   32  O   UNK N   1       4.807   1.839  -2.727  0.00  0.00    -0.395 OA
HETATM   33  H   UNK N   1       4.744   2.531  -3.437  0.00  0.00     0.210 HD
ENDBRANCH  25  32
ENDBRANCH   1  18
TORSDOF 6
