REMARK  6 active torsions:
REMARK  status: ('A' for Active; 'I' for Inactive)
REMARK    1  A    between atoms: C_5  and  O_6 
REMARK    2  A    between atoms: C_8  and  O_9 
REMARK    3  A    between atoms: O_9  and  C_10 
REMARK    4  A    between atoms: C_10  and  C_11 
REMARK    5  A    between atoms: C_15  and  O_16 
REMARK    6  A    between atoms: C_27  and  O_28 
ROOT
HETATM    1  C   UNK N   1      -1.698   2.060   0.052  0.00  0.00     0.185 C 
ENDROOT
BRANCH   1   2
HETATM    2  O   UNK N   1      -0.655   2.360   0.912  0.00  0.00    -0.345 OA
BRANCH   2   3
HETATM    3  C   UNK N   1       0.508   1.664   0.877  0.00  0.00     0.138 A 
HETATM    4  C   UNK N   1       1.562   2.104   0.046  0.00  0.00     0.139 A 
HETATM    5  C   UNK N   1       2.768   1.354   0.006  0.00  0.00     0.126 A 
HETATM    6  O   UNK N   1       3.785   1.732  -0.772  0.00  0.00    -0.272 OA
HETATM    7  C   UNK N   1       2.898   0.192   0.795  0.00  0.00     0.004 A 
HETATM    8  C   UNK N   1       4.930   1.059  -0.845  0.00  0.00     0.288 A 
HETATM    9  O   UNK N   1       5.818   1.461  -1.577  0.00  0.00    -0.260 OA
HETATM   10  C   UNK N   1       5.119  -0.099  -0.092  0.00  0.00     0.083 A 
HETATM   11  C   UNK N   1       4.091  -0.537   0.737  0.00  0.00     0.020 A 
HETATM   12  C   UNK N   1       1.851  -0.221   1.621  0.00  0.00     0.054 A 
HETATM   13  C   UNK N   1       0.651   0.512   1.671  0.00  0.00     0.105 A 
BRANCH   4  14
HETATM   14  O   UNK N   1       1.368   3.240  -0.683  0.00  0.00    -0.351 OA
HETATM   15  C   UNK N   1       2.279   3.848  -1.525  0.00  0.00     0.210 C 
ENDBRANCH   4  14
BRANCH  13  16
HETATM   16  O   UNK N   1      -0.382   0.137   2.475  0.00  0.00    -0.353 OA
HETATM   17  C   UNK N   1      -0.365  -0.951   3.326  0.00  0.00     0.210 C 
ENDBRANCH  13  16
ENDBRANCH   2   3
ENDBRANCH   1   2
BRANCH   1  18
HETATM   18  C   UNK N   1      -2.892   3.027   0.284  0.00  0.00     0.047 C 
HETATM   19  C   UNK N   1      -4.158   2.804  -0.650  0.00  0.00    -0.030 C 
HETATM   20  C   UNK N   1      -4.861   1.424  -0.275  0.00  0.00     0.005 C 
HETATM   21  C   UNK N   1      -3.740   2.749  -2.148  0.00  0.00     0.013 C 
HETATM   22  C   UNK N   1      -5.065   4.061  -0.441  0.00  0.00     0.016 C 
HETATM   23  C   UNK N   1      -6.015   0.931  -1.256  0.00  0.00    -0.017 C 
HETATM   24  C   UNK N   1      -5.262   1.405   1.235  0.00  0.00     0.010 C 
HETATM   25  C   UNK N   1      -5.493   1.022  -2.732  0.00  0.00     0.126 C 
HETATM   26  C   UNK N   1      -6.326  -0.564  -0.957  0.00  0.00     0.018 C 
HETATM   27  C   UNK N   1      -7.365   1.685  -1.105  0.00  0.00     0.018 C 
HETATM   28  C   UNK N   1      -4.912   2.404  -3.082  0.00  0.00     0.033 C 
HETATM   29  C   UNK N   1      -4.053   1.657   2.149  0.00  0.00     0.034 C 
HETATM   30  C   UNK N   1      -3.356   2.924   1.728  0.00  0.00    -0.082 C 
HETATM   31  C   UNK N   1      -3.184   3.939   2.590  0.00  0.00     0.015 C 
BRANCH  25  32
HETATM   32  O   UNK N   1      -6.513   0.724  -3.656  0.00  0.00    -0.395 OA
HETATM   33  H   UNK N   1      -6.546  -0.261  -3.761  0.00  0.00     0.210 HD
ENDBRANCH  25  32
ENDBRANCH   1  18
TORSDOF 6
