REMARK  10 active torsions:
REMARK  status: ('A' for Active; 'I' for Inactive)
REMARK    1  A    between atoms: C_2  and  O_3 
REMARK    2  A    between atoms: O_3  and  C_4 
REMARK    3  A    between atoms: C_4  and  C_5 
REMARK    4  A    between atoms: C_6  and  C_7 
REMARK    5  A    between atoms: C_11  and  O_12 
REMARK    6  A    between atoms: C_20  and  O_21 
REMARK    7  A    between atoms: C_23  and  O_24 
REMARK    8  A    between atoms: C_26  and  O_27 
REMARK    9  A    between atoms: C_29  and  C_30 
REMARK   10  A    between atoms: C_30  and  O_31 
ROOT
HETATM    1  O   UNK N   1      -3.001  -0.443   0.369  0.00  0.00    -0.350 OA
ENDROOT
BRANCH   1   2
HETATM    2  C   UNK N   1      -3.113  -0.097  -1.004  0.00  0.00     0.292 C 
HETATM    3  O   UNK N   1      -3.961   1.053  -1.107  0.00  0.00    -0.348 OA
HETATM    4  C   UNK N   1      -5.323   0.752  -1.358  0.00  0.00     0.179 C 
HETATM    5  C   UNK N   1      -5.506   0.010  -2.716  0.00  0.00     0.180 C 
HETATM    6  C   UNK N   1      -4.220  -0.731  -3.147  0.00  0.00     0.183 C 
HETATM    7  C   UNK N   1      -3.540  -1.302  -1.907  0.00  0.00     0.204 C 
BRANCH   4   8
HETATM    8  C   UNK N   1      -5.987   0.047  -0.152  0.00  0.00     0.198 C 
BRANCH   8   9
HETATM    9  O   UNK N   1      -5.849   0.848   0.989  0.00  0.00    -0.398 OA
HETATM   10  H   UNK N   1      -6.377   0.407   1.704  0.00  0.00     0.209 HD
ENDBRANCH   8   9
ENDBRANCH   4   8
BRANCH   5  11
HETATM   11  O   UNK N   1      -5.838   0.915  -3.738  0.00  0.00    -0.390 OA
HETATM   12  H   UNK N   1      -6.800   1.136  -3.626  0.00  0.00     0.210 HD
ENDBRANCH   5  11
BRANCH   6  13
HETATM   13  O   UNK N   1      -4.528  -1.749  -4.064  0.00  0.00    -0.390 OA
HETATM   14  H   UNK N   1      -4.804  -1.302  -4.906  0.00  0.00     0.210 HD
ENDBRANCH   6  13
BRANCH   7  15
HETATM   15  O   UNK N   1      -2.399  -2.043  -2.260  0.00  0.00    -0.388 OA
HETATM   16  H   UNK N   1      -2.712  -2.925  -2.589  0.00  0.00     0.210 HD
ENDBRANCH   7  15
ENDBRANCH   1   2
BRANCH   1  17
HETATM   17  C   UNK N   1      -1.971  -1.368   0.676  0.00  0.00     0.143 C 
HETATM   18  C   UNK N   1      -2.015  -1.614   2.181  0.00  0.00     0.044 C 
BRANCH  17  19
HETATM   19  C   UNK N   1      -0.606  -0.835   0.327  0.00  0.00     0.003 C 
HETATM   20  C   UNK N   1       0.324  -1.611  -0.250  0.00  0.00     0.013 C 
BRANCH  20  21
HETATM   21  C   UNK N   1       1.670  -1.047  -0.624  0.00  0.00     0.117 A 
HETATM   22  O   UNK N   1       2.704  -1.669   0.092  0.00  0.00    -0.358 OA
HETATM   23  C   UNK N   1       2.471  -0.303   0.423  0.00  0.00     0.097 A 
HETATM   24  C   UNK N   1       3.683   0.538  -0.013  0.00  0.00     0.073 C 
HETATM   25  C   UNK N   1       2.106  -0.258   1.911  0.00  0.00     0.050 C 
HETATM   26  C   UNK N   1       3.681   0.898  -1.507  0.00  0.00     0.122 C 
HETATM   27  C   UNK N   1       3.458  -0.366  -2.347  0.00  0.00     0.044 C 
HETATM   28  C   UNK N   1       2.033  -0.957  -2.135  0.00  0.00    -0.007 C 
HETATM   29  C   UNK N   1       2.000  -2.361  -2.782  0.00  0.00     0.018 C 
HETATM   30  C   UNK N   1       0.971  -0.079  -2.837  0.00  0.00     0.018 C 
BRANCH  26  31
HETATM   31  O   UNK N   1       4.914   1.485  -1.827  0.00  0.00    -0.395 OA
HETATM   32  H   UNK N   1       4.799   1.931  -2.707  0.00  0.00     0.210 HD
ENDBRANCH  26  31
ENDBRANCH  20  21
ENDBRANCH  17  19
ENDBRANCH   1  17
TORSDOF 10
