REMARK  11 active torsions:
REMARK  status: ('A' for Active; 'I' for Inactive)
REMARK    1  A    between atoms: C_4  and  O_5 
REMARK    2  A    between atoms: C_7  and  C_26 
REMARK    3  A    between atoms: C_8  and  O_9 
REMARK    4  A    between atoms: C_14  and  C_16 
REMARK    5  A    between atoms: C_18  and  O_19 
REMARK    6  A    between atoms: C_21  and  O_22 
REMARK    7  A    between atoms: C_28  and  C_38 
REMARK    8  A    between atoms: C_29  and  O_30 
REMARK    9  A    between atoms: C_32  and  O_33 
REMARK   10  A    between atoms: C_35  and  O_36 
REMARK   11  A    between atoms: C_38  and  O_39 
ROOT
HETATM    1  O   UNK N   1      -3.351   1.385   1.812  0.00  0.00    -0.287 OA
HETATM    2  C   UNK N   1      -2.549   0.999   0.986  0.00  0.00     0.190 A 
HETATM    3  C   UNK N   1      -2.945   0.555  -0.307  0.00  0.00     0.082 A 
HETATM    4  C   UNK N   1      -4.302   0.503  -0.777  0.00  0.00     0.094 A 
HETATM    5  C   UNK N   1      -4.576  -0.002  -2.079  0.00  0.00     0.041 A 
HETATM    6  C   UNK N   1      -3.517  -0.451  -2.901  0.00  0.00     0.082 A 
HETATM    7  C   UNK N   1      -2.199  -0.365  -2.438  0.00  0.00     0.075 A 
HETATM    8  C   UNK N   1      -1.912   0.128  -1.175  0.00  0.00     0.095 A 
HETATM    9  O   UNK N   1      -0.639   0.171  -0.800  0.00  0.00    -0.309 OA
HETATM   10  C   UNK N   1      -0.243   0.567   0.402  0.00  0.00     0.090 A 
HETATM   11  C   UNK N   1      -1.198   0.987   1.335  0.00  0.00     0.094 A 
ENDROOT
BRANCH   5  12
HETATM   12  C   UNK N   1      -6.018  -0.072  -2.590  0.00  0.00     0.192 C 
HETATM   13  O   UNK N   1      -6.318  -1.425  -2.888  0.00  0.00    -0.368 OA
HETATM   14  C   UNK N   1      -7.692  -1.587  -3.201  0.00  0.00     0.177 C 
HETATM   15  C   UNK N   1      -8.023  -0.811  -4.506  0.00  0.00     0.180 C 
HETATM   16  C   UNK N   1      -7.678   0.679  -4.332  0.00  0.00     0.181 C 
HETATM   17  C   UNK N   1      -6.226   0.823  -3.842  0.00  0.00     0.183 C 
BRANCH  14  18
HETATM   18  C   UNK N   1      -7.960  -3.094  -3.339  0.00  0.00     0.198 C 
BRANCH  18  19
HETATM   19  O   UNK N   1      -9.323  -3.357  -3.543  0.00  0.00    -0.398 OA
HETATM   20  H   UNK N   1      -9.457  -3.464  -4.520  0.00  0.00     0.209 HD
ENDBRANCH  18  19
ENDBRANCH  14  18
BRANCH  15  21
HETATM   21  O   UNK N   1      -9.372  -0.951  -4.877  0.00  0.00    -0.390 OA
HETATM   22  H   UNK N   1      -9.927  -0.642  -4.113  0.00  0.00     0.210 HD
ENDBRANCH  15  21
BRANCH  16  23
HETATM   23  O   UNK N   1      -7.861   1.337  -5.560  0.00  0.00    -0.390 OA
HETATM   24  H   UNK N   1      -7.714   2.305  -5.403  0.00  0.00     0.210 HD
ENDBRANCH  16  23
BRANCH  17  25
HETATM   25  O   UNK N   1      -5.981   2.172  -3.530  0.00  0.00    -0.390 OA
HETATM   26  H   UNK N   1      -4.998   2.280  -3.452  0.00  0.00     0.210 HD
ENDBRANCH  17  25
ENDBRANCH   5  12
BRANCH   4  27
HETATM   27  O   UNK N   1      -5.355   0.916  -0.030  0.00  0.00    -0.359 OA
HETATM   28  H   UNK N   1      -5.331   1.307   0.847  0.00  0.00     0.218 HD
ENDBRANCH   4  27
BRANCH   6  29
HETATM   29  O   UNK N   1      -3.795  -0.968  -4.130  0.00  0.00    -0.355 OA
HETATM   30  C   UNK N   1      -2.863  -1.450  -5.028  0.00  0.00     0.210 C 
ENDBRANCH   6  29
BRANCH  10  31
HETATM   31  C   UNK N   1       1.211   0.544   0.709  0.00  0.00     0.001 A 
HETATM   32  C   UNK N   1       2.138   0.582  -0.347  0.00  0.00     0.053 A 
HETATM   33  C   UNK N   1       3.517   0.566  -0.091  0.00  0.00     0.099 A 
HETATM   34  C   UNK N   1       3.986   0.479   1.227  0.00  0.00     0.101 A 
HETATM   35  C   UNK N   1       3.058   0.427   2.286  0.00  0.00     0.040 A 
HETATM   36  C   UNK N   1       1.687   0.471   2.030  0.00  0.00     0.017 A 
BRANCH  33  37
HETATM   37  O   UNK N   1       4.398   0.636  -1.111  0.00  0.00    -0.358 OA
HETATM   38  H   UNK N   1       4.109   0.726  -2.031  0.00  0.00     0.218 HD
ENDBRANCH  33  37
BRANCH  34  39
HETATM   39  O   UNK N   1       5.329   0.446   1.442  0.00  0.00    -0.353 OA
HETATM   40  C   UNK N   1       5.930   0.318   2.678  0.00  0.00     0.210 C 
ENDBRANCH  34  39
ENDBRANCH  10  31
TORSDOF 11
