REMARK  9 active torsions:
REMARK  status: ('A' for Active; 'I' for Inactive)
REMARK    1  A    between atoms: C_6  and  C_23 
REMARK    2  A    between atoms: C_7  and  O_8 
REMARK    3  A    between atoms: O_8  and  C_9 
REMARK    4  A    between atoms: C_9  and  C_11 
REMARK    5  A    between atoms: C_12  and  C_13 
REMARK    6  A    between atoms: C_15  and  O_16 
REMARK    7  A    between atoms: C_18  and  O_19 
REMARK    8  A    between atoms: C_30  and  O_31 
REMARK    9  A    between atoms: C_34  and  O_35 
ROOT
HETATM    1  O   UNK N   1       4.266   1.786  -2.565  0.00  0.00    -0.289 OA
HETATM    2  C   UNK N   1       4.579   1.288  -1.497  0.00  0.00     0.197 C 
HETATM    3  C   UNK N   1       5.927   1.498  -0.895  0.00  0.00     0.079 A 
HETATM    4  C   UNK N   1       6.054   1.197   0.481  0.00  0.00     0.089 A 
HETATM    5  O   UNK N   1       4.973   0.792   1.203  0.00  0.00    -0.337 OA
HETATM    6  C   UNK N   1       3.666   0.961   0.759  0.00  0.00     0.199 C 
HETATM    7  C   UNK N   1       3.558   0.505  -0.704  0.00  0.00     0.240 C 
HETATM    8  C   UNK N   1       7.287   1.330   1.123  0.00  0.00     0.074 A 
HETATM    9  C   UNK N   1       8.401   1.792   0.422  0.00  0.00     0.071 A 
HETATM   10  C   UNK N   1       8.283   2.125  -0.932  0.00  0.00     0.074 A 
HETATM   11  C   UNK N   1       7.064   1.985  -1.606  0.00  0.00     0.085 A 
ENDROOT
BRANCH   7  12
HETATM   12  O   UNK N   1       2.297   0.771  -1.210  0.00  0.00    -0.302 OA
BRANCH  12  13
HETATM   13  C   UNK N   1       1.362  -0.149  -1.550  0.00  0.00     0.283 C 
HETATM   14  O   UNK N   1       1.509  -1.330  -1.265  0.00  0.00    -0.260 OA
BRANCH  13  15
HETATM   15  C   UNK N   1       0.125   0.327  -2.202  0.00  0.00     0.083 C 
HETATM   16  C   UNK N   1      -0.976  -0.439  -2.297  0.00  0.00     0.017 C 
BRANCH  16  17
HETATM   17  C   UNK N   1      -2.255   0.059  -2.869  0.00  0.00    -0.033 A 
HETATM   18  C   UNK N   1      -3.446  -0.576  -2.490  0.00  0.00     0.050 A 
HETATM   19  C   UNK N   1      -4.687  -0.113  -2.942  0.00  0.00     0.099 A 
HETATM   20  C   UNK N   1      -4.738   0.993  -3.828  0.00  0.00     0.098 A 
HETATM   21  C   UNK N   1      -3.547   1.607  -4.229  0.00  0.00     0.040 A 
HETATM   22  C   UNK N   1      -2.315   1.156  -3.750  0.00  0.00     0.014 A 
BRANCH  19  23
HETATM   23  O   UNK N   1      -5.800  -0.739  -2.499  0.00  0.00    -0.358 OA
HETATM   24  H   UNK N   1      -6.698  -0.467  -2.717  0.00  0.00     0.218 HD
ENDBRANCH  19  23
BRANCH  20  25
HETATM   25  O   UNK N   1      -5.903   1.488  -4.304  0.00  0.00    -0.358 OA
HETATM   26  H   UNK N   1      -6.773   1.139  -4.076  0.00  0.00     0.218 HD
ENDBRANCH  20  25
ENDBRANCH  16  17
ENDBRANCH  13  15
ENDBRANCH  12  13
ENDBRANCH   7  12
BRANCH   6  27
HETATM   27  C   UNK N   1       2.712   0.212   1.667  0.00  0.00    -0.026 A 
HETATM   28  C   UNK N   1       1.454   0.760   1.973  0.00  0.00     0.010 A 
HETATM   29  C   UNK N   1       0.571   0.076   2.816  0.00  0.00     0.001 A 
HETATM   30  C   UNK N   1       0.939  -1.153   3.368  0.00  0.00     0.000 A 
HETATM   31  C   UNK N   1       2.188  -1.706   3.073  0.00  0.00     0.001 A 
HETATM   32  C   UNK N   1       3.070  -1.033   2.221  0.00  0.00     0.010 A 
ENDBRANCH   6  27
BRANCH  11  33
HETATM   33  O   UNK N   1       7.037   2.309  -2.919  0.00  0.00    -0.360 OA
HETATM   34  H   UNK N   1       6.274   2.227  -3.498  0.00  0.00     0.217 HD
ENDBRANCH  11  33
BRANCH   9  35
HETATM   35  O   UNK N   1       9.581   1.923   1.061  0.00  0.00    -0.361 OA
HETATM   36  H   UNK N   1      10.373   2.245   0.606  0.00  0.00     0.217 HD
ENDBRANCH   9  35
TORSDOF 9
