REMARK  6 active torsions:
REMARK  status: ('A' for Active; 'I' for Inactive)
REMARK    1  A    between atoms: C_2  and  C_3 
REMARK    2  A    between atoms: C_5  and  O_6 
REMARK    3  A    between atoms: C_8  and  O_9 
REMARK    4  A    between atoms: C_16  and  C_17 
REMARK    5  A    between atoms: C_19  and  O_20 
REMARK    6  A    between atoms: C_22  and  O_23 
ROOT
HETATM    1  O   UNK N   1      -2.564   0.104   1.085  0.00  0.00    -0.380 OA
HETATM    2  C   UNK N   1      -2.634   0.633  -0.232  0.00  0.00     0.161 C 
HETATM    3  C   UNK N   1      -1.517  -0.042  -1.058  0.00  0.00     0.052 C 
HETATM    4  C   UNK N   1      -0.670   0.891  -1.905  0.00  0.00     0.176 C 
HETATM    5  O   UNK N   1       0.143   1.635  -1.024  0.00  0.00    -0.380 OA
HETATM    6  C   UNK N   1       0.248   0.887   0.181  0.00  0.00     0.161 C 
HETATM    7  C   UNK N   1      -0.547  -0.421  -0.023  0.00  0.00     0.052 C 
HETATM    8  C   UNK N   1      -1.480  -0.801   1.111  0.00  0.00     0.176 C 
ENDROOT
BRANCH   2   9
HETATM    9  C   UNK N   1      -4.002   0.397  -0.864  0.00  0.00    -0.026 A 
HETATM   10  C   UNK N   1      -4.269   0.856  -2.167  0.00  0.00     0.049 A 
HETATM   11  C   UNK N   1      -5.523   0.622  -2.774  0.00  0.00     0.101 A 
HETATM   12  C   UNK N   1      -6.516  -0.072  -2.057  0.00  0.00     0.099 A 
HETATM   13  C   UNK N   1      -6.253  -0.522  -0.760  0.00  0.00     0.040 A 
HETATM   14  C   UNK N   1      -5.011  -0.294  -0.168  0.00  0.00     0.012 A 
BRANCH  11  15
HETATM   15  O   UNK N   1      -5.799   1.044  -4.039  0.00  0.00    -0.353 OA
HETATM   16  C   UNK N   1      -4.920   1.715  -4.866  0.00  0.00     0.210 C 
ENDBRANCH  11  15
BRANCH  12  17
HETATM   17  O   UNK N   1      -7.728  -0.315  -2.600  0.00  0.00    -0.358 OA
HETATM   18  H   UNK N   1      -7.965  -0.026  -3.492  0.00  0.00     0.218 HD
ENDBRANCH  12  17
ENDBRANCH   2   9
BRANCH   6  19
HETATM   19  C   UNK N   1       1.700   0.595   0.542  0.00  0.00    -0.026 A 
HETATM   20  C   UNK N   1       2.748   1.026  -0.294  0.00  0.00     0.049 A 
HETATM   21  C   UNK N   1       4.092   0.745   0.024  0.00  0.00     0.101 A 
HETATM   22  C   UNK N   1       4.386   0.020   1.194  0.00  0.00     0.099 A 
HETATM   23  C   UNK N   1       3.347  -0.409   2.027  0.00  0.00     0.040 A 
HETATM   24  C   UNK N   1       2.017  -0.123   1.708  0.00  0.00     0.012 A 
BRANCH  21  25
HETATM   25  O   UNK N   1       5.116   1.157  -0.775  0.00  0.00    -0.353 OA
HETATM   26  C   UNK N   1       4.967   1.874  -1.946  0.00  0.00     0.210 C 
ENDBRANCH  21  25
BRANCH  22  27
HETATM   27  O   UNK N   1       5.660  -0.273   1.533  0.00  0.00    -0.358 OA
HETATM   28  H   UNK N   1       6.416   0.000   0.994  0.00  0.00     0.218 HD
ENDBRANCH  22  27
ENDBRANCH   6  19
TORSDOF 6
