REMARK  10 active torsions:
REMARK  status: ('A' for Active; 'I' for Inactive)
REMARK    1  A    between atoms: C_5  and  O_6 
REMARK    2  A    between atoms: C_5  and  C_12 
REMARK    3  A    between atoms: C_13  and  C_14 
REMARK    4  A    between atoms: C_14  and  O_15 
REMARK    5  A    between atoms: O_15  and  C_16 
REMARK    6  A    between atoms: C_18  and  C_28 
REMARK    7  A    between atoms: C_19  and  O_20 
REMARK    8  A    between atoms: C_22  and  O_23 
REMARK    9  A    between atoms: C_25  and  O_26 
REMARK   10  A    between atoms: C_28  and  O_29 
ROOT
HETATM    1  C   UNK N   1      -2.411  -0.914  -1.212  0.00  0.00     0.143 C 
HETATM    2  C   UNK N   1      -2.810  -2.037  -0.257  0.00  0.00     0.044 C 
ENDROOT
BRANCH   1   3
HETATM    3  C   UNK N   1      -1.609   0.120  -0.455  0.00  0.00     0.004 C 
HETATM    4  C   UNK N   1      -0.344   0.422  -0.813  0.00  0.00     0.014 C 
BRANCH   4   5
HETATM    5  C   UNK N   1       0.513   1.473  -0.108  0.00  0.00     0.106 C 
HETATM    6  C   UNK N   1       1.734   0.716   0.437  0.00  0.00    -0.042 C 
HETATM    7  C   UNK N   1       2.923   0.720  -0.206  0.00  0.00     0.056 C 
HETATM    8  C   UNK N   1       1.586  -0.100   1.700  0.00  0.00     0.047 C 
HETATM    9  C   UNK N   1       3.114   1.425  -1.489  0.00  0.00     0.150 C 
HETATM   10  O   UNK N   1       4.191   1.367  -2.059  0.00  0.00    -0.293 OA
HETATM   11  C   UNK N   1       1.957   2.116  -2.145  0.00  0.00     0.095 C 
HETATM   12  C   UNK N   1       0.955   2.644  -1.091  0.00  0.00    -0.002 C 
HETATM   13  C   UNK N   1      -0.245   3.262  -1.852  0.00  0.00     0.019 C 
HETATM   14  C   UNK N   1       1.629   3.786  -0.281  0.00  0.00     0.019 C 
BRANCH   5  15
HETATM   15  O   UNK N   1      -0.170   2.021   1.002  0.00  0.00    -0.380 OA
HETATM   16  H   UNK N   1      -0.956   2.531   0.683  0.00  0.00     0.211 HD
ENDBRANCH   5  15
ENDBRANCH   4   5
ENDBRANCH   1   3
BRANCH   1  17
HETATM   17  O   UNK N   1      -3.599  -0.356  -1.752  0.00  0.00    -0.350 OA
BRANCH  17  18
HETATM   18  C   UNK N   1      -3.379   0.616  -2.771  0.00  0.00     0.292 C 
HETATM   19  O   UNK N   1      -4.624   1.259  -3.063  0.00  0.00    -0.348 OA
HETATM   20  C   UNK N   1      -5.315   0.721  -4.177  0.00  0.00     0.179 C 
HETATM   21  C   UNK N   1      -4.489   0.849  -5.493  0.00  0.00     0.180 C 
HETATM   22  C   UNK N   1      -2.971   0.924  -5.225  0.00  0.00     0.183 C 
HETATM   23  C   UNK N   1      -2.626   0.051  -4.027  0.00  0.00     0.204 C 
BRANCH  20  24
HETATM   24  C   UNK N   1      -5.836  -0.705  -3.890  0.00  0.00     0.198 C 
BRANCH  24  25
HETATM   25  O   UNK N   1      -6.661  -0.676  -2.757  0.00  0.00    -0.398 OA
HETATM   26  H   UNK N   1      -7.066  -1.580  -2.686  0.00  0.00     0.209 HD
ENDBRANCH  24  25
ENDBRANCH  20  24
BRANCH  21  27
HETATM   27  O   UNK N   1      -4.845   2.013  -6.194  0.00  0.00    -0.390 OA
HETATM   28  H   UNK N   1      -5.724   1.836  -6.620  0.00  0.00     0.210 HD
ENDBRANCH  21  27
BRANCH  22  29
HETATM   29  O   UNK N   1      -2.251   0.510  -6.358  0.00  0.00    -0.390 OA
HETATM   30  H   UNK N   1      -2.450   1.156  -7.083  0.00  0.00     0.210 HD
ENDBRANCH  22  29
BRANCH  23  31
HETATM   31  O   UNK N   1      -1.240   0.086  -3.796  0.00  0.00    -0.388 OA
HETATM   32  H   UNK N   1      -0.807  -0.481  -4.485  0.00  0.00     0.210 HD
ENDBRANCH  23  31
ENDBRANCH  17  18
ENDBRANCH   1  17
TORSDOF 10
