REMARK  12 active torsions:
REMARK  status: ('A' for Active; 'I' for Inactive)
REMARK    1  A    between atoms: C_2  and  O_3 
REMARK    2  A    between atoms: C_2  and  C_20 
REMARK    3  A    between atoms: O_3  and  C_4 
REMARK    4  A    between atoms: C_4  and  C_5 
REMARK    5  A    between atoms: C_4  and  C_9 
REMARK    6  A    between atoms: C_5  and  O_7 
REMARK    7  A    between atoms: C_9  and  C_10 
REMARK    8  A    between atoms: C_12  and  O_13 
REMARK    9  A    between atoms: C_15  and  O_16 
REMARK   10  A    between atoms: C_21  and  C_22 
REMARK   11  A    between atoms: C_24  and  O_25 
REMARK   12  A    between atoms: C_27  and  O_28 
ROOT
HETATM    1  C   UNK N   1       3.248   0.724  -1.021  0.00  0.00     0.233 C 
ENDROOT
BRANCH   1   2
HETATM    2  O   UNK N   1       1.878   0.715  -1.244  0.00  0.00    -0.301 OA
BRANCH   2   3
HETATM    3  C   UNK N   1       1.230   0.170  -2.304  0.00  0.00     0.283 C 
HETATM    4  O   UNK N   1       1.843  -0.442  -3.169  0.00  0.00    -0.260 OA
BRANCH   3   5
HETATM    5  C   UNK N   1      -0.233   0.363  -2.392  0.00  0.00     0.083 C 
HETATM    6  C   UNK N   1      -0.967  -0.090  -3.429  0.00  0.00     0.017 C 
BRANCH   6   7
HETATM    7  C   UNK N   1      -2.439   0.135  -3.568  0.00  0.00    -0.033 A 
HETATM    8  C   UNK N   1      -3.066  -0.267  -4.759  0.00  0.00     0.050 A 
HETATM    9  C   UNK N   1      -4.434  -0.047  -4.970  0.00  0.00     0.099 A 
HETATM   10  C   UNK N   1      -5.205   0.580  -3.959  0.00  0.00     0.098 A 
HETATM   11  C   UNK N   1      -4.585   0.965  -2.767  0.00  0.00     0.040 A 
HETATM   12  C   UNK N   1      -3.220   0.752  -2.567  0.00  0.00     0.014 A 
BRANCH   9  13
HETATM   13  O   UNK N   1      -4.970  -0.440  -6.148  0.00  0.00    -0.358 OA
HETATM   14  H   UNK N   1      -5.894  -0.313  -6.393  0.00  0.00     0.218 HD
ENDBRANCH   9  13
BRANCH  10  15
HETATM   15  O   UNK N   1      -6.527   0.827  -4.100  0.00  0.00    -0.358 OA
HETATM   16  H   UNK N   1      -7.040   0.608  -4.887  0.00  0.00     0.218 HD
ENDBRANCH  10  15
ENDBRANCH   6   7
ENDBRANCH   3   5
ENDBRANCH   2   3
ENDBRANCH   1   2
BRANCH   1  17
HETATM   17  C   UNK N   1       3.978   1.541  -2.064  0.00  0.00     0.171 C 
HETATM   18  O   UNK N   1       3.363   2.104  -2.958  0.00  0.00    -0.648 OA
BRANCH  17  19
HETATM   19  O   UNK N   1       5.322   1.655  -2.000  0.00  0.00    -0.774 OA
HETATM   20  H   UNK N   1       5.810   2.179  -2.652  0.00  0.00     0.167 HD
ENDBRANCH  17  19
ENDBRANCH   1  17
BRANCH   1  21
HETATM   21  C   UNK N   1       3.478   1.339   0.370  0.00  0.00     0.082 C 
BRANCH  21  22
HETATM   22  C   UNK N   1       2.760   0.522   1.414  0.00  0.00    -0.052 A 
HETATM   23  C   UNK N   1       1.482   0.904   1.852  0.00  0.00     0.046 A 
HETATM   24  C   UNK N   1       0.787   0.122   2.780  0.00  0.00     0.099 A 
HETATM   25  C   UNK N   1       1.382  -1.046   3.296  0.00  0.00     0.098 A 
HETATM   26  C   UNK N   1       2.664  -1.421   2.865  0.00  0.00     0.040 A 
HETATM   27  C   UNK N   1       3.345  -0.647   1.922  0.00  0.00     0.010 A 
BRANCH  24  28
HETATM   28  O   UNK N   1      -0.453   0.499   3.159  0.00  0.00    -0.358 OA
HETATM   29  H   UNK N   1      -0.986  -0.021   3.777  0.00  0.00     0.218 HD
ENDBRANCH  24  28
BRANCH  25  30
HETATM   30  O   UNK N   1       0.719  -1.801   4.196  0.00  0.00    -0.358 OA
HETATM   31  H   UNK N   1       1.104  -2.608   4.567  0.00  0.00     0.218 HD
ENDBRANCH  25  30
ENDBRANCH  21  22
ENDBRANCH   1  21
TORSDOF 12
