REMARK  4 active torsions:
REMARK  status: ('A' for Active; 'I' for Inactive)
REMARK    1  A    between atoms: C_7  and  O_8 
REMARK    2  A    between atoms: C_10  and  O_12 
REMARK    3  A    between atoms: C_15  and  O_16 
REMARK    4  A    between atoms: O_16  and  C_17 
ROOT
HETATM    1  O   UNK N   1      -1.211   2.083   1.663  0.00  0.00    -0.257 OA
HETATM    2  C   UNK N   1      -1.893   1.379   0.940  0.00  0.00     0.322 A 
HETATM    3  O   UNK N   1      -2.843   1.938   0.196  0.00  0.00    -0.272 OA
HETATM    4  C   UNK N   1      -3.630   1.228  -0.607  0.00  0.00     0.092 A 
HETATM    5  C   UNK N   1      -3.488  -0.171  -0.689  0.00  0.00     0.004 A 
HETATM    6  C   UNK N   1      -4.313  -0.908  -1.546  0.00  0.00     0.053 A 
HETATM    7  C   UNK N   1      -5.282  -0.255  -2.325  0.00  0.00     0.100 A 
HETATM    8  C   UNK N   1      -5.432   1.140  -2.243  0.00  0.00     0.103 A 
HETATM    9  C   UNK N   1      -4.598   1.877  -1.375  0.00  0.00     0.077 A 
HETATM   10  C   UNK N   1      -2.511  -0.794   0.091  0.00  0.00     0.058 A 
HETATM   11  C   UNK N   1      -1.693  -0.016   0.908  0.00  0.00     0.152 A 
ENDROOT
BRANCH  11  12
HETATM   12  O   UNK N   1      -0.738  -0.608   1.665  0.00  0.00    -0.304 OA
BRANCH  12  13
HETATM   13  C   UNK N   1       0.563  -0.226   1.651  0.00  0.00     0.079 A 
HETATM   14  C   UNK N   1       1.232   0.020   0.436  0.00  0.00     0.075 A 
HETATM   15  C   UNK N   1       2.580   0.393   0.439  0.00  0.00     0.092 A 
HETATM   16  O   UNK N   1       3.218   0.605  -0.712  0.00  0.00    -0.275 OA
HETATM   17  C   UNK N   1       3.261   0.542   1.666  0.00  0.00    -0.002 A 
HETATM   18  C   UNK N   1       4.501   0.962  -0.760  0.00  0.00     0.288 A 
HETATM   19  O   UNK N   1       5.038   1.137  -1.838  0.00  0.00    -0.260 OA
HETATM   20  C   UNK N   1       5.232   1.139   0.421  0.00  0.00     0.083 A 
HETATM   21  C   UNK N   1       4.604   0.926   1.646  0.00  0.00     0.020 A 
HETATM   22  C   UNK N   1       2.591   0.301   2.873  0.00  0.00     0.017 A 
HETATM   23  C   UNK N   1       1.250  -0.093   2.862  0.00  0.00     0.038 A 
ENDBRANCH  12  13
ENDBRANCH  11  12
BRANCH   7  24
HETATM   24  O   UNK N   1      -6.072  -0.965  -3.158  0.00  0.00    -0.358 OA
HETATM   25  H   UNK N   1      -5.990  -1.926  -3.241  0.00  0.00     0.218 HD
ENDBRANCH   7  24
BRANCH   8  26
HETATM   26  O   UNK N   1      -6.380   1.744  -3.010  0.00  0.00    -0.353 OA
HETATM   27  C   UNK N   1      -6.628   3.102  -3.035  0.00  0.00     0.210 C 
ENDBRANCH   8  26
TORSDOF 4
