REMARK  9 active torsions:
REMARK  status: ('A' for Active; 'I' for Inactive)
REMARK       I    between atoms: C_2  and  N_3 
REMARK    1  A    between atoms: C_2  and  C_17 
REMARK    2  A    between atoms: N_3  and  C_4 
REMARK    3  A    between atoms: C_4  and  C_5 
REMARK    4  A    between atoms: C_5  and  O_6 
REMARK    5  A    between atoms: C_5  and  C_8 
REMARK    6  A    between atoms: C_11  and  O_12 
REMARK    7  A    between atoms: C_18  and  C_19 
REMARK    8  A    between atoms: C_21  and  O_22 
REMARK    9  A    between atoms: C_24  and  O_25 
ROOT
HETATM    1  O   UNK N   1       1.892   0.451  -3.531  0.00  0.00    -0.269 OA
HETATM    2  C   UNK N   1       1.159  -0.219  -2.820  0.00  0.00     0.241 C 
HETATM    3  N   UNK N   1       1.678  -1.121  -1.935  0.00  0.00    -0.355 N 
HETATM    4  H   UNK N   1       1.033  -1.714  -1.393  0.00  0.00     0.162 HD
ENDROOT
BRANCH   2   5
HETATM    5  C   UNK N   1      -0.316  -0.073  -2.919  0.00  0.00     0.075 C 
HETATM    6  C   UNK N   1      -0.908   0.791  -3.772  0.00  0.00     0.017 C 
BRANCH   6   7
HETATM    7  C   UNK N   1      -2.391   0.980  -3.871  0.00  0.00    -0.033 A 
HETATM    8  C   UNK N   1      -3.315   0.209  -3.129  0.00  0.00     0.051 A 
HETATM    9  C   UNK N   1      -4.696   0.435  -3.253  0.00  0.00     0.102 A 
HETATM   10  C   UNK N   1      -5.167   1.428  -4.114  0.00  0.00     0.099 A 
HETATM   11  C   UNK N   1      -4.261   2.199  -4.850  0.00  0.00     0.040 A 
HETATM   12  C   UNK N   1      -2.885   1.976  -4.733  0.00  0.00     0.014 A 
BRANCH   9  13
HETATM   13  O   UNK N   1      -5.582  -0.301  -2.545  0.00  0.00    -0.353 OA
HETATM   14  C   UNK N   1      -5.643  -0.253  -1.169  0.00  0.00     0.210 C 
ENDBRANCH   9  13
BRANCH  10  15
HETATM   15  O   UNK N   1      -6.496   1.645  -4.213  0.00  0.00    -0.358 OA
HETATM   16  H   UNK N   1      -6.860   2.343  -4.775  0.00  0.00     0.218 HD
ENDBRANCH  10  15
ENDBRANCH   6   7
ENDBRANCH   2   5
BRANCH   3  17
HETATM   17  C   UNK N   1       3.108  -1.321  -1.739  0.00  0.00     0.159 C 
BRANCH  17  18
HETATM   18  C   UNK N   1       3.760  -0.167  -0.946  0.00  0.00     0.169 C 
BRANCH  18  19
HETATM   19  O   UNK N   1       3.665   1.051  -1.638  0.00  0.00    -0.389 OA
HETATM   20  H   UNK N   1       4.343   1.023  -2.363  0.00  0.00     0.210 HD
ENDBRANCH  18  19
BRANCH  18  21
HETATM   21  C   UNK N   1       3.138  -0.051   0.433  0.00  0.00    -0.028 A 
HETATM   22  C   UNK N   1       3.563  -0.910   1.464  0.00  0.00     0.012 A 
HETATM   23  C   UNK N   1       2.997  -0.819   2.740  0.00  0.00     0.037 A 
HETATM   24  C   UNK N   1       1.993   0.119   3.000  0.00  0.00     0.065 A 
HETATM   25  C   UNK N   1       1.558   0.972   1.976  0.00  0.00     0.037 A 
HETATM   26  C   UNK N   1       2.127   0.892   0.702  0.00  0.00     0.012 A 
BRANCH  24  27
HETATM   27  O   UNK N   1       1.452   0.192   4.234  0.00  0.00    -0.361 OA
HETATM   28  H   UNK N   1       0.754   0.827   4.447  0.00  0.00     0.217 HD
ENDBRANCH  24  27
ENDBRANCH  18  21
ENDBRANCH  17  18
ENDBRANCH   3  17
TORSDOF 9
