REMARK  5 active torsions:
REMARK  status: ('A' for Active; 'I' for Inactive)
REMARK    1  A    between atoms: C_8  and  O_10 
REMARK    2  A    between atoms: O_10  and  C_11 
REMARK    3  A    between atoms: C_11  and  C_12 
REMARK    4  A    between atoms: C_13  and  O_14 
REMARK    5  A    between atoms: C_20  and  O_21 
ROOT
HETATM    1  C   UNK N   1      -2.679   0.404   0.237  0.00  0.00     0.052 C 
HETATM    2  C   UNK N   1      -2.829   1.133   1.638  0.00  0.00     0.060 C 
HETATM    3  C   UNK N   1      -4.330   1.280   1.976  0.00  0.00     0.038 C 
HETATM    4  C   UNK N   1      -5.160   1.925   0.864  0.00  0.00     0.009 C 
HETATM    5  C   UNK N   1      -5.062   1.087  -0.439  0.00  0.00     0.004 C 
HETATM    6  C   UNK N   1      -6.138   1.489  -1.548  0.00  0.00    -0.017 C 
HETATM    7  C   UNK N   1      -5.708   0.975  -2.980  0.00  0.00     0.126 C 
HETATM    8  C   UNK N   1      -4.906  -0.320  -2.859  0.00  0.00     0.033 C 
HETATM    9  C   UNK N   1      -3.560  -0.087  -2.129  0.00  0.00     0.012 C 
HETATM   10  C   UNK N   1      -3.585   0.968  -0.950  0.00  0.00    -0.031 C 
HETATM   11  C   UNK N   1      -3.058   2.332  -1.502  0.00  0.00     0.016 C 
HETATM   12  C   UNK N   1      -7.487   0.828  -1.133  0.00  0.00     0.018 C 
HETATM   13  C   UNK N   1      -6.399   3.014  -1.639  0.00  0.00     0.018 C 
HETATM   14  C   UNK N   1      -2.128   2.518   1.753  0.00  0.00     0.046 C 
ENDROOT
BRANCH   1  15
HETATM   15  C   UNK N   1      -1.196   0.215  -0.195  0.00  0.00     0.184 C 
BRANCH  15  16
HETATM   16  O   UNK N   1      -0.482  -0.431   0.793  0.00  0.00    -0.351 OA
BRANCH  16  17
HETATM   17  C   UNK N   1       0.845  -0.257   1.016  0.00  0.00     0.071 A 
HETATM   18  C   UNK N   1       1.343  -0.517   2.298  0.00  0.00     0.038 A 
HETATM   19  C   UNK N   1       2.689  -0.297   2.594  0.00  0.00     0.017 A 
HETATM   20  C   UNK N   1       3.556   0.171   1.600  0.00  0.00    -0.002 A 
HETATM   21  C   UNK N   1       3.072   0.409   0.295  0.00  0.00     0.092 A 
HETATM   22  C   UNK N   1       4.905   0.412   1.867  0.00  0.00     0.020 A 
HETATM   23  O   UNK N   1       3.894   0.845  -0.656  0.00  0.00    -0.275 OA
HETATM   24  C   UNK N   1       1.720   0.198   0.008  0.00  0.00     0.075 A 
HETATM   25  C   UNK N   1       5.186   1.077  -0.431  0.00  0.00     0.288 A 
HETATM   26  O   UNK N   1       5.895   1.473  -1.337  0.00  0.00    -0.260 OA
HETATM   27  C   UNK N   1       5.730   0.871   0.843  0.00  0.00     0.083 A 
ENDBRANCH  16  17
ENDBRANCH  15  16
ENDBRANCH   1  15
BRANCH   2  28
HETATM   28  O   UNK N   1      -2.312   0.287   2.647  0.00  0.00    -0.390 OA
HETATM   29  H   UNK N   1      -1.357   0.490   2.816  0.00  0.00     0.210 HD
ENDBRANCH   2  28
BRANCH   7  30
HETATM   30  O   UNK N   1      -6.835   0.796  -3.802  0.00  0.00    -0.395 OA
HETATM   31  H   UNK N   1      -6.504   0.585  -4.715  0.00  0.00     0.210 HD
ENDBRANCH   7  30
TORSDOF 5
