REMARK  10 active torsions:
REMARK  status: ('A' for Active; 'I' for Inactive)
REMARK    1  A    between atoms: C_6  and  O_7 
REMARK    2  A    between atoms: C_6  and  C_16 
REMARK    3  A    between atoms: C_9  and  C_10 
REMARK    4  A    between atoms: C_10  and  C_11 
REMARK    5  A    between atoms: C_11  and  O_12 
REMARK    6  A    between atoms: C_16  and  C_17 
REMARK    7  A    between atoms: C_18  and  C_19 
REMARK    8  A    between atoms: C_19  and  C_20 
REMARK    9  A    between atoms: C_21  and  O_22 
REMARK   10  A    between atoms: C_26  and  O_28 
ROOT
HETATM    1  O   UNK N   1       6.103   2.584   0.689  0.00  0.00    -0.297 OA
HETATM    2  C   UNK N   1       4.890   2.441   0.770  0.00  0.00     0.143 C 
HETATM    3  C   UNK N   1       4.298   1.371   1.724  0.00  0.00     0.025 C 
HETATM    4  C   UNK N   1       3.297   0.437   0.940  0.00  0.00    -0.027 C 
HETATM    5  C   UNK N   1       2.451   1.206  -0.123  0.00  0.00     0.049 C 
HETATM    6  C   UNK N   1       3.253   2.146  -1.065  0.00  0.00     0.072 C 
HETATM    7  C   UNK N   1       4.013   3.213  -0.204  0.00  0.00     0.093 C 
HETATM    8  C   UNK N   1       4.205  -0.692   0.337  0.00  0.00     0.010 C 
HETATM    9  C   UNK N   1       5.619  -0.426   0.846  0.00  0.00     0.002 C 
HETATM   10  C   UNK N   1       5.393   0.359   2.133  0.00  0.00     0.018 C 
HETATM   11  C   UNK N   1       2.275  -0.262   1.887  0.00  0.00     0.016 C 
HETATM   12  C   UNK N   1       3.727   2.048   2.991  0.00  0.00     0.024 C 
ENDROOT
BRANCH   6  13
HETATM   13  O   UNK N   1       4.223   1.387  -1.749  0.00  0.00    -0.389 OA
HETATM   14  H   UNK N   1       4.695   1.987  -2.385  0.00  0.00     0.210 HD
ENDBRANCH   6  13
BRANCH   6  15
HETATM   15  C   UNK N   1       2.275   2.791  -2.107  0.00  0.00     0.072 C 
BRANCH  15  16
HETATM   16  C   UNK N   1       1.558   1.783  -3.014  0.00  0.00    -0.084 C 
HETATM   17  C   UNK N   1       0.208   1.629  -3.041  0.00  0.00    -0.020 C 
HETATM   18  C   UNK N   1       2.384   0.934  -3.957  0.00  0.00     0.043 C 
BRANCH  17  19
HETATM   19  C   UNK N   1      -0.796   2.407  -2.219  0.00  0.00     0.068 C 
BRANCH  19  20
HETATM   20  C   UNK N   1      -2.058   1.593  -2.034  0.00  0.00    -0.018 A 
HETATM   21  C   UNK N   1      -2.233   0.718  -0.931  0.00  0.00     0.078 A 
HETATM   22  C   UNK N   1      -3.422  -0.021  -0.806  0.00  0.00    -0.026 A 
HETATM   23  C   UNK N   1      -4.426   0.097  -1.779  0.00  0.00     0.046 A 
HETATM   24  C   UNK N   1      -3.620  -0.938   0.370  0.00  0.00     0.051 C 
HETATM   25  C   UNK N   1      -4.262   0.948  -2.874  0.00  0.00     0.069 A 
HETATM   26  C   UNK N   1      -3.078   1.699  -2.995  0.00  0.00     0.047 A 
BRANCH  21  27
HETATM   27  O   UNK N   1      -1.278   0.569   0.017  0.00  0.00    -0.360 OA
HETATM   28  H   UNK N   1      -0.428   1.019  -0.004  0.00  0.00     0.217 HD
ENDBRANCH  21  27
BRANCH  25  29
HETATM   29  O   UNK N   1      -5.262   1.019  -3.794  0.00  0.00    -0.356 OA
HETATM   30  C   UNK N   1      -5.239   1.800  -4.932  0.00  0.00     0.210 C 
ENDBRANCH  25  29
ENDBRANCH  19  20
ENDBRANCH  17  19
ENDBRANCH  15  16
ENDBRANCH   6  15
BRANCH   7  31
HETATM   31  C   UNK N   1       3.130   4.309   0.474  0.00  0.00     0.052 C 
BRANCH  31  32
HETATM   32  C   UNK N   1       3.904   5.431   1.241  0.00  0.00     0.051 C 
HETATM   33  C   UNK N   1       4.808   6.250   0.284  0.00  0.00     0.045 C 
HETATM   34  C   UNK N   1       2.886   6.398   1.867  0.00  0.00     0.045 C 
BRANCH  32  35
HETATM   35  O   UNK N   1       4.652   4.891   2.305  0.00  0.00    -0.391 OA
HETATM   36  H   UNK N   1       5.579   4.709   2.002  0.00  0.00     0.210 HD
ENDBRANCH  32  35
ENDBRANCH  31  32
ENDBRANCH   7  31
TORSDOF 10
