REMARK  6 active torsions:
REMARK  status: ('A' for Active; 'I' for Inactive)
REMARK    1  A    between atoms: C_2  and  O_3 
REMARK    2  A    between atoms: C_2  and  C_14 
REMARK    3  A    between atoms: O_3  and  C_4 
REMARK    4  A    between atoms: C_14  and  C_15 
REMARK    5  A    between atoms: C_14  and  C_18 
REMARK    6  A    between atoms: C_15  and  O_16 
ROOT
HETATM    1  O   UNK N   1       0.706   0.333  -3.094  0.00  0.00    -0.264 OA
HETATM    2  C   UNK N   1       0.693   0.893  -2.008  0.00  0.00     0.270 C 
ENDROOT
BRANCH   2   3
HETATM    3  O   UNK N   1      -0.482   1.240  -1.415  0.00  0.00    -0.315 OA
BRANCH   3   4
HETATM    4  C   UNK N   1      -1.729   1.193  -2.016  0.00  0.00     0.136 C 
HETATM    5  C   UNK N   1      -1.820   2.146  -3.251  0.00  0.00     0.071 C 
HETATM    6  C   UNK N   1      -3.298   2.326  -3.692  0.00  0.00     0.257 C 
HETATM    7  N   UNK N   1      -3.973   2.946  -2.546  0.00  0.00     0.099 N 
HETATM    8  C   UNK N   1      -3.953   0.944  -3.887  0.00  0.00     0.186 A 
HETATM    9  C   UNK N   1      -5.187   3.716  -2.875  0.00  0.00     0.311 C 
HETATM   10  C   UNK N   1      -4.189   1.795  -1.661  0.00  0.00     0.257 C 
HETATM   11  C   UNK N   1      -4.529   0.601  -2.575  0.00  0.00     0.186 A 
HETATM   12  C   UNK N   1      -2.821   1.548  -0.967  0.00  0.00     0.071 C 
HETATM   13  O   UNK N   1      -5.348   0.927  -3.677  0.00  0.00    -0.371 OA
ENDBRANCH   3   4
ENDBRANCH   2   3
BRANCH   2  14
HETATM   14  C   UNK N   1       1.978   1.286  -1.319  0.00  0.00     0.142 C 
BRANCH  14  15
HETATM   15  C   UNK N   1       3.235   1.057  -2.188  0.00  0.00     0.183 C 
BRANCH  15  16
HETATM   16  O   UNK N   1       4.381   1.546  -1.544  0.00  0.00    -0.400 OA
HETATM   17  H   UNK N   1       4.724   0.812  -0.970  0.00  0.00     0.209 HD
ENDBRANCH  15  16
ENDBRANCH  14  15
BRANCH  14  18
HETATM   18  C   UNK N   1       2.072   0.609   0.039  0.00  0.00    -0.043 A 
HETATM   19  C   UNK N   1       2.475  -0.736   0.165  0.00  0.00     0.008 A 
HETATM   20  C   UNK N   1       2.574  -1.328   1.429  0.00  0.00     0.001 A 
HETATM   21  C   UNK N   1       2.247  -0.598   2.573  0.00  0.00     0.000 A 
HETATM   22  C   UNK N   1       1.827   0.729   2.458  0.00  0.00     0.001 A 
HETATM   23  C   UNK N   1       1.749   1.335   1.201  0.00  0.00     0.008 A 
ENDBRANCH  14  18
ENDBRANCH   2  14
TORSDOF 6
