REMARK  9 active torsions:
REMARK  status: ('A' for Active; 'I' for Inactive)
REMARK    1  A    between atoms: C_6  and  C_10 
REMARK    2  A    between atoms: C_7  and  O_8 
REMARK    3  A    between atoms: C_14  and  C_23 
REMARK    4  A    between atoms: C_15  and  C_20 
REMARK    5  A    between atoms: C_20  and  O_21 
REMARK    6  A    between atoms: C_25  and  O_26 
REMARK    7  A    between atoms: C_28  and  O_29 
REMARK    8  A    between atoms: C_34  and  O_35 
REMARK    9  A    between atoms: C_38  and  O_39 
ROOT
HETATM    1  C   UNK N   1       3.313   0.169   0.455  0.00  0.00    -0.023 A 
HETATM    2  C   UNK N   1       2.146   0.392  -0.306  0.00  0.00     0.049 A 
HETATM    3  C   UNK N   1       0.886   0.305   0.285  0.00  0.00     0.103 A 
HETATM    4  O   UNK N   1      -0.236   0.569  -0.430  0.00  0.00    -0.336 OA
HETATM    5  C   UNK N   1      -1.443   0.792   0.220  0.00  0.00     0.193 C 
HETATM    6  C   UNK N   1      -1.603  -0.270   1.337  0.00  0.00     0.186 C 
HETATM    7  O   UNK N   1      -0.484  -0.200   2.163  0.00  0.00    -0.338 OA
HETATM    8  C   UNK N   1       0.760  -0.061   1.633  0.00  0.00     0.102 A 
HETATM    9  C   UNK N   1       1.900  -0.279   2.405  0.00  0.00     0.040 A 
HETATM   10  C   UNK N   1       3.172  -0.158   1.828  0.00  0.00     0.013 A 
ENDROOT
BRANCH   1  11
HETATM   11  C   UNK N   1       4.673   0.246  -0.253  0.00  0.00     0.198 C 
HETATM   12  O   UNK N   1       4.641   1.258  -1.199  0.00  0.00    -0.337 OA
HETATM   13  C   UNK N   1       4.705   2.571  -0.864  0.00  0.00     0.089 A 
HETATM   14  C   UNK N   1       5.303   2.971   0.356  0.00  0.00     0.079 A 
HETATM   15  C   UNK N   1       4.175   3.516  -1.744  0.00  0.00     0.074 A 
HETATM   16  C   UNK N   1       5.902   1.878   1.199  0.00  0.00     0.196 C 
HETATM   17  C   UNK N   1       5.330   4.365   0.676  0.00  0.00     0.085 A 
HETATM   18  O   UNK N   1       6.505   2.118   2.231  0.00  0.00    -0.289 OA
HETATM   19  C   UNK N   1       5.906   0.459   0.661  0.00  0.00     0.227 C 
HETATM   20  C   UNK N   1       4.780   5.290  -0.224  0.00  0.00     0.074 A 
HETATM   21  C   UNK N   1       4.209   4.875  -1.427  0.00  0.00     0.071 A 
BRANCH  19  22
HETATM   22  O   UNK N   1       7.103   0.225  -0.040  0.00  0.00    -0.385 OA
HETATM   23  H   UNK N   1       7.124   0.816  -0.837  0.00  0.00     0.210 HD
ENDBRANCH  19  22
BRANCH  17  24
HETATM   24  O   UNK N   1       5.869   4.860   1.814  0.00  0.00    -0.360 OA
HETATM   25  H   UNK N   1       6.257   4.341   2.523  0.00  0.00     0.217 HD
ENDBRANCH  17  24
BRANCH  21  26
HETATM   26  O   UNK N   1       3.693   5.792  -2.271  0.00  0.00    -0.361 OA
HETATM   27  H   UNK N   1       3.287   5.542  -3.113  0.00  0.00     0.217 HD
ENDBRANCH  21  26
ENDBRANCH   1  11
BRANCH   5  28
HETATM   28  C   UNK N   1      -2.570   0.807  -0.784  0.00  0.00    -0.024 A 
HETATM   29  C   UNK N   1      -3.378   1.947  -0.904  0.00  0.00     0.049 A 
HETATM   30  C   UNK N   1      -4.433   1.987  -1.838  0.00  0.00     0.101 A 
HETATM   31  C   UNK N   1      -4.666   0.863  -2.659  0.00  0.00     0.099 A 
HETATM   32  C   UNK N   1      -3.855  -0.272  -2.536  0.00  0.00     0.040 A 
HETATM   33  C   UNK N   1      -2.815  -0.303  -1.606  0.00  0.00     0.013 A 
BRANCH  30  34
HETATM   34  O   UNK N   1      -5.232   3.083  -1.967  0.00  0.00    -0.353 OA
HETATM   35  C   UNK N   1      -5.118   4.243  -1.223  0.00  0.00     0.210 C 
ENDBRANCH  30  34
BRANCH  31  36
HETATM   36  O   UNK N   1      -5.663   0.858  -3.569  0.00  0.00    -0.358 OA
HETATM   37  H   UNK N   1      -6.252   1.614  -3.699  0.00  0.00     0.218 HD
ENDBRANCH  31  36
ENDBRANCH   5  28
BRANCH   6  38
HETATM   38  C   UNK N   1      -2.881  -0.109   2.169  0.00  0.00     0.199 C 
BRANCH  38  39
HETATM   39  O   UNK N   1      -2.888   1.133   2.817  0.00  0.00    -0.398 OA
HETATM   40  H   UNK N   1      -3.725   1.160   3.349  0.00  0.00     0.209 HD
ENDBRANCH  38  39
ENDBRANCH   6  38
TORSDOF 9
