REMARK  3 active torsions:
REMARK  status: ('A' for Active; 'I' for Inactive)
REMARK    1  A    between atoms: C_6  and  O_7 
REMARK    2  A    between atoms: C_15  and  O_16 
REMARK    3  A    between atoms: O_16  and  C_17 
ROOT
HETATM    1  O   UNK N   1       1.327   5.095  -2.487  0.00  0.00    -0.265 OA
HETATM    2  C   UNK N   1       1.501   3.909  -2.704  0.00  0.00     0.263 C 
HETATM    3  O   UNK N   1       0.508   3.018  -2.654  0.00  0.00    -0.315 OA
HETATM    4  C   UNK N   1       0.896   1.792  -3.142  0.00  0.00     0.148 C 
HETATM    5  C   UNK N   1       2.446   1.810  -3.062  0.00  0.00     0.058 C 
HETATM    6  C   UNK N   1       3.049   1.190  -1.766  0.00  0.00     0.129 C 
HETATM    7  C   UNK N   1       2.380   1.610  -0.444  0.00  0.00     0.065 C 
HETATM    8  C   UNK N   1       1.209   0.700  -0.094  0.00  0.00    -0.082 C 
HETATM    9  C   UNK N   1      -0.033   0.576  -0.962  0.00  0.00     0.027 C 
HETATM   10  C   UNK N   1       0.114   0.614  -2.504  0.00  0.00     0.054 C 
HETATM   11  C   UNK N   1      -1.332   0.785  -2.873  0.00  0.00    -0.053 C 
HETATM   12  C   UNK N   1      -1.810   0.505  -4.093  0.00  0.00     0.017 C 
HETATM   13  C   UNK N   1      -2.184   1.313  -1.751  0.00  0.00     0.161 C 
HETATM   14  C   UNK N   1      -1.151   1.569  -0.639  0.00  0.00     0.047 C 
HETATM   15  C   UNK N   1       1.284  -0.050   1.025  0.00  0.00     0.015 C 
HETATM   16  C   UNK N   1       2.775   3.331  -3.186  0.00  0.00     0.090 C 
HETATM   17  C   UNK N   1       3.023   3.776  -4.631  0.00  0.00     0.021 C 
ENDROOT
BRANCH  13  18
HETATM   18  O   UNK N   1      -3.115   0.366  -1.355  0.00  0.00    -0.312 OA
BRANCH  18  19
HETATM   19  C   UNK N   1      -4.434   0.445  -1.687  0.00  0.00     0.255 C 
HETATM   20  O   UNK N   1      -4.802   1.142  -2.623  0.00  0.00    -0.266 OA
HETATM   21  C   UNK N   1      -5.448  -0.316  -0.897  0.00  0.00     0.126 C 
ENDBRANCH  18  19
ENDBRANCH  13  18
BRANCH   6  22
HETATM   22  O   UNK N   1       4.419   1.506  -1.707  0.00  0.00    -0.395 OA
HETATM   23  H   UNK N   1       4.869   0.995  -2.431  0.00  0.00     0.210 HD
ENDBRANCH   6  22
TORSDOF 3
