REMARK  10 active torsions:
REMARK  status: ('A' for Active; 'I' for Inactive)
REMARK    1  A    between atoms: C_3  and  O_4 
REMARK    2  A    between atoms: C_12  and  O_13 
REMARK    3  A    between atoms: C_15  and  C_16 
REMARK    4  A    between atoms: C_16  and  C_17 
REMARK    5  A    between atoms: C_17  and  C_18 
REMARK    6  A    between atoms: C_22  and  O_23 
REMARK    7  A    between atoms: C_25  and  C_26 
REMARK    8  A    between atoms: C_26  and  C_27 
REMARK    9  A    between atoms: C_28  and  C_29 
REMARK   10  A    between atoms: C_29  and  O_30 
ROOT
HETATM    1  C   UNK N   1      -1.391   1.662  -2.393  0.00  0.00     0.013 C 
ENDROOT
BRANCH   1   2
HETATM    2  C   UNK N   1      -2.811   0.983  -2.501  0.00  0.00     0.030 C 
HETATM    3  C   UNK N   1      -4.025   1.795  -1.854  0.00  0.00    -0.011 C 
HETATM    4  C   UNK N   1      -4.098   3.281  -2.355  0.00  0.00     0.015 C 
HETATM    5  C   UNK N   1      -5.357   1.053  -2.228  0.00  0.00     0.131 C 
HETATM    6  C   UNK N   1      -3.923   1.921  -0.304  0.00  0.00     0.018 C 
HETATM    7  C   UNK N   1      -4.486   3.584  -3.817  0.00  0.00     0.035 C 
HETATM    8  C   UNK N   1      -5.984   3.285  -4.085  0.00  0.00     0.152 C 
HETATM    9  C   UNK N   1      -6.296   1.783  -4.357  0.00  0.00     0.080 C 
HETATM   10  O   UNK N   1      -5.454   0.913  -3.634  0.00  0.00    -0.372 OA
HETATM   11  C   UNK N   1      -7.786   1.476  -4.090  0.00  0.00     0.048 C 
HETATM   12  C   UNK N   1      -6.009   1.435  -5.834  0.00  0.00     0.048 C 
HETATM   13  C   UNK N   1      -5.354  -0.391  -1.694  0.00  0.00     0.036 C 
HETATM   14  C   UNK N   1      -4.216  -1.185  -2.358  0.00  0.00     0.040 C 
HETATM   15  C   UNK N   1      -2.821  -0.560  -2.095  0.00  0.00     0.059 C 
HETATM   16  C   UNK N   1      -1.787  -1.360  -2.928  0.00  0.00     0.046 C 
BRANCH   8  17
HETATM   17  O   UNK N   1      -6.497   4.097  -5.116  0.00  0.00    -0.393 OA
HETATM   18  H   UNK N   1      -5.826   4.133  -5.848  0.00  0.00     0.210 HD
ENDBRANCH   8  17
BRANCH  15  19
HETATM   19  O   UNK N   1      -2.525  -0.702  -0.726  0.00  0.00    -0.390 OA
HETATM   20  H   UNK N   1      -2.460  -1.670  -0.510  0.00  0.00     0.210 HD
ENDBRANCH  15  19
ENDBRANCH   1   2
BRANCH   1  21
HETATM   21  C   UNK N   1      -0.605   1.461  -1.079  0.00  0.00     0.036 C 
BRANCH  21  22
HETATM   22  C   UNK N   1       0.771   2.138  -1.081  0.00  0.00    -0.067 C 
HETATM   23  C   UNK N   1       0.874   3.497  -0.859  0.00  0.00    -0.080 C 
HETATM   24  C   UNK N   1       2.206   4.221  -0.865  0.00  0.00     0.036 C 
HETATM   25  C   UNK N   1      -0.318   4.381  -0.548  0.00  0.00     0.043 C 
HETATM   26  C   UNK N   1       3.344   3.438  -1.504  0.00  0.00     0.037 C 
HETATM   27  C   UNK N   1       3.354   2.033  -0.928  0.00  0.00     0.131 C 
HETATM   28  C   UNK N   1       2.045   1.259  -1.314  0.00  0.00     0.009 C 
HETATM   29  C   UNK N   1       2.069   0.868  -2.814  0.00  0.00     0.023 C 
BRANCH  27  30
HETATM   30  O   UNK N   1       4.489   1.333  -1.376  0.00  0.00    -0.394 OA
HETATM   31  H   UNK N   1       5.270   1.698  -0.885  0.00  0.00     0.210 HD
ENDBRANCH  27  30
BRANCH  28  32
HETATM   32  C   UNK N   1       2.035  -0.075  -0.494  0.00  0.00     0.043 C 
BRANCH  32  33
HETATM   33  C   UNK N   1       1.886   0.152   0.988  0.00  0.00    -0.027 C 
HETATM   34  C   UNK N   1       2.800  -0.322   1.850  0.00  0.00     0.006 C 
BRANCH  34  35
HETATM   35  C   UNK N   1       2.726  -0.115   3.352  0.00  0.00     0.068 C 
HETATM   36  C   UNK N   1       2.647  -1.483   4.057  0.00  0.00     0.050 C 
HETATM   37  C   UNK N   1       4.006   0.609   3.787  0.00  0.00     0.050 C 
BRANCH  35  38
HETATM   38  O   UNK N   1       1.627   0.686   3.726  0.00  0.00    -0.387 OA
HETATM   39  H   UNK N   1       0.796   0.155   3.604  0.00  0.00     0.211 HD
ENDBRANCH  35  38
ENDBRANCH  34  35
ENDBRANCH  32  33
ENDBRANCH  28  32
ENDBRANCH  21  22
ENDBRANCH   1  21
TORSDOF 10
