REMARK  7 active torsions:
REMARK  status: ('A' for Active; 'I' for Inactive)
REMARK    1  A    between atoms: C_3  and  O_4 
REMARK    2  A    between atoms: C_12  and  O_13 
REMARK    3  A    between atoms: C_15  and  C_16 
REMARK    4  A    between atoms: C_16  and  C_17 
REMARK    5  A    between atoms: C_17  and  C_18 
REMARK    6  A    between atoms: C_21  and  O_22 
REMARK    7  A    between atoms: C_26  and  O_27 
ROOT
HETATM    1  C   UNK N   1       0.389   0.710  -1.115  0.00  0.00     0.011 C 
ENDROOT
BRANCH   1   2
HETATM    2  C   UNK N   1       1.350   0.996   0.093  0.00  0.00     0.030 C 
HETATM    3  C   UNK N   1       2.592   1.914  -0.328  0.00  0.00    -0.011 C 
HETATM    4  C   UNK N   1       2.145   3.147  -1.195  0.00  0.00     0.015 C 
HETATM    5  C   UNK N   1       3.665   1.066  -1.143  0.00  0.00     0.131 C 
HETATM    6  C   UNK N   1       3.202   2.508   0.977  0.00  0.00     0.018 C 
HETATM    7  C   UNK N   1       3.209   4.176  -1.648  0.00  0.00     0.035 C 
HETATM    8  C   UNK N   1       4.531   3.598  -2.215  0.00  0.00     0.152 C 
HETATM    9  C   UNK N   1       4.361   2.309  -3.111  0.00  0.00     0.080 C 
HETATM   10  O   UNK N   1       3.553   1.267  -2.547  0.00  0.00    -0.372 OA
HETATM   11  C   UNK N   1       5.745   1.725  -3.466  0.00  0.00     0.048 C 
HETATM   12  C   UNK N   1       3.678   2.719  -4.432  0.00  0.00     0.048 C 
HETATM   13  C   UNK N   1       3.606  -0.461  -0.903  0.00  0.00     0.036 C 
HETATM   14  C   UNK N   1       3.296  -0.744   0.555  0.00  0.00     0.040 C 
HETATM   15  C   UNK N   1       1.814  -0.348   0.857  0.00  0.00     0.059 C 
HETATM   16  C   UNK N   1       1.601  -0.209   2.382  0.00  0.00     0.046 C 
BRANCH   8  17
HETATM   17  O   UNK N   1       5.437   3.365  -1.166  0.00  0.00    -0.393 OA
HETATM   18  H   UNK N   1       5.789   4.245  -0.869  0.00  0.00     0.210 HD
ENDBRANCH   8  17
BRANCH  15  19
HETATM   19  O   UNK N   1       1.024  -1.429   0.421  0.00  0.00    -0.390 OA
HETATM   20  H   UNK N   1       1.221  -2.235   0.967  0.00  0.00     0.210 HD
ENDBRANCH  15  19
ENDBRANCH   1   2
BRANCH   1  21
HETATM   21  C   UNK N   1      -1.013   0.161  -0.750  0.00  0.00     0.042 C 
BRANCH  21  22
HETATM   22  C   UNK N   1      -1.924  -0.040  -2.005  0.00  0.00     0.102 A 
HETATM   23  O   UNK N   1      -3.274   0.054  -1.659  0.00  0.00    -0.360 OA
HETATM   24  C   UNK N   1      -2.790   1.149  -2.434  0.00  0.00     0.116 A 
HETATM   25  C   UNK N   1      -3.735   1.305  -3.682  0.00  0.00     0.156 C 
HETATM   26  C   UNK N   1      -2.785   2.427  -1.554  0.00  0.00     0.052 C 
HETATM   27  C   UNK N   1      -3.739   0.254  -4.805  0.00  0.00     0.043 C 
HETATM   28  C   UNK N   1      -3.949  -1.220  -4.437  0.00  0.00     0.027 C 
HETATM   29  C   UNK N   1      -5.311  -1.672  -3.840  0.00  0.00     0.058 C 
HETATM   30  C   UNK N   1      -2.850  -1.959  -3.615  0.00  0.00     0.003 C 
HETATM   31  C   UNK N   1      -4.965  -3.087  -3.364  0.00  0.00     0.038 C 
HETATM   32  C   UNK N   1      -6.455  -1.642  -4.866  0.00  0.00     0.046 C 
HETATM   33  C   UNK N   1      -3.657  -2.840  -2.629  0.00  0.00     0.009 C 
HETATM   34  C   UNK N   1      -1.585  -1.223  -3.012  0.00  0.00    -0.009 C 
HETATM   35  C   UNK N   1      -0.762  -2.345  -2.305  0.00  0.00     0.018 C 
HETATM   36  C   UNK N   1      -0.650  -0.686  -4.133  0.00  0.00     0.018 C 
BRANCH  25  37
HETATM   37  O   UNK N   1      -5.070   1.596  -3.322  0.00  0.00    -0.392 OA
HETATM   38  H   UNK N   1      -5.202   1.495  -2.345  0.00  0.00     0.210 HD
ENDBRANCH  25  37
BRANCH  29  39
HETATM   39  O   UNK N   1      -5.656  -0.884  -2.728  0.00  0.00    -0.390 OA
HETATM   40  H   UNK N   1      -6.457  -1.287  -2.300  0.00  0.00     0.210 HD
ENDBRANCH  29  39
ENDBRANCH  21  22
ENDBRANCH   1  21
TORSDOF 7
