REMARK  5 active torsions:
REMARK  status: ('A' for Active; 'I' for Inactive)
REMARK    1  A    between atoms: C_5  and  C_6 
REMARK    2  A    between atoms: C_6  and  C_7 
REMARK    3  A    between atoms: C_8  and  O_9 
REMARK    4  A    between atoms: C_18  and  O_19 
REMARK    5  A    between atoms: C_29  and  O_30 
ROOT
HETATM    1  C   UNK N   1       0.266  -0.739  -0.314  0.00  0.00     0.028 C 
HETATM    2  C   UNK N   1      -0.008  -2.255  -0.039  0.00  0.00     0.123 C 
HETATM    3  C   UNK N   1       1.043  -3.152  -0.705  0.00  0.00     0.034 C 
HETATM    4  C   UNK N   1       2.419  -2.818  -0.164  0.00  0.00     0.035 C 
HETATM    5  C   UNK N   1       2.793  -1.358  -0.449  0.00  0.00     0.131 C 
HETATM    6  O   UNK N   1       2.993  -1.161  -1.841  0.00  0.00    -0.372 OA
HETATM    7  C   UNK N   1       4.156  -0.386  -2.184  0.00  0.00     0.080 C 
HETATM    8  C   UNK N   1       3.857   0.255  -3.553  0.00  0.00     0.048 C 
HETATM    9  C   UNK N   1       5.335  -1.363  -2.362  0.00  0.00     0.048 C 
HETATM   10  C   UNK N   1       4.570   0.731  -1.127  0.00  0.00     0.152 C 
HETATM   11  C   UNK N   1       3.445   1.673  -0.619  0.00  0.00     0.035 C 
HETATM   12  C   UNK N   1       2.023   1.081  -0.571  0.00  0.00     0.015 C 
HETATM   13  C   UNK N   1       1.754  -0.313   0.097  0.00  0.00    -0.011 C 
HETATM   14  C   UNK N   1       1.932  -0.207   1.633  0.00  0.00     0.018 C 
ENDROOT
BRANCH   1  15
HETATM   15  C   UNK N   1      -0.817   0.146   0.392  0.00  0.00     0.035 C 
BRANCH  15  16
HETATM   16  C   UNK N   1      -2.242  -0.110  -0.049  0.00  0.00    -0.022 C 
HETATM   17  C   UNK N   1      -2.848   0.431  -1.143  0.00  0.00    -0.067 C 
HETATM   18  C   UNK N   1      -2.078   1.391  -2.051  0.00  0.00     0.080 C 
HETATM   19  C   UNK N   1      -4.335   0.144  -1.548  0.00  0.00     0.029 C 
HETATM   20  C   UNK N   1      -2.208   0.865  -3.448  0.00  0.00     0.135 C 
HETATM   21  C   UNK N   1      -2.628   2.823  -1.931  0.00  0.00     0.022 C 
HETATM   22  O   UNK N   1      -1.219   0.590  -4.109  0.00  0.00    -0.297 OA
HETATM   23  C   UNK N   1      -3.582   0.633  -3.992  0.00  0.00     0.086 C 
HETATM   24  C   UNK N   1      -4.362  -0.328  -3.057  0.00  0.00     0.030 C 
HETATM   25  C   UNK N   1      -5.811  -0.454  -3.602  0.00  0.00     0.123 C 
HETATM   26  C   UNK N   1      -6.654  -1.385  -2.731  0.00  0.00     0.033 C 
HETATM   27  C   UNK N   1      -6.673  -0.869  -1.288  0.00  0.00     0.012 C 
HETATM   28  C   UNK N   1      -5.252  -0.805  -0.646  0.00  0.00    -0.040 C 
HETATM   29  C   UNK N   1      -5.471  -0.197   0.767  0.00  0.00     0.015 C 
HETATM   30  C   UNK N   1      -4.733  -2.271  -0.515  0.00  0.00     0.015 C 
BRANCH  25  31
HETATM   31  O   UNK N   1      -6.417   0.816  -3.650  0.00  0.00    -0.395 OA
HETATM   32  H   UNK N   1      -7.233   0.728  -4.209  0.00  0.00     0.210 HD
ENDBRANCH  25  31
ENDBRANCH  15  16
ENDBRANCH   1  15
BRANCH   2  33
HETATM   33  O   UNK N   1      -1.278  -2.652  -0.488  0.00  0.00    -0.395 OA
HETATM   34  H   UNK N   1      -1.322  -2.485  -1.466  0.00  0.00     0.210 HD
ENDBRANCH   2  33
BRANCH  10  35
HETATM   35  O   UNK N   1       5.685   1.475  -1.554  0.00  0.00    -0.393 OA
HETATM   36  H   UNK N   1       5.381   2.124  -2.240  0.00  0.00     0.210 HD
ENDBRANCH  10  35
TORSDOF 5
