REMARK  7 active torsions:
REMARK  status: ('A' for Active; 'I' for Inactive)
REMARK    1  A    between atoms: C_3  and  O_4 
REMARK    2  A    between atoms: C_12  and  O_13 
REMARK    3  A    between atoms: C_15  and  C_16 
REMARK    4  A    between atoms: C_16  and  C_17 
REMARK    5  A    between atoms: C_17  and  C_18 
REMARK    6  A    between atoms: C_20  and  O_21 
REMARK    7  A    between atoms: C_25  and  O_26 
ROOT
HETATM    1  C   UNK N   1       0.563  -1.109  -1.257  0.00  0.00     0.013 C 
ENDROOT
BRANCH   1   2
HETATM    2  C   UNK N   1      -0.668  -1.996  -1.699  0.00  0.00     0.030 C 
HETATM    3  C   UNK N   1      -1.580  -1.402  -2.885  0.00  0.00    -0.011 C 
HETATM    4  C   UNK N   1      -2.168  -0.012  -2.521  0.00  0.00     0.015 C 
HETATM    5  C   UNK N   1      -2.687  -2.460  -3.213  0.00  0.00     0.131 C 
HETATM    6  C   UNK N   1      -0.715  -1.232  -4.168  0.00  0.00     0.018 C 
HETATM    7  C   UNK N   1      -3.175   0.666  -3.450  0.00  0.00     0.035 C 
HETATM    8  C   UNK N   1      -4.518  -0.063  -3.471  0.00  0.00     0.152 C 
HETATM    9  C   UNK N   1      -4.552  -1.302  -4.425  0.00  0.00     0.080 C 
HETATM   10  O   UNK N   1      -3.432  -2.183  -4.390  0.00  0.00    -0.372 OA
HETATM   11  C   UNK N   1      -5.850  -2.096  -4.171  0.00  0.00     0.048 C 
HETATM   12  C   UNK N   1      -4.594  -0.813  -5.893  0.00  0.00     0.048 C 
HETATM   13  C   UNK N   1      -3.500  -2.957  -2.009  0.00  0.00     0.036 C 
HETATM   14  C   UNK N   1      -2.553  -3.588  -0.990  0.00  0.00     0.040 C 
HETATM   15  C   UNK N   1      -1.499  -2.581  -0.476  0.00  0.00     0.059 C 
HETATM   16  C   UNK N   1      -0.578  -3.352   0.505  0.00  0.00     0.046 C 
BRANCH   8  17
HETATM   17  O   UNK N   1      -5.526   0.842  -3.861  0.00  0.00    -0.393 OA
HETATM   18  H   UNK N   1      -5.701   1.446  -3.092  0.00  0.00     0.210 HD
ENDBRANCH   8  17
BRANCH  15  19
HETATM   19  O   UNK N   1      -2.157  -1.547   0.216  0.00  0.00    -0.390 OA
HETATM   20  H   UNK N   1      -2.617  -1.936   1.005  0.00  0.00     0.210 HD
ENDBRANCH  15  19
ENDBRANCH   1   2
BRANCH   1  21
HETATM   21  C   UNK N   1       0.279   0.139  -0.360  0.00  0.00     0.036 C 
BRANCH  21  22
HETATM   22  C   UNK N   1       1.541   0.920   0.061  0.00  0.00    -0.067 C 
HETATM   23  C   UNK N   1       2.332   1.480  -0.948  0.00  0.00    -0.052 C 
HETATM   24  C   UNK N   1       3.761   2.024  -0.818  0.00  0.00     0.147 C 
HETATM   25  C   UNK N   1       1.815   1.574  -2.387  0.00  0.00     0.046 C 
HETATM   26  C   UNK N   1       4.571   1.535   0.378  0.00  0.00     0.044 C 
HETATM   27  C   UNK N   1       4.201   2.272   1.637  0.00  0.00     0.027 C 
HETATM   28  C   UNK N   1       5.019   1.990   2.912  0.00  0.00     0.058 C 
HETATM   29  C   UNK N   1       2.726   2.237   2.056  0.00  0.00     0.005 C 
HETATM   30  C   UNK N   1       4.242   2.871   3.895  0.00  0.00     0.038 C 
HETATM   31  C   UNK N   1       6.496   2.410   2.830  0.00  0.00     0.046 C 
HETATM   32  C   UNK N   1       2.809   2.465   3.604  0.00  0.00     0.009 C 
HETATM   33  C   UNK N   1       1.784   1.034   1.620  0.00  0.00    -0.020 C 
HETATM   34  C   UNK N   1       2.219  -0.350   2.157  0.00  0.00     0.020 C 
HETATM   35  C   UNK N   1       0.413   1.409   2.305  0.00  0.00     0.020 C 
BRANCH  24  36
HETATM   36  O   UNK N   1       4.478   1.567  -1.942  0.00  0.00    -0.391 OA
HETATM   37  H   UNK N   1       5.167   2.248  -2.161  0.00  0.00     0.210 HD
ENDBRANCH  24  36
BRANCH  28  38
HETATM   38  O   UNK N   1       4.925   0.641   3.308  0.00  0.00    -0.390 OA
HETATM   39  H   UNK N   1       5.387   0.091   2.623  0.00  0.00     0.210 HD
ENDBRANCH  28  38
ENDBRANCH  21  22
ENDBRANCH   1  21
TORSDOF 7
