REMARK  5 active torsions:
REMARK  status: ('A' for Active; 'I' for Inactive)
REMARK    1  A    between atoms: C_4  and  O_5 
REMARK    2  A    between atoms: C_7  and  O_8 
REMARK    3  A    between atoms: C_10  and  O_11 
REMARK    4  A    between atoms: C_16  and  C_18 
REMARK    5  A    between atoms: C_21  and  O_22 
ROOT
HETATM    1  O   UNK N   1       3.874   1.530  -2.085  0.00  0.00    -0.287 OA
HETATM    2  C   UNK N   1       2.914   1.145  -1.448  0.00  0.00     0.190 A 
HETATM    3  C   UNK N   1       3.041   0.617  -0.133  0.00  0.00     0.084 A 
HETATM    4  C   UNK N   1       4.278   0.486   0.584  0.00  0.00     0.118 A 
HETATM    5  C   UNK N   1       4.265  -0.028   1.901  0.00  0.00     0.133 A 
HETATM    6  C   UNK N   1       3.065  -0.412   2.511  0.00  0.00     0.106 A 
HETATM    7  C   UNK N   1       1.864  -0.300   1.800  0.00  0.00     0.078 A 
HETATM    8  C   UNK N   1       1.847   0.199   0.504  0.00  0.00     0.096 A 
HETATM    9  O   UNK N   1       0.676   0.278  -0.116  0.00  0.00    -0.309 OA
HETATM   10  C   UNK N   1       0.528   0.779  -1.335  0.00  0.00     0.090 A 
HETATM   11  C   UNK N   1       1.650   1.236  -2.034  0.00  0.00     0.094 A 
ENDROOT
BRANCH  10  12
HETATM   12  C   UNK N   1      -0.838   0.825  -1.912  0.00  0.00    -0.002 A 
HETATM   13  C   UNK N   1      -1.814  -0.066  -1.430  0.00  0.00     0.017 A 
HETATM   14  C   UNK N   1      -3.106  -0.055  -1.957  0.00  0.00     0.037 A 
HETATM   15  C   UNK N   1      -3.450   0.864  -2.956  0.00  0.00     0.065 A 
HETATM   16  C   UNK N   1      -2.492   1.766  -3.430  0.00  0.00     0.037 A 
HETATM   17  C   UNK N   1      -1.190   1.743  -2.921  0.00  0.00     0.017 A 
BRANCH  15  18
HETATM   18  O   UNK N   1      -4.698   0.889  -3.466  0.00  0.00    -0.361 OA
HETATM   19  H   UNK N   1      -5.381   0.273  -3.163  0.00  0.00     0.217 HD
ENDBRANCH  15  18
ENDBRANCH  10  12
BRANCH   4  20
HETATM   20  O   UNK N   1       5.481   0.835   0.066  0.00  0.00    -0.357 OA
HETATM   21  H   UNK N   1       5.653   1.173  -0.817  0.00  0.00     0.218 HD
ENDBRANCH   4  20
BRANCH   6  22
HETATM   22  O   UNK N   1       3.097  -0.888   3.787  0.00  0.00    -0.353 OA
HETATM   23  C   UNK N   1       1.989  -1.280   4.513  0.00  0.00     0.210 C 
ENDBRANCH   6  22
BRANCH   5  24
HETATM   24  O   UNK N   1       5.417  -0.156   2.599  0.00  0.00    -0.356 OA
HETATM   25  H   UNK N   1       6.279   0.085   2.235  0.00  0.00     0.218 HD
ENDBRANCH   5  24
TORSDOF 5
