REMARK  5 active torsions:
REMARK  status: ('A' for Active; 'I' for Inactive)
REMARK    1  A    between atoms: C_2  and  O_3 
REMARK    2  A    between atoms: O_3  and  C_4 
REMARK    3  A    between atoms: C_5  and  O_6 
REMARK    4  A    between atoms: C_18  and  O_19 
REMARK    5  A    between atoms: C_21  and  O_23 
ROOT
HETATM    1  C   UNK N   1       1.877   1.429  -0.869  0.00  0.00     0.175 C 
HETATM    2  C   UNK N   1       1.809  -0.005  -0.268  0.00  0.00     0.171 C 
HETATM    3  C   UNK N   1       1.101  -0.071   1.074  0.00  0.00     0.012 C 
HETATM    4  C   UNK N   1       0.496   1.007   1.602  0.00  0.00    -0.046 C 
HETATM    5  C   UNK N   1      -0.340   1.003   2.811  0.00  0.00     0.066 C 
HETATM    6  C   UNK N   1      -1.503   1.822   2.265  0.00  0.00     0.278 C 
HETATM    7  N   UNK N   1      -0.896   2.877   1.413  0.00  0.00     0.102 N 
HETATM    8  C   UNK N   1       0.402   2.325   0.927  0.00  0.00     0.263 C 
HETATM    9  C   UNK N   1       0.571   2.227  -0.618  0.00  0.00     0.089 C 
HETATM   10  C   UNK N   1      -0.730   1.750  -1.252  0.00  0.00    -0.038 A 
HETATM   11  C   UNK N   1      -1.912   2.338  -0.769  0.00  0.00    -0.020 A 
HETATM   12  C   UNK N   1      -3.157   1.968  -1.297  0.00  0.00     0.049 A 
HETATM   13  C   UNK N   1      -3.229   1.027  -2.332  0.00  0.00     0.099 A 
HETATM   14  C   UNK N   1      -2.055   0.433  -2.819  0.00  0.00     0.101 A 
HETATM   15  C   UNK N   1      -0.810   0.788  -2.276  0.00  0.00     0.048 A 
HETATM   16  C   UNK N   1      -1.799   3.356   0.342  0.00  0.00     0.312 C 
ENDROOT
BRANCH   1  17
HETATM   17  O   UNK N   1       2.205   1.378  -2.214  0.00  0.00    -0.313 OA
BRANCH  17  18
HETATM   18  C   UNK N   1       3.478   1.399  -2.693  0.00  0.00     0.255 C 
HETATM   19  O   UNK N   1       4.433   1.522  -1.939  0.00  0.00    -0.266 OA
HETATM   20  C   UNK N   1       3.707   1.258  -4.161  0.00  0.00     0.126 C 
ENDBRANCH  17  18
ENDBRANCH   1  17
BRANCH   2  21
HETATM   21  O   UNK N   1       3.100  -0.552  -0.173  0.00  0.00    -0.389 OA
HETATM   22  H   UNK N   1       3.609  -0.003   0.481  0.00  0.00     0.210 HD
ENDBRANCH   2  21
BRANCH  14  23
HETATM   23  O   UNK N   1      -2.115  -0.470  -3.819  0.00  0.00    -0.353 OA
HETATM   24  C   UNK N   1      -2.223  -1.818  -3.561  0.00  0.00     0.210 C 
ENDBRANCH  14  23
BRANCH  13  25
HETATM   25  O   UNK N   1      -4.422   0.690  -2.869  0.00  0.00    -0.358 OA
HETATM   26  H   UNK N   1      -5.248   1.095  -2.571  0.00  0.00     0.218 HD
ENDBRANCH  13  25
TORSDOF 5
