REMARK  10 active torsions:
REMARK  status: ('A' for Active; 'I' for Inactive)
REMARK    1  A    between atoms: C_3  and  O_4 
REMARK    2  A    between atoms: C_8  and  C_10 
REMARK    3  A    between atoms: C_11  and  C_12 
REMARK       I    between atoms: C_12  and  N_14 
REMARK    4  A    between atoms: N_14  and  C_15 
REMARK    5  A    between atoms: C_15  and  C_16 
REMARK    6  A    between atoms: C_15  and  C_20 
REMARK    7  A    between atoms: C_16  and  O_18 
REMARK    8  A    between atoms: C_20  and  C_21 
REMARK    9  A    between atoms: C_21  and  C_22 
REMARK   10  A    between atoms: C_22  and  N_23 
REMARK       I    between atoms: N_23  and  C_24 
REMARK       I    between atoms: C_24  and  N_28 
ROOT
HETATM    1  C   UNK N   1      -4.007   0.112  -2.218  0.00  0.00     0.182 C 
ENDROOT
BRANCH   1   2
HETATM    2  N   UNK N   1      -3.606   1.505  -1.993  0.00  0.00    -0.343 N 
HETATM    3  C   UNK N   1      -2.567   1.881  -1.195  0.00  0.00     0.241 C 
HETATM    4  O   UNK N   1      -1.940   1.052  -0.559  0.00  0.00    -0.269 OA
HETATM    5  H   UNK N   1      -4.116   2.257  -2.478  0.00  0.00     0.163 HD
BRANCH   3   6
HETATM    6  C   UNK N   1      -2.207   3.320  -1.134  0.00  0.00     0.075 C 
HETATM    7  C   UNK N   1      -0.954   3.814  -1.092  0.00  0.00     0.017 C 
BRANCH   7   8
HETATM    8  C   UNK N   1       0.289   3.008  -1.133  0.00  0.00    -0.035 A 
HETATM    9  C   UNK N   1       1.173   3.241  -2.192  0.00  0.00     0.014 A 
HETATM   10  C   UNK N   1       2.349   2.504  -2.313  0.00  0.00     0.039 A 
HETATM   11  C   UNK N   1       2.681   1.532  -1.350  0.00  0.00     0.085 A 
HETATM   12  C   UNK N   1       1.808   1.315  -0.270  0.00  0.00     0.045 A 
HETATM   13 Br   UNK N   1       2.238   0.023   1.075  0.00  0.00    -0.048 Br
HETATM   14  C   UNK N   1       0.615   2.044  -0.165  0.00  0.00     0.033 A 
BRANCH  11  15
HETATM   15  O   UNK N   1       3.827   0.803  -1.433  0.00  0.00    -0.355 OA
HETATM   16  C   UNK N   1       4.747   0.888  -2.460  0.00  0.00     0.210 C 
ENDBRANCH  11  15
ENDBRANCH   7   8
ENDBRANCH   3   6
ENDBRANCH   1   2
BRANCH   1  17
HETATM   17  C   UNK N   1      -5.398   0.059  -2.835  0.00  0.00     0.163 C 
HETATM   18  O   UNK N   1      -5.925  -1.024  -3.045  0.00  0.00    -0.648 OA
BRANCH  17  19
HETATM   19  O   UNK N   1      -6.071   1.194  -3.134  0.00  0.00    -0.775 OA
HETATM   20  H   UNK N   1      -6.961   1.172  -3.513  0.00  0.00     0.167 HD
ENDBRANCH  17  19
ENDBRANCH   1  17
BRANCH   1  21
HETATM   21  C   UNK N   1      -3.021  -0.656  -3.162  0.00  0.00     0.038 C 
BRANCH  21  22
HETATM   22  C   UNK N   1      -1.598  -0.816  -2.609  0.00  0.00     0.023 C 
BRANCH  22  23
HETATM   23  C   UNK N   1      -0.669  -1.665  -3.480  0.00  0.00     0.138 C 
BRANCH  23  24
HETATM   24  N   UNK N   1       0.638  -1.751  -2.845  0.00  0.00    -0.227 N 
HETATM   25  C   UNK N   1       1.725  -2.457  -3.432  0.00  0.00     0.665 C 
HETATM   26  N   UNK N   1       1.585  -3.041  -4.568  0.00  0.00    -0.235 N 
HETATM   27  N   UNK N   1       2.972  -2.506  -2.751  0.00  0.00    -0.235 N 
HETATM   28  H   UNK N   1       2.367  -3.553  -5.004  0.00  0.00     0.174 HD
ATOM     29  HN  UNK N   1       0.685  -2.998  -5.046  1.00  0.00     0.174 HD
HETATM   30  H   UNK N   1       3.775  -3.008  -3.158  0.00  0.00     0.174 HD
HETATM   31  H   UNK N   1       3.084  -2.040  -1.840  0.00  0.00     0.174 HD
HETATM   32  H   UNK N   1       0.793  -1.286  -1.937  0.00  0.00     0.177 HD
ENDBRANCH  23  24
ENDBRANCH  22  23
ENDBRANCH  21  22
ENDBRANCH   1  21
TORSDOF 10
