REMARK  10 active torsions:
REMARK  status: ('A' for Active; 'I' for Inactive)
REMARK    1  A    between atoms: C_3  and  O_4 
REMARK    2  A    between atoms: C_9  and  C_11 
REMARK    3  A    between atoms: C_12  and  C_13 
REMARK       I    between atoms: C_13  and  N_15 
REMARK    4  A    between atoms: N_15  and  C_16 
REMARK    5  A    between atoms: C_16  and  C_17 
REMARK    6  A    between atoms: C_16  and  C_21 
REMARK    7  A    between atoms: C_17  and  O_19 
REMARK    8  A    between atoms: C_21  and  C_22 
REMARK    9  A    between atoms: C_22  and  C_23 
REMARK   10  A    between atoms: C_23  and  N_24 
REMARK       I    between atoms: C_26  and  N_27 
REMARK       I    between atoms: C_26  and  N_30 
ROOT
HETATM    1  C   UNK N   1      -5.326  -1.257  -3.605  0.00  0.00     0.182 C 
ENDROOT
BRANCH   1   2
HETATM    2  N   UNK N   1      -3.936  -0.834  -3.510  0.00  0.00    -0.343 N 
HETATM    3  C   UNK N   1      -3.111  -1.243  -2.505  0.00  0.00     0.241 C 
HETATM    4  O   UNK N   1      -3.522  -1.986  -1.624  0.00  0.00    -0.269 OA
HETATM    5  H   UNK N   1      -3.570  -0.191  -4.229  0.00  0.00     0.163 HD
BRANCH   3   6
HETATM    6  C   UNK N   1      -1.714  -0.762  -2.474  0.00  0.00     0.075 C 
HETATM    7  C   UNK N   1      -0.895  -1.026  -1.439  0.00  0.00     0.017 C 
BRANCH   7   8
HETATM    8  C   UNK N   1       0.498  -0.512  -1.348  0.00  0.00    -0.033 A 
HETATM    9  C   UNK N   1       1.147  -0.563  -0.110  0.00  0.00     0.033 A 
HETATM   10  C   UNK N   1       2.439  -0.050   0.059  0.00  0.00     0.046 A 
HETATM   11  C   UNK N   1       3.120   0.520  -1.062  0.00  0.00     0.102 A 
HETATM   12 Br   UNK N   1       3.142  -0.174   1.845  0.00  0.00    -0.048 Br
HETATM   13  C   UNK N   1       2.468   0.538  -2.306  0.00  0.00     0.046 A 
HETATM   14 Br   UNK N   1       3.339   1.273  -3.847  0.00  0.00    -0.048 Br
HETATM   15  C   UNK N   1       1.176   0.037  -2.448  0.00  0.00     0.033 A 
BRANCH  11  16
HETATM   16  O   UNK N   1       4.370   1.064  -1.021  0.00  0.00    -0.353 OA
HETATM   17  C   UNK N   1       5.202   1.242   0.058  0.00  0.00     0.210 C 
ENDBRANCH  11  16
ENDBRANCH   7   8
ENDBRANCH   3   6
ENDBRANCH   1   2
BRANCH   1  18
HETATM   18  C   UNK N   1      -6.254  -0.071  -3.460  0.00  0.00     0.163 C 
HETATM   19  O   UNK N   1      -5.807   1.064  -3.393  0.00  0.00    -0.648 OA
BRANCH  18  20
HETATM   20  O   UNK N   1      -7.588  -0.261  -3.362  0.00  0.00    -0.775 OA
HETATM   21  H   UNK N   1      -7.967  -1.151  -3.334  0.00  0.00     0.167 HD
ENDBRANCH  18  20
ENDBRANCH   1  18
BRANCH   1  22
HETATM   22  C   UNK N   1      -5.557  -1.960  -4.960  0.00  0.00     0.038 C 
BRANCH  22  23
HETATM   23  C   UNK N   1      -4.675  -3.209  -5.176  0.00  0.00     0.023 C 
BRANCH  23  24
HETATM   24  C   UNK N   1      -4.899  -4.303  -4.127  0.00  0.00     0.138 C 
BRANCH  24  25
HETATM   25  N   UNK N   1      -6.298  -4.688  -4.115  0.00  0.00    -0.227 N 
HETATM   26  C   UNK N   1      -6.976  -5.081  -3.085  0.00  0.00     0.665 C 
HETATM   27  N   UNK N   1      -6.385  -5.228  -1.794  0.00  0.00    -0.235 N 
HETATM   28  N   UNK N   1      -8.352  -5.377  -3.246  0.00  0.00    -0.235 N 
HETATM   29  H   UNK N   1      -6.968  -5.530  -1.002  0.00  0.00     0.174 HD
HETATM   30  H   UNK N   1      -5.385  -5.076  -1.619  0.00  0.00     0.174 HD
HETATM   31  H   UNK N   1      -8.801  -5.275  -4.169  0.00  0.00     0.174 HD
HETATM   32  H   UNK N   1      -8.917  -5.689  -2.444  0.00  0.00     0.174 HD
ATOM     33  HN  UNK N   1      -6.795  -4.645  -5.005  1.00  0.00     0.177 HD
ENDBRANCH  24  25
ENDBRANCH  23  24
ENDBRANCH  22  23
ENDBRANCH   1  22
TORSDOF 10
