REMARK  8 active torsions:
REMARK  status: ('A' for Active; 'I' for Inactive)
REMARK    1  A    between atoms: C_10  and  O_11 
REMARK    2  A    between atoms: O_11  and  C_12 
REMARK    3  A    between atoms: C_14  and  C_24 
REMARK    4  A    between atoms: C_15  and  O_16 
REMARK    5  A    between atoms: C_18  and  O_19 
REMARK    6  A    between atoms: C_21  and  O_22 
REMARK    7  A    between atoms: C_24  and  O_25 
REMARK    8  A    between atoms: C_27  and  C_28 
ROOT
HETATM    1  C   UNK N   1      -1.273  -0.184  -2.069  0.00  0.00     0.294 C 
HETATM    2  O   UNK N   1      -2.368  -0.047  -1.169  0.00  0.00    -0.348 OA
HETATM    3  C   UNK N   1      -3.355   0.813  -1.719  0.00  0.00     0.179 C 
HETATM    4  C   UNK N   1      -4.010   0.118  -2.940  0.00  0.00     0.180 C 
HETATM    5  C   UNK N   1      -2.908  -0.182  -3.975  0.00  0.00     0.183 C 
HETATM    6  C   UNK N   1      -1.745  -0.950  -3.322  0.00  0.00     0.204 C 
ENDROOT
BRANCH   1   7
HETATM    7  O   UNK N   1      -0.228  -0.930  -1.466  0.00  0.00    -0.328 OA
BRANCH   7   8
HETATM    8  C   UNK N   1       0.256  -0.315  -0.281  0.00  0.00     0.276 C 
HETATM    9  O   UNK N   1       0.750   0.958  -0.551  0.00  0.00    -0.331 OA
HETATM   10  C   UNK N   1       1.997   1.197  -1.048  0.00  0.00     0.151 C 
HETATM   11  C   UNK N   1       2.910   0.205  -1.150  0.00  0.00     0.044 C 
HETATM   12  C   UNK N   1       4.280   0.453  -1.677  0.00  0.00     0.291 C 
HETATM   13  C   UNK N   1       2.552  -1.204  -0.725  0.00  0.00     0.041 C 
HETATM   14  O   UNK N   1       4.611   1.566  -2.050  0.00  0.00    -0.260 OA
HETATM   15  O   UNK N   1       5.191  -0.559  -1.699  0.00  0.00    -0.318 OA
HETATM   16  C   UNK N   1       4.885  -1.872  -1.373  0.00  0.00     0.180 C 
HETATM   17  C   UNK N   1       3.824  -1.946  -0.265  0.00  0.00     0.037 C 
HETATM   18  C   UNK N   1       1.387  -1.198   0.308  0.00  0.00     0.072 C 
BRANCH  18  19
HETATM   19  C   UNK N   1       1.875  -0.775   1.694  0.00  0.00    -0.027 C 
HETATM   20  C   UNK N   1       1.470   0.314   2.361  0.00  0.00     0.007 C 
ENDBRANCH  18  19
ENDBRANCH   7   8
ENDBRANCH   1   7
BRANCH   6  21
HETATM   21  O   UNK N   1      -0.699  -1.076  -4.251  0.00  0.00    -0.388 OA
HETATM   22  H   UNK N   1      -0.077  -1.764  -3.897  0.00  0.00     0.210 HD
ENDBRANCH   6  21
BRANCH   3  23
HETATM   23  C   UNK N   1      -4.370   1.146  -0.615  0.00  0.00     0.198 C 
BRANCH  23  24
HETATM   24  O   UNK N   1      -5.245   2.165  -1.023  0.00  0.00    -0.398 OA
HETATM   25  H   UNK N   1      -6.065   1.731  -1.373  0.00  0.00     0.209 HD
ENDBRANCH  23  24
ENDBRANCH   3  23
BRANCH   5  26
HETATM   26  O   UNK N   1      -3.421  -0.883  -5.080  0.00  0.00    -0.390 OA
HETATM   27  H   UNK N   1      -3.786  -1.745  -4.745  0.00  0.00     0.210 HD
ENDBRANCH   5  26
BRANCH   4  28
HETATM   28  O   UNK N   1      -4.987   0.943  -3.518  0.00  0.00    -0.390 OA
HETATM   29  H   UNK N   1      -5.583   0.354  -4.051  0.00  0.00     0.210 HD
ENDBRANCH   4  28
TORSDOF 8
