REMARK  9 active torsions:
REMARK  status: ('A' for Active; 'I' for Inactive)
REMARK    1  A    between atoms: C_2  and  O_3 
REMARK    2  A    between atoms: C_2  and  C_19 
REMARK    3  A    between atoms: O_3  and  C_4 
REMARK    4  A    between atoms: C_10  and  C_13 
REMARK    5  A    between atoms: C_13  and  O_15 
REMARK    6  A    between atoms: C_23  and  C_29 
REMARK    7  A    between atoms: C_24  and  C_25 
REMARK    8  A    between atoms: C_25  and  C_26 
REMARK    9  A    between atoms: C_26  and  O_27 
ROOT
HETATM    1  O   UNK N   1      -1.588  -0.283  -3.077  0.00  0.00    -0.312 OA
ENDROOT
BRANCH   1   2
HETATM    2  C   UNK N   1      -0.543  -0.714  -2.324  0.00  0.00     0.292 C 
HETATM    3  O   UNK N   1       0.081  -1.714  -2.649  0.00  0.00    -0.260 OA
BRANCH   2   4
HETATM    4  C   UNK N   1      -0.159   0.046  -1.102  0.00  0.00     0.044 C 
HETATM    5  C   UNK N   1      -0.932   1.081  -0.693  0.00  0.00     0.148 C 
HETATM    6  O   UNK N   1      -0.639   1.805   0.421  0.00  0.00    -0.357 OA
HETATM    7  C   UNK N   1       0.552   1.709   1.119  0.00  0.00     0.132 C 
HETATM    8  C   UNK N   1       1.017   0.236   1.134  0.00  0.00     0.045 C 
HETATM    9  C   UNK N   1       0.329   2.260   2.530  0.00  0.00     0.040 C 
HETATM   10  C   UNK N   1       1.082  -0.356  -0.307  0.00  0.00     0.039 C 
BRANCH   8  11
HETATM   11  C   UNK N   1       2.315   0.035   1.886  0.00  0.00    -0.029 C 
HETATM   12  C   UNK N   1       2.389  -0.753   2.962  0.00  0.00     0.007 C 
ENDBRANCH   8  11
BRANCH  10  13
HETATM   13  C   UNK N   1       2.390  -0.122  -1.128  0.00  0.00     0.036 C 
BRANCH  13  14
HETATM   14  C   UNK N   1       2.720   1.325  -1.517  0.00  0.00     0.165 C 
BRANCH  14  15
HETATM   15  O   UNK N   1       3.893   1.363  -2.285  0.00  0.00    -0.401 OA
HETATM   16  H   UNK N   1       3.670   0.979  -3.173  0.00  0.00     0.209 HD
ENDBRANCH  14  15
ENDBRANCH  13  14
ENDBRANCH  10  13
ENDBRANCH   2   4
ENDBRANCH   1   2
BRANCH   1  17
HETATM   17  C   UNK N   1      -2.113  -0.955  -4.166  0.00  0.00     0.137 C 
HETATM   18  C   UNK N   1      -3.039  -2.115  -3.713  0.00  0.00     0.018 C 
HETATM   19  C   UNK N   1      -4.466  -1.525  -3.766  0.00  0.00     0.029 C 
HETATM   20  C   UNK N   1      -2.912  -3.303  -4.689  0.00  0.00     0.013 C 
HETATM   21  C   UNK N   1      -4.891  -0.691  -2.538  0.00  0.00     0.129 C 
HETATM   22  C   UNK N   1      -4.403  -0.617  -5.005  0.00  0.00     0.036 C 
HETATM   23  O   UNK N   1      -6.100  -0.077  -2.830  0.00  0.00    -0.357 OA
HETATM   24  C   UNK N   1      -5.079  -1.555  -1.287  0.00  0.00     0.040 C 
HETATM   25  C   UNK N   1      -6.313   0.607  -3.988  0.00  0.00     0.148 C 
HETATM   26  C   UNK N   1      -5.519   0.419  -5.067  0.00  0.00     0.043 C 
HETATM   27  C   UNK N   1      -3.022   0.032  -4.929  0.00  0.00     0.043 C 
BRANCH  26  28
HETATM   28  C   UNK N   1      -5.714   1.235  -6.294  0.00  0.00     0.291 C 
HETATM   29  O   UNK N   1      -4.971   1.079  -7.253  0.00  0.00    -0.260 OA
BRANCH  28  30
HETATM   30  O   UNK N   1      -6.716   2.154  -6.343  0.00  0.00    -0.323 OA
HETATM   31  C   UNK N   1      -6.960   2.954  -7.439  0.00  0.00     0.213 C 
ENDBRANCH  28  30
ENDBRANCH  26  28
ENDBRANCH   1  17
TORSDOF 9
