REMARK  4 active torsions:
REMARK  status: ('A' for Active; 'I' for Inactive)
REMARK    1  A    between atoms: C_6  and  C_8 
REMARK    2  A    between atoms: C_11  and  O_12 
REMARK    3  A    between atoms: C_17  and  O_18 
REMARK    4  A    between atoms: C_21  and  O_22 
ROOT
HETATM    1  O   UNK N   1       3.199   1.942  -3.793  0.00  0.00    -0.287 OA
HETATM    2  C   UNK N   1       2.431   1.564  -2.933  0.00  0.00     0.190 A 
HETATM    3  C   UNK N   1       2.872   1.200  -1.629  0.00  0.00     0.082 A 
HETATM    4  C   UNK N   1       1.876   0.773  -0.712  0.00  0.00     0.101 A 
HETATM    5  O   UNK N   1       0.594   0.745  -1.073  0.00  0.00    -0.308 OA
HETATM    6  C   UNK N   1       0.157   1.071  -2.282  0.00  0.00     0.090 A 
HETATM    7  C   UNK N   1       1.076   1.486  -3.252  0.00  0.00     0.094 A 
HETATM    8  C   UNK N   1       2.216   0.373   0.594  0.00  0.00     0.007 A 
HETATM    9  C   UNK N   1       3.563   0.409   1.008  0.00  0.00     0.083 A 
HETATM   10  C   UNK N   1       4.564   0.831   0.119  0.00  0.00     0.006 A 
HETATM   11  C   UNK N   1       4.240   1.233  -1.197  0.00  0.00     0.091 A 
HETATM   12  C   UNK N   1       5.999   0.838   0.597  0.00  0.00     0.054 C 
HETATM   13  C   UNK N   1       1.141  -0.108   1.545  0.00  0.00     0.054 C 
ENDROOT
BRANCH   6  14
HETATM   14  C   UNK N   1      -1.306   0.983  -2.554  0.00  0.00    -0.002 A 
HETATM   15  C   UNK N   1      -1.824   0.931  -3.866  0.00  0.00     0.017 A 
HETATM   16  C   UNK N   1      -3.202   0.830  -4.079  0.00  0.00     0.037 A 
HETATM   17  C   UNK N   1      -4.085   0.795  -2.992  0.00  0.00     0.065 A 
HETATM   18  C   UNK N   1      -3.582   0.854  -1.690  0.00  0.00     0.037 A 
HETATM   19  C   UNK N   1      -2.204   0.938  -1.470  0.00  0.00     0.017 A 
BRANCH  17  20
HETATM   20  O   UNK N   1      -5.415   0.700  -3.189  0.00  0.00    -0.361 OA
HETATM   21  H   UNK N   1      -5.795   0.645  -4.078  0.00  0.00     0.217 HD
ENDBRANCH  17  20
ENDBRANCH   6  14
BRANCH  11  22
HETATM   22  O   UNK N   1       5.261   1.636  -1.992  0.00  0.00    -0.359 OA
HETATM   23  H   UNK N   1       5.208   1.965  -2.893  0.00  0.00     0.218 HD
ENDBRANCH  11  22
BRANCH   9  24
HETATM   24  O   UNK N   1       3.921   0.036   2.261  0.00  0.00    -0.359 OA
HETATM   25  H   UNK N   1       3.294  -0.255   2.935  0.00  0.00     0.217 HD
ENDBRANCH   9  24
TORSDOF 4
