REMARK  9 active torsions:
REMARK  status: ('A' for Active; 'I' for Inactive)
REMARK    1  A    between atoms: C_2  and  C_28 
REMARK    2  A    between atoms: C_3  and  O_4 
REMARK    3  A    between atoms: O_4  and  C_5 
REMARK    4  A    between atoms: C_8  and  O_9 
REMARK    5  A    between atoms: C_11  and  O_12 
REMARK    6  A    between atoms: C_14  and  O_15 
REMARK    7  A    between atoms: C_21  and  O_22 
REMARK    8  A    between atoms: C_25  and  O_26 
REMARK    9  A    between atoms: C_31  and  O_32 
ROOT
HETATM    1  O   UNK N   1      -1.094   0.591  -1.178  0.00  0.00    -0.306 OA
HETATM    2  C   UNK N   1       0.184   0.934  -1.019  0.00  0.00     0.119 A 
HETATM    3  C   UNK N   1       0.816   1.760  -1.973  0.00  0.00     0.108 A 
HETATM    4  C   UNK N   1       0.053   2.231  -3.058  0.00  0.00     0.057 A 
HETATM    5  C   UNK N   1      -1.298   1.879  -3.162  0.00  0.00     0.034 A 
HETATM    6  C   UNK N   1      -1.844   1.033  -2.177  0.00  0.00     0.092 A 
HETATM    7  C   UNK N   1      -3.190   0.660  -2.242  0.00  0.00     0.074 A 
HETATM    8  C   UNK N   1      -4.001   1.125  -3.285  0.00  0.00     0.071 A 
HETATM    9  C   UNK N   1      -3.461   1.961  -4.269  0.00  0.00     0.074 A 
HETATM   10  C   UNK N   1      -2.110   2.342  -4.216  0.00  0.00     0.081 A 
ENDROOT
BRANCH   3  11
HETATM   11  O   UNK N   1       2.149   2.031  -1.859  0.00  0.00    -0.315 OA
BRANCH  11  12
HETATM   12  C   UNK N   1       2.977   2.336  -2.928  0.00  0.00     0.297 C 
HETATM   13  O   UNK N   1       2.956   1.242  -3.839  0.00  0.00    -0.356 OA
HETATM   14  C   UNK N   1       3.693   1.546  -5.009  0.00  0.00     0.205 C 
HETATM   15  C   UNK N   1       5.181   1.739  -4.683  0.00  0.00     0.173 C 
HETATM   16  C   UNK N   1       5.309   2.874  -3.646  0.00  0.00     0.182 C 
HETATM   17  C   UNK N   1       4.417   2.573  -2.424  0.00  0.00     0.205 C 
BRANCH  15  18
HETATM   18  O   UNK N   1       5.877   2.057  -5.860  0.00  0.00    -0.391 OA
HETATM   19  H   UNK N   1       6.841   1.915  -5.671  0.00  0.00     0.210 HD
ENDBRANCH  15  18
BRANCH  16  20
HETATM   20  O   UNK N   1       6.646   3.090  -3.267  0.00  0.00    -0.390 OA
HETATM   21  H   UNK N   1       7.014   2.227  -2.944  0.00  0.00     0.210 HD
ENDBRANCH  16  20
BRANCH  17  22
HETATM   22  O   UNK N   1       4.890   1.428  -1.758  0.00  0.00    -0.388 OA
HETATM   23  H   UNK N   1       4.504   1.446  -0.843  0.00  0.00     0.210 HD
ENDBRANCH  17  22
ENDBRANCH  11  12
ENDBRANCH   3  11
BRANCH   2  24
HETATM   24  C   UNK N   1       0.894   0.394   0.157  0.00  0.00     0.001 A 
HETATM   25  C   UNK N   1       0.713  -0.952   0.508  0.00  0.00     0.017 A 
HETATM   26  C   UNK N   1       1.352  -1.482   1.630  0.00  0.00     0.037 A 
HETATM   27  C   UNK N   1       2.152  -0.661   2.438  0.00  0.00     0.065 A 
HETATM   28  C   UNK N   1       2.322   0.687   2.103  0.00  0.00     0.037 A 
HETATM   29  C   UNK N   1       1.710   1.212   0.958  0.00  0.00     0.017 A 
BRANCH  27  30
HETATM   30  O   UNK N   1       2.753  -1.158   3.537  0.00  0.00    -0.361 OA
HETATM   31  H   UNK N   1       2.654  -2.086   3.795  0.00  0.00     0.217 HD
ENDBRANCH  27  30
ENDBRANCH   2  24
BRANCH  10  32
HETATM   32  O   UNK N   1      -1.598   3.151  -5.169  0.00  0.00    -0.360 OA
HETATM   33  H   UNK N   1      -2.137   3.482  -5.901  0.00  0.00     0.217 HD
ENDBRANCH  10  32
BRANCH   8  34
HETATM   34  O   UNK N   1      -5.302   0.775  -3.349  0.00  0.00    -0.361 OA
HETATM   35  H   UNK N   1      -5.708   0.204  -2.681  0.00  0.00     0.217 HD
ENDBRANCH   8  34
TORSDOF 9
