REMARK  7 active torsions:
REMARK  status: ('A' for Active; 'I' for Inactive)
REMARK    1  A    between atoms: C_2  and  O_3 
REMARK    2  A    between atoms: C_2  and  C_5 
REMARK    3  A    between atoms: C_6  and  C_7 
REMARK    4  A    between atoms: C_8  and  C_9 
REMARK    5  A    between atoms: C_12  and  O_13 
REMARK    6  A    between atoms: C_19  and  C_20 
REMARK    7  A    between atoms: C_20  and  O_21 
ROOT
HETATM    1  C   UNK N   1       0.305  -0.946   0.549  0.00  0.00     0.041 C 
HETATM    2  C   UNK N   1       0.852  -0.007   1.627  0.00  0.00    -0.077 C 
HETATM    3  C   UNK N   1       0.414   1.260   1.768  0.00  0.00     0.008 C 
HETATM    4  C   UNK N   1      -0.677   1.839   0.911  0.00  0.00     0.145 C 
HETATM    5  C   UNK N   1      -1.596   0.744   0.323  0.00  0.00     0.024 C 
HETATM    6  C   UNK N   1      -0.743  -0.307  -0.429  0.00  0.00     0.008 C 
HETATM    7  C   UNK N   1      -1.696  -1.382  -1.064  0.00  0.00    -0.013 C 
HETATM    8  C   UNK N   1      -2.734  -0.709  -1.984  0.00  0.00     0.011 C 
HETATM    9  C   UNK N   1      -3.567   0.330  -1.213  0.00  0.00     0.010 C 
HETATM   10  C   UNK N   1      -2.635   1.392  -0.618  0.00  0.00     0.014 C 
HETATM   11  C   UNK N   1      -0.972  -2.476  -1.863  0.00  0.00     0.010 C 
HETATM   12  C   UNK N   1       1.894  -0.535   2.587  0.00  0.00     0.044 C 
ENDROOT
BRANCH   1  13
HETATM   13  C   UNK N   1       1.480  -1.537  -0.214  0.00  0.00    -0.017 C 
HETATM   14  C   UNK N   1       2.338  -0.767  -0.909  0.00  0.00    -0.003 C 
BRANCH  14  15
HETATM   15  C   UNK N   1       3.522  -1.377  -1.567  0.00  0.00     0.006 C 
HETATM   16  C   UNK N   1       4.526  -0.703  -2.173  0.00  0.00     0.081 C 
BRANCH  16  17
HETATM   17  C   UNK N   1       4.634   0.773  -2.352  0.00  0.00     0.165 C 
HETATM   18  O   UNK N   1       3.692   1.513  -2.137  0.00  0.00    -0.647 OA
BRANCH  17  19
HETATM   19  O   UNK N   1       5.802   1.308  -2.772  0.00  0.00    -0.773 OA
HETATM   20  H   UNK N   1       6.590   0.763  -2.901  0.00  0.00     0.167 HD
ENDBRANCH  17  19
ENDBRANCH  16  17
ENDBRANCH  14  15
ENDBRANCH   1  13
BRANCH   4  21
HETATM   21  O   UNK N   1      -1.424   2.768   1.657  0.00  0.00    -0.391 OA
HETATM   22  H   UNK N   1      -1.844   2.279   2.413  0.00  0.00     0.210 HD
ENDBRANCH   4  21
BRANCH   9  23
HETATM   23  C   UNK N   1      -4.615   0.987  -2.130  0.00  0.00     0.168 C 
BRANCH  23  24
HETATM   24  O   UNK N   1      -5.494   0.031  -2.659  0.00  0.00    -0.400 OA
HETATM   25  H   UNK N   1      -6.041  -0.303  -1.901  0.00  0.00     0.209 HD
ENDBRANCH  23  24
ENDBRANCH   9  23
TORSDOF 7
