REMARK  7 active torsions:
REMARK  status: ('A' for Active; 'I' for Inactive)
REMARK    1  A    between atoms: C_2  and  O_3 
REMARK    2  A    between atoms: C_2  and  C_5 
REMARK    3  A    between atoms: C_6  and  C_7 
REMARK    4  A    between atoms: C_8  and  C_9 
REMARK    5  A    between atoms: C_14  and  C_15 
REMARK    6  A    between atoms: C_15  and  O_16 
REMARK    7  A    between atoms: C_19  and  O_20 
ROOT
HETATM    1  C   UNK N   1       0.868   1.233   0.599  0.00  0.00    -0.021 A 
HETATM    2  C   UNK N   1       0.556   0.813   1.935  0.00  0.00    -0.037 A 
HETATM    3  C   UNK N   1       1.307  -0.265   2.495  0.00  0.00    -0.048 A 
HETATM    4  C   UNK N   1       2.367  -0.831   1.782  0.00  0.00     0.008 A 
HETATM    5  C   UNK N   1       2.684  -0.390   0.510  0.00  0.00     0.011 A 
HETATM    6  C   UNK N   1       1.949   0.629  -0.098  0.00  0.00    -0.024 A 
HETATM    7  C   UNK N   1       0.986  -0.863   3.845  0.00  0.00     0.076 C 
HETATM    8  C   UNK N   1      -0.451  -0.560   4.320  0.00  0.00     0.059 C 
HETATM    9  C   UNK N   1      -0.661   0.947   4.220  0.00  0.00     0.046 C 
HETATM   10  C   UNK N   1      -0.580   1.472   2.760  0.00  0.00     0.019 C 
HETATM   11  C   UNK N   1      -0.449   3.006   2.894  0.00  0.00     0.015 C 
HETATM   12  C   UNK N   1      -0.597  -1.022   5.779  0.00  0.00     0.046 C 
ENDROOT
BRANCH   1  13
HETATM   13  C   UNK N   1       0.092   2.299  -0.082  0.00  0.00     0.012 C 
HETATM   14  C   UNK N   1      -1.017   2.079  -0.816  0.00  0.00     0.001 C 
BRANCH  14  15
HETATM   15  C   UNK N   1      -1.603   0.724  -1.026  0.00  0.00     0.007 C 
HETATM   16  C   UNK N   1      -2.684   0.441  -1.795  0.00  0.00     0.081 C 
BRANCH  16  17
HETATM   17  C   UNK N   1      -3.514   1.398  -2.582  0.00  0.00     0.165 C 
HETATM   18  O   UNK N   1      -3.281   2.593  -2.598  0.00  0.00    -0.647 OA
BRANCH  17  19
HETATM   19  O   UNK N   1      -4.554   0.916  -3.298  0.00  0.00    -0.773 OA
HETATM   20  H   UNK N   1      -5.116   1.505  -3.823  0.00  0.00     0.167 HD
ENDBRANCH  17  19
ENDBRANCH  16  17
ENDBRANCH  14  15
ENDBRANCH   1  13
BRANCH   6  21
HETATM   21  C   UNK N   1       2.354   1.048  -1.500  0.00  0.00     0.203 C 
BRANCH  21  22
HETATM   22  O   UNK N   1       3.716   1.388  -1.549  0.00  0.00    -0.396 OA
HETATM   23  H   UNK N   1       3.878   2.068  -0.845  0.00  0.00     0.209 HD
ENDBRANCH  21  22
ENDBRANCH   6  21
BRANCH   8  24
HETATM   24  O   UNK N   1      -1.420  -1.249   3.559  0.00  0.00    -0.390 OA
HETATM   25  H   UNK N   1      -1.192  -1.187   2.596  0.00  0.00     0.210 HD
ENDBRANCH   8  24
TORSDOF 7
