REMARK  6 active torsions:
REMARK  status: ('A' for Active; 'I' for Inactive)
REMARK    1  A    between atoms: C_2  and  O_3 
REMARK    2  A    between atoms: C_2  and  C_5 
REMARK    3  A    between atoms: C_6  and  C_7 
REMARK    4  A    between atoms: C_8  and  C_9 
REMARK    5  A    between atoms: C_17  and  C_18 
REMARK    6  A    between atoms: C_18  and  O_20 
ROOT
HETATM    1  C   UNK N   1       0.594  -0.835  -0.124  0.00  0.00     0.020 C 
HETATM    2  C   UNK N   1       2.146  -0.973  -0.053  0.00  0.00     0.005 C 
HETATM    3  C   UNK N   1       2.701   0.211   0.813  0.00  0.00     0.014 C 
HETATM    4  C   UNK N   1       1.927   0.452   2.088  0.00  0.00    -0.025 C 
HETATM    5  C   UNK N   1       0.715  -0.066   2.318  0.00  0.00    -0.025 C 
HETATM    6  C   UNK N   1      -0.026  -0.915   1.315  0.00  0.00     0.012 C 
HETATM    7  C   UNK N   1      -0.121  -2.340   1.900  0.00  0.00     0.015 C 
HETATM    8  C   UNK N   1       4.186  -0.047   1.146  0.00  0.00     0.024 C 
HETATM    9  C   UNK N   1       5.044  -0.117  -0.130  0.00  0.00     0.084 C 
HETATM   10  C   UNK N   1       4.461  -1.173  -1.091  0.00  0.00     0.020 C 
HETATM   11  C   UNK N   1       2.955  -0.967  -1.406  0.00  0.00    -0.012 C 
HETATM   12  C   UNK N   1       2.554  -2.057  -2.415  0.00  0.00     0.010 C 
ENDROOT
BRANCH   1  13
HETATM   13  C   UNK N   1      -0.085  -1.884  -0.987  0.00  0.00    -0.021 C 
HETATM   14  C   UNK N   1      -1.235  -1.711  -1.666  0.00  0.00    -0.003 C 
BRANCH  14  15
HETATM   15  C   UNK N   1      -2.021  -0.453  -1.692  0.00  0.00     0.006 C 
HETATM   16  C   UNK N   1      -3.159  -0.395  -2.405  0.00  0.00     0.081 C 
BRANCH  16  17
HETATM   17  C   UNK N   1      -3.992   0.829  -2.475  0.00  0.00     0.165 C 
HETATM   18  O   UNK N   1      -3.663   1.841  -1.881  0.00  0.00    -0.647 OA
BRANCH  17  19
HETATM   19  O   UNK N   1      -5.129   0.828  -3.205  0.00  0.00    -0.773 OA
HETATM   20  H   UNK N   1      -5.418   0.041  -3.688  0.00  0.00     0.167 HD
ENDBRANCH  17  19
ENDBRANCH  16  17
ENDBRANCH  14  15
ENDBRANCH   1  13
BRANCH   9  21
HETATM   21  C   UNK N   1       5.223   1.256  -0.752  0.00  0.00     0.143 C 
HETATM   22  O   UNK N   1       4.872   1.481  -1.901  0.00  0.00    -0.650 OA
BRANCH  21  23
HETATM   23  O   UNK N   1       5.835   2.225  -0.037  0.00  0.00    -0.776 OA
HETATM   24  H   UNK N   1       6.017   3.096  -0.417  0.00  0.00     0.167 HD
ENDBRANCH  21  23
ENDBRANCH   9  21
TORSDOF 6
