REMARK  7 active torsions:
REMARK  status: ('A' for Active; 'I' for Inactive)
REMARK    1  A    between atoms: C_2  and  O_3 
REMARK    2  A    between atoms: C_2  and  C_21 
REMARK    3  A    between atoms: O_3  and  C_4 
REMARK    4  A    between atoms: C_6  and  O_7 
REMARK    5  A    between atoms: C_6  and  C_9 
REMARK    6  A    between atoms: C_23  and  O_24 
REMARK    7  A    between atoms: C_26  and  O_27 
ROOT
HETATM    1  C   UNK N   1       1.501   0.738  -1.835  0.00  0.00     0.144 C 
HETATM    2  C   UNK N   1       2.366  -0.203  -2.742  0.00  0.00     0.058 C 
HETATM    3  C   UNK N   1       3.861   0.257  -3.021  0.00  0.00     0.067 C 
HETATM    4  C   UNK N   1       4.679  -1.047  -2.876  0.00  0.00     0.039 C 
HETATM    5  C   UNK N   1       3.906  -1.840  -1.835  0.00  0.00     0.013 C 
HETATM    6  C   UNK N   1       2.454  -1.706  -2.320  0.00  0.00    -0.032 C 
HETATM    7  C   UNK N   1       1.408  -2.169  -1.277  0.00  0.00     0.037 C 
HETATM    8  C   UNK N   1       1.572  -1.667   0.134  0.00  0.00    -0.023 C 
HETATM    9  C   UNK N   1       1.746  -0.388   0.547  0.00  0.00    -0.085 C 
HETATM   10  C   UNK N   1       1.856   0.837  -0.342  0.00  0.00     0.066 C 
HETATM   11  C   UNK N   1       1.875  -0.129   2.028  0.00  0.00     0.043 C 
HETATM   12  C   UNK N   1       2.212  -2.603  -3.579  0.00  0.00     0.016 C 
ENDROOT
BRANCH   1  13
HETATM   13  O   UNK N   1       0.163   0.381  -1.907  0.00  0.00    -0.311 OA
BRANCH  13  14
HETATM   14  C   UNK N   1      -0.856   1.217  -2.250  0.00  0.00     0.293 C 
HETATM   15  O   UNK N   1      -0.637   2.396  -2.491  0.00  0.00    -0.259 OA
BRANCH  14  16
HETATM   16  C   UNK N   1      -2.239   0.689  -2.333  0.00  0.00     0.042 A 
HETATM   17  C   UNK N   1      -3.285   1.513  -2.779  0.00  0.00     0.057 A 
HETATM   18  C   UNK N   1      -4.597   1.007  -2.898  0.00  0.00     0.102 A 
HETATM   19  C   UNK N   1      -4.853  -0.328  -2.552  0.00  0.00     0.099 A 
HETATM   20  C   UNK N   1      -3.812  -1.145  -2.089  0.00  0.00     0.040 A 
HETATM   21  C   UNK N   1      -2.517  -0.641  -1.982  0.00  0.00     0.020 A 
BRANCH  18  22
HETATM   22  O   UNK N   1      -5.624   1.775  -3.352  0.00  0.00    -0.353 OA
HETATM   23  C   UNK N   1      -5.512   3.090  -3.757  0.00  0.00     0.210 C 
ENDBRANCH  18  22
BRANCH  19  24
HETATM   24  O   UNK N   1      -6.102  -0.823  -2.672  0.00  0.00    -0.358 OA
HETATM   25  H   UNK N   1      -6.307  -1.744  -2.459  0.00  0.00     0.218 HD
ENDBRANCH  19  24
ENDBRANCH  14  16
ENDBRANCH  13  14
ENDBRANCH   1  13
BRANCH   3  26
HETATM   26  O   UNK N   1       4.337   1.112  -2.009  0.00  0.00    -0.389 OA
HETATM   27  H   UNK N   1       3.933   2.007  -2.129  0.00  0.00     0.210 HD
ENDBRANCH   3  26
BRANCH   3  28
HETATM   28  C   UNK N   1       4.074   0.882  -4.453  0.00  0.00     0.012 C 
HETATM   29  C   UNK N   1       3.222   2.140  -4.717  0.00  0.00     0.012 C 
HETATM   30  C   UNK N   1       5.551   1.208  -4.736  0.00  0.00     0.012 C 
ENDBRANCH   3  28
TORSDOF 7
