REMARK  5 active torsions:
REMARK  status: ('A' for Active; 'I' for Inactive)
REMARK    1  A    between atoms: C_4  and  O_5 
REMARK    2  A    between atoms: C_8  and  O_9 
REMARK    3  A    between atoms: C_13  and  O_14 
REMARK    4  A    between atoms: C_19  and  O_20 
REMARK    5  A    between atoms: C_22  and  O_23 
ROOT
HETATM    1  O   UNK N   1       0.521   2.165  -4.349  0.00  0.00    -0.292 OA
HETATM    2  C   UNK N   1      -0.101   1.455  -3.575  0.00  0.00     0.167 C 
HETATM    3  C   UNK N   1      -1.591   1.340  -3.659  0.00  0.00     0.052 A 
HETATM    4  C   UNK N   1      -2.356   1.797  -4.779  0.00  0.00     0.082 A 
HETATM    5  C   UNK N   1      -3.745   1.637  -4.779  0.00  0.00     0.074 A 
HETATM    6  C   UNK N   1      -4.406   1.030  -3.715  0.00  0.00     0.071 A 
HETATM    7  C   UNK N   1      -3.665   0.582  -2.613  0.00  0.00     0.047 A 
HETATM    8  C   UNK N   1      -2.276   0.747  -2.562  0.00  0.00    -0.010 A 
HETATM    9  C   UNK N   1      -1.541   0.283  -1.309  0.00  0.00     0.157 C 
HETATM   10  C   UNK N   1      -0.126   0.892  -1.163  0.00  0.00     0.033 C 
HETATM   11  C   UNK N   1       0.647   0.721  -2.478  0.00  0.00     0.070 C 
HETATM   12  C   UNK N   1       2.092   1.249  -2.342  0.00  0.00     0.048 C 
HETATM   13  C   UNK N   1       2.828   0.591  -1.164  0.00  0.00     0.152 C 
HETATM   14  C   UNK N   1       2.055   0.794   0.171  0.00  0.00     0.080 C 
HETATM   15  C   UNK N   1       0.626   0.221   0.009  0.00  0.00     0.048 C 
HETATM   16  C   UNK N   1       2.789   0.060   1.310  0.00  0.00     0.048 C 
ENDROOT
BRANCH  14  17
HETATM   17  O   UNK N   1       1.991   2.172   0.465  0.00  0.00    -0.388 OA
HETATM   18  H   UNK N   1       1.487   2.283   1.313  0.00  0.00     0.210 HD
ENDBRANCH  14  17
BRANCH  13  19
HETATM   19  O   UNK N   1       4.143   1.085  -1.078  0.00  0.00    -0.393 OA
HETATM   20  H   UNK N   1       4.091   2.063  -0.910  0.00  0.00     0.210 HD
ENDBRANCH  13  19
BRANCH   9  21
HETATM   21  O   UNK N   1      -2.290   0.563  -0.149  0.00  0.00    -0.390 OA
HETATM   22  H   UNK N   1      -2.456   1.542  -0.125  0.00  0.00     0.210 HD
ENDBRANCH   9  21
BRANCH   4  23
HETATM   23  O   UNK N   1      -1.811   2.377  -5.876  0.00  0.00    -0.360 OA
HETATM   24  H   UNK N   1      -0.876   2.518  -6.042  0.00  0.00     0.217 HD
ENDBRANCH   4  23
BRANCH   6  25
HETATM   25  O   UNK N   1      -5.758   0.898  -3.776  0.00  0.00    -0.356 OA
HETATM   26  C   UNK N   1      -6.535   0.327  -2.788  0.00  0.00     0.210 C 
ENDBRANCH   6  25
TORSDOF 5
