REMARK  10 active torsions:
REMARK  status: ('A' for Active; 'I' for Inactive)
REMARK    1  A    between atoms: C_2  and  O_3 
REMARK    2  A    between atoms: C_2  and  C_16 
REMARK    3  A    between atoms: O_3  and  C_4 
REMARK    4  A    between atoms: C_4  and  C_5 
REMARK    5  A    between atoms: C_5  and  C_6 
REMARK    6  A    between atoms: C_8  and  O_9 
REMARK    7  A    between atoms: C_11  and  O_12 
REMARK    8  A    between atoms: C_17  and  C_18 
REMARK    9  A    between atoms: C_20  and  O_21 
REMARK   10  A    between atoms: C_23  and  O_24 
ROOT
HETATM    1  O   UNK N   1       3.648   1.717  -2.448  0.00  0.00    -0.260 OA
HETATM    2  C   UNK N   1       2.632   1.648  -1.775  0.00  0.00     0.282 C 
ENDROOT
BRANCH   2   3
HETATM    3  O   UNK N   1       2.697   1.645  -0.418  0.00  0.00    -0.318 OA
BRANCH   3   4
HETATM    4  C   UNK N   1       3.873   1.715   0.297  0.00  0.00     0.183 C 
BRANCH   4   5
HETATM    5  C   UNK N   1       3.553   1.804   1.788  0.00  0.00     0.065 C 
BRANCH   5   6
HETATM    6  C   UNK N   1       2.803   0.591   2.276  0.00  0.00    -0.053 A 
HETATM    7  C   UNK N   1       1.400   0.570   2.260  0.00  0.00     0.046 A 
HETATM    8  C   UNK N   1       0.695  -0.548   2.724  0.00  0.00     0.099 A 
HETATM    9  C   UNK N   1       1.412  -1.667   3.223  0.00  0.00     0.098 A 
HETATM   10  C   UNK N   1       2.812  -1.640   3.226  0.00  0.00     0.040 A 
HETATM   11  C   UNK N   1       3.504  -0.523   2.756  0.00  0.00     0.010 A 
BRANCH   8  12
HETATM   12  O   UNK N   1      -0.656  -0.516   2.678  0.00  0.00    -0.358 OA
HETATM   13  H   UNK N   1      -1.225  -1.246   2.948  0.00  0.00     0.218 HD
ENDBRANCH   8  12
BRANCH   9  14
HETATM   14  O   UNK N   1       0.794  -2.768   3.705  0.00  0.00    -0.358 OA
HETATM   15  H   UNK N   1      -0.163  -2.864   3.779  0.00  0.00     0.218 HD
ENDBRANCH   9  14
ENDBRANCH   5   6
ENDBRANCH   4   5
ENDBRANCH   3   4
ENDBRANCH   2   3
BRANCH   2  16
HETATM   16  C   UNK N   1       1.315   1.608  -2.441  0.00  0.00     0.083 C 
HETATM   17  C   UNK N   1       0.186   1.417  -1.734  0.00  0.00     0.017 C 
BRANCH  17  18
HETATM   18  C   UNK N   1      -1.170   1.354  -2.339  0.00  0.00    -0.033 A 
HETATM   19  C   UNK N   1      -2.213   0.805  -1.579  0.00  0.00     0.050 A 
HETATM   20  C   UNK N   1      -3.506   0.688  -2.104  0.00  0.00     0.099 A 
HETATM   21  C   UNK N   1      -3.769   1.154  -3.417  0.00  0.00     0.098 A 
HETATM   22  C   UNK N   1      -2.733   1.725  -4.163  0.00  0.00     0.040 A 
HETATM   23  C   UNK N   1      -1.443   1.821  -3.638  0.00  0.00     0.014 A 
BRANCH  20  24
HETATM   24  O   UNK N   1      -4.459   0.124  -1.329  0.00  0.00    -0.358 OA
HETATM   25  H   UNK N   1      -5.374  -0.008  -1.604  0.00  0.00     0.218 HD
ENDBRANCH  20  24
BRANCH  21  26
HETATM   26  O   UNK N   1      -4.992   1.064  -3.986  0.00  0.00    -0.358 OA
HETATM   27  H   UNK N   1      -5.758   0.660  -3.563  0.00  0.00     0.218 HD
ENDBRANCH  21  26
ENDBRANCH  17  18
ENDBRANCH   2  16
TORSDOF 10
