REMARK  8 active torsions:
REMARK  status: ('A' for Active; 'I' for Inactive)
REMARK    1  A    between atoms: C_7  and  O_8 
REMARK    2  A    between atoms: O_8  and  C_9 
REMARK    3  A    between atoms: C_11  and  C_21 
REMARK    4  A    between atoms: C_12  and  O_13 
REMARK    5  A    between atoms: C_15  and  O_16 
REMARK    6  A    between atoms: C_18  and  O_19 
REMARK    7  A    between atoms: C_21  and  O_22 
REMARK    8  A    between atoms: C_27  and  O_28 
ROOT
HETATM    1  C   UNK N   1      -1.595   0.266  -1.731  0.00  0.00     0.294 C 
HETATM    2  O   UNK N   1      -2.127  -0.444  -0.618  0.00  0.00    -0.348 OA
HETATM    3  C   UNK N   1      -3.254   0.213  -0.051  0.00  0.00     0.179 C 
HETATM    4  C   UNK N   1      -4.415   0.289  -1.070  0.00  0.00     0.180 C 
HETATM    5  C   UNK N   1      -3.927   1.040  -2.325  0.00  0.00     0.183 C 
HETATM    6  C   UNK N   1      -2.648   0.371  -2.850  0.00  0.00     0.204 C 
ENDROOT
BRANCH   1   7
HETATM    7  O   UNK N   1      -1.081   1.548  -1.375  0.00  0.00    -0.328 OA
BRANCH   7   8
HETATM    8  C   UNK N   1      -0.140   1.497  -0.305  0.00  0.00     0.280 C 
HETATM    9  C   UNK N   1       1.162   0.765  -0.707  0.00  0.00     0.116 C 
HETATM   10  C   UNK N   1       2.146   0.465   0.393  0.00  0.00    -0.068 C 
HETATM   11  C   UNK N   1       1.988   1.581  -1.755  0.00  0.00     0.153 C 
HETATM   12  C   UNK N   1       3.391   0.719   0.027  0.00  0.00     0.057 C 
HETATM   13  C   UNK N   1       1.767  -0.191   1.689  0.00  0.00     0.044 C 
HETATM   14  C   UNK N   1       3.388   1.297  -1.298  0.00  0.00     0.188 C 
HETATM   15  O   UNK N   1       4.396   1.654  -1.886  0.00  0.00    -0.290 OA
HETATM   16  C   UNK N   1       1.777   3.084  -1.639  0.00  0.00     0.044 C 
HETATM   17  C   UNK N   1       0.916   3.603  -0.747  0.00  0.00     0.137 C 
HETATM   18  O   UNK N   1       0.164   2.798   0.050  0.00  0.00    -0.332 OA
BRANCH  11  19
HETATM   19  O   UNK N   1       1.711   1.120  -3.053  0.00  0.00    -0.377 OA
HETATM   20  H   UNK N   1       2.324   1.591  -3.675  0.00  0.00     0.211 HD
ENDBRANCH  11  19
ENDBRANCH   7   8
ENDBRANCH   1   7
BRANCH   6  21
HETATM   21  O   UNK N   1      -2.137   1.035  -3.979  0.00  0.00    -0.388 OA
HETATM   22  H   UNK N   1      -1.928   1.969  -3.714  0.00  0.00     0.210 HD
ENDBRANCH   6  21
BRANCH   3  23
HETATM   23  C   UNK N   1      -3.676  -0.569   1.202  0.00  0.00     0.198 C 
BRANCH  23  24
HETATM   24  O   UNK N   1      -2.642  -0.575   2.151  0.00  0.00    -0.398 OA
HETATM   25  H   UNK N   1      -1.985  -1.260   1.859  0.00  0.00     0.209 HD
ENDBRANCH  23  24
ENDBRANCH   3  23
BRANCH   5  26
HETATM   26  O   UNK N   1      -4.921   1.069  -3.320  0.00  0.00    -0.390 OA
HETATM   27  H   UNK N   1      -5.124   0.128  -3.569  0.00  0.00     0.210 HD
ENDBRANCH   5  26
BRANCH   4  28
HETATM   28  O   UNK N   1      -5.507   0.962  -0.498  0.00  0.00    -0.390 OA
HETATM   29  H   UNK N   1      -6.275   0.844  -1.116  0.00  0.00     0.210 HD
ENDBRANCH   4  28
TORSDOF 8
