REMARK  9 active torsions:
REMARK  status: ('A' for Active; 'I' for Inactive)
REMARK    1  A    between atoms: C_2  and  O_3 
REMARK    2  A    between atoms: O_3  and  C_4 
REMARK    3  A    between atoms: C_5  and  C_13 
REMARK    4  A    between atoms: C_7  and  O_8 
REMARK    5  A    between atoms: C_16  and  O_17 
REMARK    6  A    between atoms: C_19  and  O_20 
REMARK    7  A    between atoms: C_22  and  O_23 
REMARK    8  A    between atoms: C_25  and  C_26 
REMARK    9  A    between atoms: C_26  and  O_27 
ROOT
HETATM    1  O   UNK N   1      -3.248   1.313  -0.612  0.00  0.00    -0.348 OA
HETATM    2  C   UNK N   1      -2.640   0.124  -1.092  0.00  0.00     0.298 C 
HETATM    3  C   UNK N   1      -3.704  -0.865  -1.606  0.00  0.00     0.205 C 
HETATM    4  C   UNK N   1      -4.578  -0.211  -2.688  0.00  0.00     0.183 C 
HETATM    5  C   UNK N   1      -5.141   1.121  -2.152  0.00  0.00     0.180 C 
HETATM    6  C   UNK N   1      -3.969   1.991  -1.633  0.00  0.00     0.179 C 
ENDROOT
BRANCH   2   7
HETATM    7  O   UNK N   1      -1.674   0.435  -2.050  0.00  0.00    -0.317 OA
BRANCH   7   8
HETATM    8  C   UNK N   1      -0.339   0.645  -1.826  0.00  0.00     0.079 A 
HETATM    9  C   UNK N   1       0.403   1.424  -2.750  0.00  0.00    -0.018 A 
HETATM   10  C   UNK N   1       1.764   1.691  -2.488  0.00  0.00     0.047 A 
HETATM   11  C   UNK N   1       2.392   1.181  -1.347  0.00  0.00     0.072 A 
HETATM   12  C   UNK N   1       1.671   0.387  -0.449  0.00  0.00    -0.026 A 
HETATM   13  C   UNK N   1       0.317   0.124  -0.687  0.00  0.00     0.047 A 
HETATM   14  C   UNK N   1       2.339  -0.178   0.774  0.00  0.00     0.051 C 
BRANCH   9  15
HETATM   15  C   UNK N   1      -0.246   1.995  -4.007  0.00  0.00     0.013 C 
HETATM   16  C   UNK N   1       0.472   1.496  -5.272  0.00  0.00     0.015 C 
HETATM   17  C   UNK N   1      -0.263   3.528  -3.968  0.00  0.00     0.015 C 
ENDBRANCH   9  15
BRANCH  11  18
HETATM   18  O   UNK N   1       3.695   1.452  -1.110  0.00  0.00    -0.360 OA
HETATM   19  H   UNK N   1       4.218   2.008  -1.704  0.00  0.00     0.217 HD
ENDBRANCH  11  18
ENDBRANCH   7   8
ENDBRANCH   2   7
BRANCH   3  20
HETATM   20  O   UNK N   1      -3.125  -2.064  -2.055  0.00  0.00    -0.388 OA
HETATM   21  H   UNK N   1      -2.563  -1.850  -2.845  0.00  0.00     0.210 HD
ENDBRANCH   3  20
BRANCH   6  22
HETATM   22  C   UNK N   1      -4.472   3.322  -1.051  0.00  0.00     0.198 C 
BRANCH  22  23
HETATM   23  O   UNK N   1      -5.334   3.110   0.036  0.00  0.00    -0.398 OA
HETATM   24  H   UNK N   1      -4.768   2.820   0.799  0.00  0.00     0.209 HD
ENDBRANCH  22  23
ENDBRANCH   6  22
BRANCH   4  25
HETATM   25  O   UNK N   1      -5.613  -1.077  -3.085  0.00  0.00    -0.390 OA
HETATM   26  H   UNK N   1      -6.178  -1.256  -2.287  0.00  0.00     0.210 HD
ENDBRANCH   4  25
BRANCH   5  27
HETATM   27  O   UNK N   1      -5.826   1.802  -3.171  0.00  0.00    -0.390 OA
HETATM   28  H   UNK N   1      -6.658   1.292  -3.352  0.00  0.00     0.210 HD
ENDBRANCH   5  27
TORSDOF 9
