REMARK  9 active torsions:
REMARK  status: ('A' for Active; 'I' for Inactive)
REMARK    1  A    between atoms: C_2  and  O_3 
REMARK    2  A    between atoms: O_3  and  C_4 
REMARK    3  A    between atoms: C_6  and  C_12 
REMARK    4  A    between atoms: C_7  and  O_8 
REMARK    5  A    between atoms: C_16  and  O_17 
REMARK    6  A    between atoms: C_19  and  O_20 
REMARK    7  A    between atoms: C_22  and  O_23 
REMARK    8  A    between atoms: C_25  and  C_26 
REMARK    9  A    between atoms: C_26  and  O_27 
ROOT
HETATM    1  O   UNK N   1      -2.075   3.108  -3.463  0.00  0.00    -0.348 OA
HETATM    2  C   UNK N   1      -2.117   1.757  -2.991  0.00  0.00     0.298 C 
HETATM    3  C   UNK N   1      -3.519   1.102  -2.858  0.00  0.00     0.205 C 
HETATM    4  C   UNK N   1      -4.350   1.574  -4.038  0.00  0.00     0.183 C 
HETATM    5  C   UNK N   1      -4.516   3.108  -3.952  0.00  0.00     0.180 C 
HETATM    6  C   UNK N   1      -3.285   3.826  -3.299  0.00  0.00     0.179 C 
ENDROOT
BRANCH   2   7
HETATM    7  O   UNK N   1      -1.461   1.620  -1.782  0.00  0.00    -0.317 OA
BRANCH   7   8
HETATM    8  C   UNK N   1      -0.116   1.559  -1.588  0.00  0.00     0.078 A 
HETATM    9  C   UNK N   1       0.370   1.019  -0.375  0.00  0.00    -0.019 A 
HETATM   10  C   UNK N   1       1.782   0.862  -0.173  0.00  0.00    -0.013 A 
HETATM   11  C   UNK N   1      -0.631   0.594   0.683  0.00  0.00     0.052 C 
HETATM   12  C   UNK N   1       2.666   1.304  -1.211  0.00  0.00     0.073 A 
HETATM   13  C   UNK N   1       2.147   1.862  -2.379  0.00  0.00     0.040 A 
HETATM   14  C   UNK N   1       0.780   1.982  -2.575  0.00  0.00     0.040 A 
BRANCH  10  15
HETATM   15  C   UNK N   1       2.299   0.206   1.126  0.00  0.00     0.014 C 
HETATM   16  C   UNK N   1       2.992  -1.141   0.853  0.00  0.00     0.015 C 
HETATM   17  C   UNK N   1       3.136   1.160   1.992  0.00  0.00     0.015 C 
ENDBRANCH  10  15
BRANCH  12  18
HETATM   18  O   UNK N   1       4.013   1.208  -1.138  0.00  0.00    -0.360 OA
HETATM   19  H   UNK N   1       4.513   0.836  -0.409  0.00  0.00     0.217 HD
ENDBRANCH  12  18
ENDBRANCH   7   8
ENDBRANCH   2   7
BRANCH   3  20
HETATM   20  O   UNK N   1      -3.356  -0.295  -2.858  0.00  0.00    -0.388 OA
HETATM   21  H   UNK N   1      -4.245  -0.700  -2.684  0.00  0.00     0.210 HD
ENDBRANCH   3  20
BRANCH   6  22
HETATM   22  C   UNK N   1      -3.466   4.229  -1.819  0.00  0.00     0.198 C 
BRANCH  22  23
HETATM   23  O   UNK N   1      -4.582   5.065  -1.684  0.00  0.00    -0.398 OA
HETATM   24  H   UNK N   1      -4.640   5.297  -0.721  0.00  0.00     0.209 HD
ENDBRANCH  22  23
ENDBRANCH   6  22
BRANCH   4  25
HETATM   25  O   UNK N   1      -5.605   0.942  -4.048  0.00  0.00    -0.390 OA
HETATM   26  H   UNK N   1      -6.068   1.228  -4.877  0.00  0.00     0.210 HD
ENDBRANCH   4  25
BRANCH   5  27
HETATM   27  O   UNK N   1      -4.731   3.577  -5.259  0.00  0.00    -0.390 OA
HETATM   28  H   UNK N   1      -5.146   4.476  -5.180  0.00  0.00     0.210 HD
ENDBRANCH   5  27
TORSDOF 9
