REMARK  9 active torsions:
REMARK  status: ('A' for Active; 'I' for Inactive)
REMARK    1  A    between atoms: C_2  and  O_3 
REMARK    2  A    between atoms: O_3  and  C_4 
REMARK    3  A    between atoms: C_5  and  C_13 
REMARK    4  A    between atoms: C_7  and  O_8 
REMARK    5  A    between atoms: C_16  and  O_17 
REMARK    6  A    between atoms: C_19  and  O_20 
REMARK    7  A    between atoms: C_22  and  O_23 
REMARK    8  A    between atoms: C_25  and  C_26 
REMARK    9  A    between atoms: C_26  and  O_27 
ROOT
HETATM    1  O   UNK N   1      -3.026   0.818  -3.294  0.00  0.00    -0.348 OA
HETATM    2  C   UNK N   1      -1.704   0.302  -3.236  0.00  0.00     0.298 C 
HETATM    3  C   UNK N   1      -1.732  -1.229  -3.447  0.00  0.00     0.205 C 
HETATM    4  C   UNK N   1      -2.370  -1.544  -4.804  0.00  0.00     0.183 C 
HETATM    5  C   UNK N   1      -3.742  -0.852  -4.923  0.00  0.00     0.180 C 
HETATM    6  C   UNK N   1      -3.564   0.652  -4.603  0.00  0.00     0.179 C 
ENDROOT
BRANCH   2   7
HETATM    7  O   UNK N   1      -1.164   0.573  -1.980  0.00  0.00    -0.317 OA
BRANCH   7   8
HETATM    8  C   UNK N   1       0.161   0.758  -1.695  0.00  0.00     0.079 A 
HETATM    9  C   UNK N   1       0.669   0.379  -0.415  0.00  0.00    -0.013 A 
HETATM   10  C   UNK N   1       2.072   0.533  -0.158  0.00  0.00    -0.020 A 
HETATM   11  C   UNK N   1       2.914   1.071  -1.155  0.00  0.00     0.072 A 
HETATM   12  C   UNK N   1       2.681   0.120   1.165  0.00  0.00     0.052 C 
HETATM   13  C   UNK N   1       2.388   1.459  -2.383  0.00  0.00     0.040 A 
HETATM   14  C   UNK N   1       1.038   1.306  -2.654  0.00  0.00     0.040 A 
BRANCH   9  15
HETATM   15  C   UNK N   1      -0.262  -0.198   0.672  0.00  0.00     0.014 C 
HETATM   16  C   UNK N   1      -0.939  -1.506   0.249  0.00  0.00     0.015 C 
HETATM   17  C   UNK N   1      -1.302   0.834   1.127  0.00  0.00     0.015 C 
ENDBRANCH   9  15
BRANCH  11  18
HETATM   18  O   UNK N   1       4.239   1.215  -0.928  0.00  0.00    -0.360 OA
HETATM   19  H   UNK N   1       4.838   1.571  -1.600  0.00  0.00     0.217 HD
ENDBRANCH  11  18
ENDBRANCH   7   8
ENDBRANCH   2   7
BRANCH   3  20
HETATM   20  O   UNK N   1      -0.431  -1.759  -3.427  0.00  0.00    -0.388 OA
HETATM   21  H   UNK N   1      -0.175  -1.875  -2.477  0.00  0.00     0.210 HD
ENDBRANCH   3  20
BRANCH   6  22
HETATM   22  C   UNK N   1      -4.895   1.413  -4.699  0.00  0.00     0.198 C 
BRANCH  22  23
HETATM   23  O   UNK N   1      -5.849   0.893  -3.812  0.00  0.00    -0.398 OA
HETATM   24  H   UNK N   1      -5.587   1.193  -2.903  0.00  0.00     0.209 HD
ENDBRANCH  22  23
ENDBRANCH   6  22
BRANCH   4  25
HETATM   25  O   UNK N   1      -2.479  -2.934  -4.994  0.00  0.00    -0.390 OA
HETATM   26  H   UNK N   1      -3.074  -3.289  -4.281  0.00  0.00     0.210 HD
ENDBRANCH   4  25
BRANCH   5  27
HETATM   27  O   UNK N   1      -4.248  -1.008  -6.224  0.00  0.00    -0.390 OA
HETATM   28  H   UNK N   1      -4.476  -1.968  -6.334  0.00  0.00     0.210 HD
ENDBRANCH   5  27
TORSDOF 9
