REMARK  4 active torsions:
REMARK  status: ('A' for Active; 'I' for Inactive)
REMARK    1  A    between atoms: C_7  and  O_8 
REMARK    2  A    between atoms: C_10  and  O_12 
REMARK    3  A    between atoms: C_15  and  O_16 
REMARK    4  A    between atoms: O_16  and  C_17 
ROOT
HETATM    1  O   UNK N   1      -0.857  -2.110   0.856  0.00  0.00    -0.257 OA
HETATM    2  C   UNK N   1      -1.669  -1.308   0.429  0.00  0.00     0.322 A 
HETATM    3  O   UNK N   1      -2.543  -1.695  -0.498  0.00  0.00    -0.272 OA
HETATM    4  C   UNK N   1      -3.461  -0.872  -0.999  0.00  0.00     0.092 A 
HETATM    5  C   UNK N   1      -3.544   0.459  -0.545  0.00  0.00     0.004 A 
HETATM    6  C   UNK N   1      -4.500   1.325  -1.082  0.00  0.00     0.054 A 
HETATM    7  C   UNK N   1      -5.388   0.874  -2.081  0.00  0.00     0.102 A 
HETATM    8  C   UNK N   1      -5.303  -0.463  -2.527  0.00  0.00     0.101 A 
HETATM    9  C   UNK N   1      -4.344  -1.326  -1.982  0.00  0.00     0.077 A 
HETATM   10  C   UNK N   1      -2.653   0.893   0.437  0.00  0.00     0.058 A 
HETATM   11  C   UNK N   1      -1.695   0.011   0.927  0.00  0.00     0.152 A 
ENDROOT
BRANCH  11  12
HETATM   12  O   UNK N   1      -0.823   0.426   1.878  0.00  0.00    -0.304 OA
BRANCH  12  13
HETATM   13  C   UNK N   1       0.521   0.306   1.756  0.00  0.00     0.079 A 
HETATM   14  C   UNK N   1       1.172   0.641   0.552  0.00  0.00     0.075 A 
HETATM   15  C   UNK N   1       2.563   0.524   0.450  0.00  0.00     0.092 A 
HETATM   16  O   UNK N   1       3.180   0.859  -0.682  0.00  0.00    -0.275 OA
HETATM   17  C   UNK N   1       3.307   0.052   1.552  0.00  0.00    -0.002 A 
HETATM   18  C   UNK N   1       4.501   0.761  -0.829  0.00  0.00     0.288 A 
HETATM   19  O   UNK N   1       5.017   1.086  -1.883  0.00  0.00    -0.260 OA
HETATM   20  C   UNK N   1       5.298   0.287   0.220  0.00  0.00     0.083 A 
HETATM   21  C   UNK N   1       4.692  -0.070   1.423  0.00  0.00     0.020 A 
HETATM   22  C   UNK N   1       2.656  -0.280   2.748  0.00  0.00     0.017 A 
HETATM   23  C   UNK N   1       1.269  -0.141   2.850  0.00  0.00     0.038 A 
ENDBRANCH  12  13
ENDBRANCH  11  12
BRANCH   7  24
HETATM   24  O   UNK N   1      -6.322   1.699  -2.627  0.00  0.00    -0.353 OA
HETATM   25  C   UNK N   1      -6.502   3.024  -2.283  0.00  0.00     0.210 C 
ENDBRANCH   7  24
BRANCH   8  26
HETATM   26  O   UNK N   1      -6.135  -0.930  -3.483  0.00  0.00    -0.358 OA
HETATM   27  H   UNK N   1      -6.809  -0.376  -3.901  0.00  0.00     0.218 HD
ENDBRANCH   8  26
TORSDOF 4
