REMARK  2 active torsions:
REMARK  status: ('A' for Active; 'I' for Inactive)
REMARK    1  A    between atoms: C_8  and  C_14 
REMARK    2  A    between atoms: C_9  and  O_10 
ROOT
HETATM    1  O   UNK N   1      -5.421   0.940  -3.695  0.00  0.00    -0.297 OA
HETATM    2  C   UNK N   1      -4.447   1.342  -3.075  0.00  0.00     0.135 C 
HETATM    3  C   UNK N   1      -4.193   0.891  -1.645  0.00  0.00     0.018 C 
HETATM    4  C   UNK N   1      -2.666   0.448  -1.437  0.00  0.00     0.013 C 
HETATM    5  C   UNK N   1      -1.665   0.970  -2.550  0.00  0.00    -0.011 C 
HETATM    6  C   UNK N   1      -0.186   1.034  -2.087  0.00  0.00    -0.042 A 
HETATM    7  C   UNK N   1       0.234   0.660  -0.777  0.00  0.00    -0.042 A 
HETATM    8  C   UNK N   1       1.634   0.633  -0.454  0.00  0.00    -0.015 A 
HETATM    9  C   UNK N   1       2.568   1.049  -1.437  0.00  0.00     0.072 A 
HETATM   10  C   UNK N   1       2.134   1.451  -2.696  0.00  0.00     0.037 A 
HETATM   11  C   UNK N   1       0.789   1.433  -3.022  0.00  0.00     0.011 A 
HETATM   12  C   UNK N   1      -0.797   0.267   0.257  0.00  0.00     0.040 C 
HETATM   13  C   UNK N   1      -2.173   0.832  -0.039  0.00  0.00     0.011 C 
HETATM   14  C   UNK N   1      -2.136   2.381  -3.018  0.00  0.00     0.022 C 
HETATM   15  C   UNK N   1      -3.492   2.296  -3.749  0.00  0.00     0.080 C 
HETATM   16  C   UNK N   1      -1.701  -0.060  -3.728  0.00  0.00     0.021 C 
HETATM   17  C   UNK N   1      -4.633   2.105  -0.773  0.00  0.00     0.023 C 
HETATM   18  C   UNK N   1      -5.113  -0.292  -1.262  0.00  0.00     0.023 C 
ENDROOT
BRANCH   8  19
HETATM   19  C   UNK N   1       2.136   0.158   0.923  0.00  0.00     0.014 C 
HETATM   20  C   UNK N   1       2.878   1.268   1.683  0.00  0.00     0.015 C 
HETATM   21  C   UNK N   1       2.993  -1.109   0.795  0.00  0.00     0.015 C 
ENDBRANCH   8  19
BRANCH   9  22
HETATM   22  O   UNK N   1       3.892   1.062  -1.168  0.00  0.00    -0.360 OA
HETATM   23  H   UNK N   1       4.546   1.358  -1.817  0.00  0.00     0.217 HD
ENDBRANCH   9  22
TORSDOF 2
