REMARK  9 active torsions:
REMARK  status: ('A' for Active; 'I' for Inactive)
REMARK    1  A    between atoms: C_5  and  C_20 
REMARK    2  A    between atoms: C_6  and  O_7 
REMARK    3  A    between atoms: C_6  and  C_9 
REMARK    4  A    between atoms: C_9  and  C_10 
REMARK    5  A    between atoms: C_12  and  O_13 
REMARK    6  A    between atoms: C_15  and  O_16 
REMARK    7  A    between atoms: C_20  and  C_21 
REMARK    8  A    between atoms: C_23  and  O_24 
REMARK    9  A    between atoms: C_26  and  O_27 
ROOT
HETATM    1  O   UNK N   1       4.847  -1.133  -1.128  0.00  0.00    -0.262 OA
HETATM    2  C   UNK N   1       3.780  -0.728  -1.562  0.00  0.00     0.294 C 
HETATM    3  O   UNK N   1       3.045  -1.442  -2.429  0.00  0.00    -0.319 OA
HETATM    4  C   UNK N   1       2.057  -0.673  -3.003  0.00  0.00     0.187 C 
HETATM    5  C   UNK N   1       1.867   0.460  -1.986  0.00  0.00     0.059 C 
HETATM    6  C   UNK N   1       3.283   0.668  -1.380  0.00  0.00     0.155 C 
ENDROOT
BRANCH   6   7
HETATM    7  O   UNK N   1       4.037   1.534  -2.194  0.00  0.00    -0.379 OA
HETATM    8  H   UNK N   1       4.960   1.565  -1.827  0.00  0.00     0.211 HD
ENDBRANCH   6   7
BRANCH   6   9
HETATM    9  C   UNK N   1       3.243   1.199   0.087  0.00  0.00     0.087 C 
BRANCH   9  10
HETATM   10  C   UNK N   1       2.440   0.337   1.040  0.00  0.00    -0.052 A 
HETATM   11  C   UNK N   1       3.004  -0.816   1.611  0.00  0.00     0.047 A 
HETATM   12  C   UNK N   1       2.247  -1.626   2.486  0.00  0.00     0.101 A 
HETATM   13  C   UNK N   1       0.912  -1.273   2.770  0.00  0.00     0.099 A 
HETATM   14  C   UNK N   1       0.359  -0.121   2.201  0.00  0.00     0.040 A 
HETATM   15  C   UNK N   1       1.118   0.684   1.354  0.00  0.00     0.010 A 
BRANCH  12  16
HETATM   16  O   UNK N   1       2.770  -2.741   3.067  0.00  0.00    -0.353 OA
HETATM   17  C   UNK N   1       4.067  -3.188   2.915  0.00  0.00     0.210 C 
ENDBRANCH  12  16
BRANCH  13  18
HETATM   18  O   UNK N   1       0.149  -2.028   3.587  0.00  0.00    -0.358 OA
HETATM   19  H   UNK N   1       0.478  -2.837   4.004  0.00  0.00     0.218 HD
ENDBRANCH  13  18
ENDBRANCH   9  10
ENDBRANCH   6   9
BRANCH   5  20
HETATM   20  C   UNK N   1       1.148   1.729  -2.480  0.00  0.00     0.049 C 
BRANCH  20  21
HETATM   21  C   UNK N   1      -0.315   1.475  -2.753  0.00  0.00    -0.055 A 
HETATM   22  C   UNK N   1      -1.263   1.809  -1.776  0.00  0.00     0.046 A 
HETATM   23  C   UNK N   1      -2.624   1.570  -1.990  0.00  0.00     0.102 A 
HETATM   24  C   UNK N   1      -3.061   1.017  -3.203  0.00  0.00     0.101 A 
HETATM   25  C   UNK N   1      -2.109   0.685  -4.191  0.00  0.00     0.040 A 
HETATM   26  C   UNK N   1      -0.744   0.905  -3.962  0.00  0.00     0.010 A 
BRANCH  23  27
HETATM   27  O   UNK N   1      -3.512   1.872  -1.021  0.00  0.00    -0.353 OA
HETATM   28  C   UNK N   1      -3.833   0.957  -0.041  0.00  0.00     0.210 C 
ENDBRANCH  23  27
BRANCH  24  29
HETATM   29  O   UNK N   1      -4.396   0.820  -3.382  0.00  0.00    -0.353 OA
HETATM   30  C   UNK N   1      -4.980   0.310  -4.523  0.00  0.00     0.210 C 
ENDBRANCH  24  29
ENDBRANCH  20  21
ENDBRANCH   5  20
TORSDOF 9
