REMARK  15 active torsions:
REMARK  status: ('A' for Active; 'I' for Inactive)
REMARK    1  A    between atoms: C_5  and  C_34 
REMARK    2  A    between atoms: C_6  and  O_7 
REMARK    3  A    between atoms: C_6  and  C_9 
REMARK    4  A    between atoms: C_9  and  C_10 
REMARK    5  A    between atoms: C_12  and  O_13 
REMARK    6  A    between atoms: C_15  and  O_16 
REMARK    7  A    between atoms: O_16  and  C_17 
REMARK    8  A    between atoms: C_19  and  C_29 
REMARK    9  A    between atoms: C_20  and  O_21 
REMARK   10  A    between atoms: C_23  and  O_24 
REMARK   11  A    between atoms: C_26  and  O_27 
REMARK   12  A    between atoms: C_29  and  O_30 
REMARK   13  A    between atoms: C_34  and  C_35 
REMARK   14  A    between atoms: C_37  and  O_38 
REMARK   15  A    between atoms: C_40  and  O_41 
ROOT
HETATM    1  C   UNK N   1       0.622  -0.128   1.986  0.00  0.00    -0.052 A 
HETATM    2  C   UNK N   1       1.650  -1.071   1.817  0.00  0.00     0.047 A 
HETATM    3  C   UNK N   1       2.598  -0.915   0.783  0.00  0.00     0.102 A 
HETATM    4  C   UNK N   1       2.497   0.182  -0.091  0.00  0.00     0.105 A 
HETATM    5  C   UNK N   1       1.442   1.105   0.073  0.00  0.00     0.040 A 
HETATM    6  C   UNK N   1       0.527   0.955   1.107  0.00  0.00     0.010 A 
ENDROOT
BRANCH   1   7
HETATM    7  C   UNK N   1      -0.339  -0.241   3.138  0.00  0.00     0.087 C 
BRANCH   7   8
HETATM    8  C   UNK N   1      -1.500  -1.235   2.906  0.00  0.00     0.155 C 
HETATM    9  C   UNK N   1      -2.453  -1.242   4.058  0.00  0.00     0.294 C 
HETATM   10  O   UNK N   1      -2.120  -1.441   5.216  0.00  0.00    -0.262 OA
HETATM   11  O   UNK N   1      -3.737  -1.154   3.693  0.00  0.00    -0.319 OA
HETATM   12  C   UNK N   1      -3.869  -1.215   2.329  0.00  0.00     0.187 C 
HETATM   13  C   UNK N   1      -2.494  -0.754   1.806  0.00  0.00     0.059 C 
BRANCH  13  14
HETATM   14  C   UNK N   1      -2.199  -1.206   0.362  0.00  0.00     0.049 C 
BRANCH  14  15
HETATM   15  C   UNK N   1      -3.219  -0.674  -0.618  0.00  0.00    -0.055 A 
HETATM   16  C   UNK N   1      -3.086   0.617  -1.159  0.00  0.00     0.046 A 
HETATM   17  C   UNK N   1      -4.034   1.100  -2.091  0.00  0.00     0.102 A 
HETATM   18  C   UNK N   1      -5.115   0.286  -2.456  0.00  0.00     0.101 A 
HETATM   19  C   UNK N   1      -5.249  -0.997  -1.910  0.00  0.00     0.040 A 
HETATM   20  C   UNK N   1      -4.304  -1.476  -1.002  0.00  0.00     0.010 A 
BRANCH  17  21
HETATM   21  O   UNK N   1      -3.930   2.327  -2.669  0.00  0.00    -0.353 OA
HETATM   22  C   UNK N   1      -2.886   3.209  -2.496  0.00  0.00     0.210 C 
ENDBRANCH  17  21
BRANCH  18  23
HETATM   23  O   UNK N   1      -6.025   0.745  -3.343  0.00  0.00    -0.353 OA
HETATM   24  C   UNK N   1      -6.024   0.330  -4.657  0.00  0.00     0.210 C 
ENDBRANCH  18  23
ENDBRANCH  14  15
ENDBRANCH  13  14
BRANCH   8  25
HETATM   25  O   UNK N   1      -1.044  -2.544   2.661  0.00  0.00    -0.379 OA
HETATM   26  H   UNK N   1      -0.524  -2.836   3.455  0.00  0.00     0.211 HD
ENDBRANCH   8  25
ENDBRANCH   7   8
ENDBRANCH   1   7
BRANCH   3  27
HETATM   27  O   UNK N   1       3.641  -1.777   0.623  0.00  0.00    -0.353 OA
HETATM   28  C   UNK N   1       3.954  -2.819   1.473  0.00  0.00     0.210 C 
ENDBRANCH   3  27
BRANCH   4  29
HETATM   29  O   UNK N   1       3.455   0.352  -1.041  0.00  0.00    -0.315 OA
BRANCH  29  30
HETATM   30  C   UNK N   1       3.640   1.518  -1.764  0.00  0.00     0.298 C 
HETATM   31  O   UNK N   1       2.642   1.630  -2.769  0.00  0.00    -0.348 OA
HETATM   32  C   UNK N   1       2.707   2.912  -3.380  0.00  0.00     0.179 C 
HETATM   33  C   UNK N   1       4.059   3.096  -4.119  0.00  0.00     0.180 C 
HETATM   34  C   UNK N   1       5.213   2.870  -3.122  0.00  0.00     0.183 C 
HETATM   35  C   UNK N   1       5.036   1.519  -2.407  0.00  0.00     0.205 C 
BRANCH  32  36
HETATM   36  C   UNK N   1       1.516   3.069  -4.340  0.00  0.00     0.198 C 
BRANCH  36  37
HETATM   37  O   UNK N   1       1.580   2.144  -5.393  0.00  0.00    -0.398 OA
HETATM   38  H   UNK N   1       1.279   1.272  -5.030  0.00  0.00     0.209 HD
ENDBRANCH  36  37
ENDBRANCH  32  36
BRANCH  33  39
HETATM   39  O   UNK N   1       4.130   4.391  -4.659  0.00  0.00    -0.390 OA
HETATM   40  H   UNK N   1       4.890   4.397  -5.297  0.00  0.00     0.210 HD
ENDBRANCH  33  39
BRANCH  34  41
HETATM   41  O   UNK N   1       6.465   2.953  -3.753  0.00  0.00    -0.390 OA
HETATM   42  H   UNK N   1       6.503   2.236  -4.439  0.00  0.00     0.210 HD
ENDBRANCH  34  41
BRANCH  35  43
HETATM   43  O   UNK N   1       6.031   1.385  -1.424  0.00  0.00    -0.388 OA
HETATM   44  H   UNK N   1       6.028   0.435  -1.138  0.00  0.00     0.210 HD
ENDBRANCH  35  43
ENDBRANCH  29  30
ENDBRANCH   4  29
TORSDOF 15
