REMARK  8 active torsions:
REMARK  status: ('A' for Active; 'I' for Inactive)
REMARK       I    between atoms: C_2  and  N_3 
REMARK    1  A    between atoms: C_2  and  C_15 
REMARK    2  A    between atoms: N_3  and  C_4 
REMARK    3  A    between atoms: C_4  and  C_5 
REMARK    4  A    between atoms: C_5  and  C_6 
REMARK    5  A    between atoms: C_9  and  O_10 
REMARK    6  A    between atoms: C_16  and  C_17 
REMARK    7  A    between atoms: C_19  and  O_20 
REMARK    8  A    between atoms: C_22  and  O_23 
ROOT
HETATM    1  O   UNK N   1       3.335   1.888  -2.254  0.00  0.00    -0.269 OA
HETATM    2  C   UNK N   1       2.203   1.960  -1.800  0.00  0.00     0.241 C 
HETATM    3  N   UNK N   1       1.215   2.598  -2.487  0.00  0.00    -0.357 N 
HETATM    4  H   UNK N   1       0.262   2.603  -2.096  0.00  0.00     0.162 HD
ENDROOT
BRANCH   2   5
HETATM    5  C   UNK N   1       1.869   1.317  -0.506  0.00  0.00     0.075 C 
HETATM    6  C   UNK N   1       2.778   0.649   0.231  0.00  0.00     0.017 C 
BRANCH   6   7
HETATM    7  C   UNK N   1       2.465   0.024   1.552  0.00  0.00    -0.033 A 
HETATM    8  C   UNK N   1       1.149  -0.089   2.054  0.00  0.00     0.051 A 
HETATM    9  C   UNK N   1       0.915  -0.645   3.319  0.00  0.00     0.102 A 
HETATM   10  C   UNK N   1       1.988  -1.087   4.099  0.00  0.00     0.099 A 
HETATM   11  C   UNK N   1       3.294  -0.998   3.600  0.00  0.00     0.040 A 
HETATM   12  C   UNK N   1       3.530  -0.453   2.335  0.00  0.00     0.014 A 
BRANCH   9  13
HETATM   13  O   UNK N   1      -0.346  -0.746   3.794  0.00  0.00    -0.353 OA
HETATM   14  C   UNK N   1      -1.197  -1.742   3.368  0.00  0.00     0.210 C 
ENDBRANCH   9  13
BRANCH  10  15
HETATM   15  O   UNK N   1       1.754  -1.601   5.325  0.00  0.00    -0.358 OA
HETATM   16  H   UNK N   1       2.473  -1.905   5.896  0.00  0.00     0.218 HD
ENDBRANCH  10  15
ENDBRANCH   6   7
ENDBRANCH   2   5
BRANCH   3  17
HETATM   17  C   UNK N   1       1.413   3.197  -3.796  0.00  0.00     0.127 C 
BRANCH  17  18
HETATM   18  C   UNK N   1       0.801   2.284  -4.864  0.00  0.00     0.058 C 
BRANCH  18  19
HETATM   19  C   UNK N   1      -0.654   1.982  -4.605  0.00  0.00    -0.057 A 
HETATM   20  C   UNK N   1      -1.656   2.859  -5.046  0.00  0.00     0.010 A 
HETATM   21  C   UNK N   1      -3.003   2.563  -4.806  0.00  0.00     0.037 A 
HETATM   22  C   UNK N   1      -3.357   1.398  -4.113  0.00  0.00     0.065 A 
HETATM   23  C   UNK N   1      -2.357   0.525  -3.663  0.00  0.00     0.037 A 
HETATM   24  C   UNK N   1      -1.013   0.812  -3.914  0.00  0.00     0.010 A 
BRANCH  22  25
HETATM   25  O   UNK N   1      -4.658   1.126  -3.885  0.00  0.00    -0.361 OA
HETATM   26  H   UNK N   1      -4.934   0.330  -3.409  0.00  0.00     0.217 HD
ENDBRANCH  22  25
ENDBRANCH  18  19
ENDBRANCH  17  18
ENDBRANCH   3  17
TORSDOF 8
