REMARK  10 active torsions:
REMARK  status: ('A' for Active; 'I' for Inactive)
REMARK    1  A    between atoms: O_1  and  C_2 
REMARK    2  A    between atoms: C_10  and  C_15 
REMARK    3  A    between atoms: C_11  and  O_12 
REMARK    4  A    between atoms: C_15  and  C_16 
REMARK    5  A    between atoms: C_16  and  O_17 
REMARK    6  A    between atoms: C_16  and  C_19 
REMARK    7  A    between atoms: C_19  and  C_20 
REMARK    8  A    between atoms: C_20  and  C_21 
REMARK    9  A    between atoms: C_21  and  C_22 
REMARK   10  A    between atoms: C_22  and  O_23 
ROOT
HETATM    1  C   UNK N   1      -4.914   0.508  -3.139  0.00  0.00     0.118 C 
HETATM    2  C   UNK N   1      -4.798   1.180  -1.753  0.00  0.00     0.037 C 
HETATM    3  C   UNK N   1      -3.389   0.998  -1.134  0.00  0.00    -0.004 C 
HETATM    4  C   UNK N   1      -2.274   1.557  -2.093  0.00  0.00    -0.036 C 
HETATM    5  C   UNK N   1      -0.854   1.254  -1.467  0.00  0.00    -0.002 C 
HETATM    6  C   UNK N   1      -0.664  -0.250  -1.101  0.00  0.00    -0.005 C 
HETATM    7  C   UNK N   1       0.814  -0.517  -0.636  0.00  0.00     0.001 C 
HETATM    8  C   UNK N   1       1.474   0.541   0.338  0.00  0.00    -0.034 C 
HETATM    9  C   UNK N   1       2.656   1.161  -0.512  0.00  0.00     0.029 C 
HETATM   10  C   UNK N   1       3.088  -0.044  -1.396  0.00  0.00     0.124 C 
HETATM   11  C   UNK N   1       1.747  -0.556  -1.870  0.00  0.00     0.038 C 
HETATM   12  C   UNK N   1       0.398   1.552   0.829  0.00  0.00     0.010 C 
HETATM   13  C   UNK N   1      -0.485   2.181  -0.261  0.00  0.00     0.006 C 
HETATM   14  C   UNK N   1       2.009  -0.203   1.603  0.00  0.00     0.016 C 
HETATM   15  C   UNK N   1      -1.773  -0.710  -0.122  0.00  0.00     0.006 C 
HETATM   16  C   UNK N   1      -3.147  -0.499  -0.770  0.00  0.00     0.006 C 
HETATM   17  C   UNK N   1      -2.426   0.871  -3.496  0.00  0.00     0.012 C 
HETATM   18  C   UNK N   1      -3.839   1.054  -4.093  0.00  0.00     0.032 C 
HETATM   19  C   UNK N   1      -2.405   3.102  -2.299  0.00  0.00     0.016 C 
ENDROOT
BRANCH   9  20
HETATM   20  C   UNK N   1       3.844   1.914   0.221  0.00  0.00     0.017 C 
HETATM   21  C   UNK N   1       3.310   3.016   1.164  0.00  0.00     0.013 C 
BRANCH  20  22
HETATM   22  C   UNK N   1       4.864   2.543  -0.801  0.00  0.00     0.122 C 
BRANCH  22  23
HETATM   23  O   UNK N   1       5.463   1.530  -1.566  0.00  0.00    -0.395 OA
HETATM   24  H   UNK N   1       5.488   1.843  -2.509  0.00  0.00     0.210 HD
ENDBRANCH  22  23
BRANCH  22  25
HETATM   25  C   UNK N   1       6.000   3.343  -0.117  0.00  0.00     0.032 C 
BRANCH  25  26
HETATM   26  C   UNK N   1       6.994   3.958  -1.114  0.00  0.00     0.009 C 
BRANCH  26  27
HETATM   27  C   UNK N   1       8.154   4.719  -0.417  0.00  0.00     0.005 C 
HETATM   28  C   UNK N   1       7.661   5.870   0.479  0.00  0.00     0.012 C 
BRANCH  27  29
HETATM   29  C   UNK N   1       9.125   5.283  -1.473  0.00  0.00     0.168 C 
BRANCH  29  30
HETATM   30  O   UNK N   1       9.645   4.265  -2.284  0.00  0.00    -0.400 OA
HETATM   31  H   UNK N   1      10.257   3.732  -1.713  0.00  0.00     0.209 HD
ENDBRANCH  29  30
ENDBRANCH  27  29
ENDBRANCH  26  27
ENDBRANCH  25  26
ENDBRANCH  22  25
ENDBRANCH  20  22
ENDBRANCH   9  20
BRANCH  10  32
HETATM   32  O   UNK N   1       3.747  -1.048  -0.674  0.00  0.00    -0.395 OA
HETATM   33  H   UNK N   1       4.706  -0.797  -0.632  0.00  0.00     0.210 HD
ENDBRANCH  10  32
BRANCH   1  34
HETATM   34  O   UNK N   1      -6.184   0.752  -3.686  0.00  0.00    -0.396 OA
HETATM   35  H   UNK N   1      -6.834   0.248  -3.129  0.00  0.00     0.210 HD
ENDBRANCH   1  34
TORSDOF 10
