REMARK  11 active torsions:
REMARK  status: ('A' for Active; 'I' for Inactive)
REMARK    1  A    between atoms: C_9  and  C_10 
REMARK    2  A    between atoms: C_10  and  C_11 
REMARK    3  A    between atoms: C_11  and  C_12 
REMARK    4  A    between atoms: C_12  and  C_13 
REMARK    5  A    between atoms: C_14  and  C_15 
REMARK    6  A    between atoms: C_15  and  C_17 
REMARK    7  A    between atoms: C_17  and  C_18 
REMARK    8  A    between atoms: C_19  and  C_20 
REMARK    9  A    between atoms: C_20  and  C_21 
REMARK   10  A    between atoms: C_22  and  O_23 
REMARK   11  A    between atoms: C_27  and  O_29 
ROOT
HETATM    1  C   UNK N   1       0.549   2.123   1.423  0.00  0.00     0.153 C 
HETATM    2  O   UNK N   1       1.479   2.885   1.210  0.00  0.00    -0.293 OA
ENDROOT
BRANCH   1   3
HETATM    3  C   UNK N   1       0.786   0.773   2.007  0.00  0.00     0.052 C 
HETATM    4  C   UNK N   1       2.006   0.201   2.193  0.00  0.00    -0.080 C 
HETATM    5  C   UNK N   1       2.096  -1.144   2.867  0.00  0.00     0.043 C 
BRANCH   4   6
HETATM    6  C   UNK N   1       3.310   0.831   1.738  0.00  0.00     0.034 C 
BRANCH   6   7
HETATM    7  C   UNK N   1       3.464   0.735   0.206  0.00  0.00     0.008 C 
BRANCH   7   8
HETATM    8  C   UNK N   1       4.809   1.330  -0.242  0.00  0.00     0.046 C 
BRANCH   8   9
HETATM    9  C   UNK N   1       5.131   1.129  -1.750  0.00  0.00     0.123 C 
HETATM   10  C   UNK N   1       5.277  -0.351  -2.053  0.00  0.00     0.183 C 
HETATM   11  O   UNK N   1       5.965  -1.065  -1.338  0.00  0.00    -0.290 OA
HETATM   12  C   UNK N   1       4.741  -0.896  -3.291  0.00  0.00     0.052 C 
HETATM   13  C   UNK N   1       4.088  -0.109  -4.134  0.00  0.00     0.014 C 
HETATM   14  C   UNK N   1       3.783   1.344  -3.822  0.00  0.00     0.073 C 
HETATM   15  C   UNK N   1       4.473   2.260  -4.846  0.00  0.00     0.050 C 
HETATM   16  C   UNK N   1       2.262   1.502  -3.976  0.00  0.00     0.050 C 
HETATM   17  O   UNK N   1       4.100   1.779  -2.495  0.00  0.00    -0.358 OA
HETATM   18  C   UNK N   1       6.485   1.806  -2.032  0.00  0.00     0.055 C 
ENDBRANCH   8   9
ENDBRANCH   7   8
ENDBRANCH   6   7
ENDBRANCH   4   6
ENDBRANCH   1   3
BRANCH   1  19
HETATM   19  C   UNK N   1      -0.846   2.605   1.123  0.00  0.00     0.116 C 
BRANCH  19  20
HETATM   20  C   UNK N   1      -0.904   3.038  -0.328  0.00  0.00    -0.080 C 
HETATM   21  C   UNK N   1      -0.876   2.162  -1.362  0.00  0.00    -0.019 C 
HETATM   22  C   UNK N   1      -0.953   4.517  -0.611  0.00  0.00     0.043 C 
BRANCH  21  23
HETATM   23  C   UNK N   1      -0.881   0.650  -1.227  0.00  0.00     0.068 C 
BRANCH  23  24
HETATM   24  C   UNK N   1      -2.044  -0.052  -1.932  0.00  0.00    -0.018 A 
HETATM   25  C   UNK N   1      -2.172  -1.485  -1.973  0.00  0.00     0.080 A 
HETATM   26  C   UNK N   1      -3.246  -2.058  -2.695  0.00  0.00    -0.025 A 
HETATM   27  C   UNK N   1      -4.188  -1.248  -3.338  0.00  0.00     0.046 A 
HETATM   28  C   UNK N   1      -3.392  -3.554  -2.770  0.00  0.00     0.051 C 
HETATM   29  C   UNK N   1      -4.083   0.137  -3.281  0.00  0.00     0.066 A 
HETATM   30  C   UNK N   1      -3.029   0.728  -2.594  0.00  0.00     0.046 A 
BRANCH  25  31
HETATM   31  O   UNK N   1      -1.328  -2.370  -1.354  0.00  0.00    -0.355 OA
HETATM   32  C   UNK N   1      -0.400  -2.179  -0.353  0.00  0.00     0.210 C 
ENDBRANCH  25  31
BRANCH  29  33
HETATM   33  O   UNK N   1      -4.996   0.920  -3.894  0.00  0.00    -0.361 OA
HETATM   34  H   UNK N   1      -5.746   0.547  -4.379  0.00  0.00     0.217 HD
ENDBRANCH  29  33
ENDBRANCH  23  24
ENDBRANCH  21  23
ENDBRANCH  19  20
ENDBRANCH   1  19
TORSDOF 11
