REMARK  4 active torsions:
REMARK  status: ('A' for Active; 'I' for Inactive)
REMARK    1  A    between atoms: C_2  and  O_3 
REMARK    2  A    between atoms: C_2  and  C_5 
REMARK    3  A    between atoms: C_5  and  C_7 
REMARK    4  A    between atoms: C_12  and  O_13 
ROOT
HETATM    1  C   UNK N   1      -0.899   0.715  -1.782  0.00  0.00     0.025 C 
HETATM    2  C   UNK N   1       0.071   1.732  -1.124  0.00  0.00     0.019 C 
HETATM    3  C   UNK N   1       1.506   1.151  -1.077  0.00  0.00     0.025 C 
HETATM    4  C   UNK N   1       2.591   2.066  -0.510  0.00  0.00    -0.056 C 
HETATM    5  C   UNK N   1       2.336   3.265   0.048  0.00  0.00     0.017 C 
HETATM    6  C   UNK N   1       4.011   1.541  -0.586  0.00  0.00     0.146 C 
HETATM    7  C   UNK N   1       4.074   0.175   0.124  0.00  0.00     0.037 C 
HETATM    8  C   UNK N   1       3.002  -0.794  -0.427  0.00  0.00     0.012 C 
HETATM    9  C   UNK N   1       1.554  -0.215  -0.311  0.00  0.00    -0.036 C 
HETATM   10  C   UNK N   1       0.561  -1.196  -0.993  0.00  0.00     0.010 C 
HETATM   11  C   UNK N   1      -0.875  -0.636  -1.045  0.00  0.00     0.010 C 
HETATM   12  C   UNK N   1       1.181  -0.069   1.195  0.00  0.00     0.016 C 
ENDROOT
BRANCH   1  13
HETATM   13  C   UNK N   1      -2.334   1.228  -1.905  0.00  0.00     0.010 C 
HETATM   14  C   UNK N   1      -2.943   1.853  -0.875  0.00  0.00     0.026 C 
BRANCH  13  15
HETATM   15  C   UNK N   1      -3.091   0.990  -3.171  0.00  0.00     0.171 C 
HETATM   16  O   UNK N   1      -4.243   1.376  -3.288  0.00  0.00    -0.646 OA
BRANCH  15  17
HETATM   17  O   UNK N   1      -2.518   0.293  -4.179  0.00  0.00    -0.773 OA
HETATM   18  H   UNK N   1      -3.009   0.090  -4.988  0.00  0.00     0.167 HD
ENDBRANCH  15  17
ENDBRANCH  13  15
ENDBRANCH   1  13
BRANCH   6  19
HETATM   19  O   UNK N   1       4.360   1.398  -1.939  0.00  0.00    -0.391 OA
HETATM   20  H   UNK N   1       5.341   1.245  -1.969  0.00  0.00     0.210 HD
ENDBRANCH   6  19
TORSDOF 4
