REMARK  9 active torsions:
REMARK  status: ('A' for Active; 'I' for Inactive)
REMARK    1  A    between atoms: C_5  and  C_20 
REMARK    2  A    between atoms: C_6  and  O_7 
REMARK    3  A    between atoms: C_6  and  C_9 
REMARK    4  A    between atoms: C_9  and  C_10 
REMARK    5  A    between atoms: C_12  and  O_13 
REMARK    6  A    between atoms: C_15  and  O_16 
REMARK    7  A    between atoms: C_20  and  C_21 
REMARK    8  A    between atoms: C_23  and  O_24 
REMARK    9  A    between atoms: C_26  and  O_27 
ROOT
HETATM    1  O   UNK N   1       4.884  -1.089  -1.058  0.00  0.00    -0.262 OA
HETATM    2  C   UNK N   1       3.803  -0.731  -1.498  0.00  0.00     0.294 C 
HETATM    3  O   UNK N   1       3.073  -1.507  -2.317  0.00  0.00    -0.319 OA
HETATM    4  C   UNK N   1       2.064  -0.792  -2.923  0.00  0.00     0.187 C 
HETATM    5  C   UNK N   1       1.865   0.401  -1.979  0.00  0.00     0.059 C 
HETATM    6  C   UNK N   1       3.272   0.657  -1.373  0.00  0.00     0.155 C 
ENDROOT
BRANCH   6   7
HETATM    7  O   UNK N   1       4.014   1.512  -2.209  0.00  0.00    -0.379 OA
HETATM    8  H   UNK N   1       4.925   1.597  -1.822  0.00  0.00     0.211 HD
ENDBRANCH   6   7
BRANCH   6   9
HETATM    9  C   UNK N   1       3.197   1.238   0.077  0.00  0.00     0.087 C 
BRANCH   9  10
HETATM   10  C   UNK N   1       2.441   0.362   1.057  0.00  0.00    -0.052 A 
HETATM   11  C   UNK N   1       3.064  -0.751   1.646  0.00  0.00     0.047 A 
HETATM   12  C   UNK N   1       2.356  -1.578   2.544  0.00  0.00     0.101 A 
HETATM   13  C   UNK N   1       1.008  -1.285   2.834  0.00  0.00     0.099 A 
HETATM   14  C   UNK N   1       0.395  -0.172   2.249  0.00  0.00     0.040 A 
HETATM   15  C   UNK N   1       1.106   0.653   1.378  0.00  0.00     0.010 A 
BRANCH  12  16
HETATM   16  O   UNK N   1       2.939  -2.655   3.141  0.00  0.00    -0.353 OA
HETATM   17  C   UNK N   1       4.254  -3.042   2.979  0.00  0.00     0.210 C 
ENDBRANCH  12  16
BRANCH  13  18
HETATM   18  O   UNK N   1       0.290  -2.060   3.673  0.00  0.00    -0.358 OA
HETATM   19  H   UNK N   1       0.662  -2.844   4.103  0.00  0.00     0.218 HD
ENDBRANCH  13  18
ENDBRANCH   9  10
ENDBRANCH   6   9
BRANCH   5  20
HETATM   20  C   UNK N   1       1.161   1.639  -2.564  0.00  0.00     0.049 C 
BRANCH  20  21
HETATM   21  C   UNK N   1      -0.316   1.417  -2.773  0.00  0.00    -0.055 A 
HETATM   22  C   UNK N   1      -1.212   1.854  -1.787  0.00  0.00     0.046 A 
HETATM   23  C   UNK N   1      -2.598   1.669  -1.937  0.00  0.00     0.101 A 
HETATM   24  C   UNK N   1      -3.086   1.051  -3.105  0.00  0.00     0.099 A 
HETATM   25  C   UNK N   1      -2.188   0.618  -4.092  0.00  0.00     0.040 A 
HETATM   26  C   UNK N   1      -0.810   0.792  -3.926  0.00  0.00     0.010 A 
BRANCH  23  27
HETATM   27  O   UNK N   1      -3.478   2.071  -0.977  0.00  0.00    -0.353 OA
HETATM   28  C   UNK N   1      -3.127   2.650   0.227  0.00  0.00     0.210 C 
ENDBRANCH  23  27
BRANCH  24  29
HETATM   29  O   UNK N   1      -4.409   0.866  -3.293  0.00  0.00    -0.358 OA
HETATM   30  H   UNK N   1      -5.069   1.152  -2.645  0.00  0.00     0.218 HD
ENDBRANCH  24  29
ENDBRANCH  20  21
ENDBRANCH   5  20
TORSDOF 9
