REMARK  6 active torsions:
REMARK  status: ('A' for Active; 'I' for Inactive)
REMARK    1  A    between atoms: C_4  and  C_5 
REMARK    2  A    between atoms: C_5  and  O_6 
REMARK    3  A    between atoms: C_11  and  N_12 
REMARK    4  A    between atoms: C_15  and  O_16 
REMARK    5  A    between atoms: C_22  and  O_23 
REMARK    6  A    between atoms: O_23  and  C_24 
ROOT
HETATM    1  O   UNK N   1       5.004   1.271  -1.938  0.00  0.00    -0.259 OA
HETATM    2  C   UNK N   1       3.955   1.041  -1.361  0.00  0.00     0.295 C 
HETATM    3  O   UNK N   1       3.120   0.067  -1.817  0.00  0.00    -0.308 OA
HETATM    4  C   UNK N   1       2.341  -0.635  -0.902  0.00  0.00     0.173 C 
HETATM    5  C   UNK N   1       1.371   0.366  -0.124  0.00  0.00     0.042 C 
HETATM    6  C   UNK N   1       2.107   1.692   0.154  0.00  0.00     0.012 C 
HETATM    7  C   UNK N   1       3.571   1.758  -0.122  0.00  0.00     0.064 C 
HETATM    8  C   UNK N   1       4.499   2.395   0.634  0.00  0.00     0.098 C 
HETATM    9  C   UNK N   1       1.403   2.821   0.424  0.00  0.00     0.125 C 
HETATM   10  C   UNK N   1      -0.070   2.806   0.301  0.00  0.00     0.212 C 
HETATM   11  O   UNK N   1      -0.723   3.775   0.659  0.00  0.00    -0.285 OA
HETATM   12  C   UNK N   1      -0.710   1.732  -0.511  0.00  0.00     0.006 C 
HETATM   13  C   UNK N   1       0.010   0.608  -0.832  0.00  0.00    -0.024 C 
HETATM   14  C   UNK N   1      -0.598  -0.499  -1.706  0.00  0.00     0.164 C 
HETATM   15  C   UNK N   1      -1.856  -0.074  -2.476  0.00  0.00     0.055 C 
HETATM   16  C   UNK N   1      -2.835   0.714  -1.599  0.00  0.00     0.027 C 
HETATM   17  C   UNK N   1      -3.870   1.364  -2.468  0.00  0.00     0.136 C 
HETATM   18  O   UNK N   1      -4.783   0.750  -3.000  0.00  0.00    -0.297 OA
HETATM   19  C   UNK N   1      -3.686   2.836  -2.623  0.00  0.00     0.080 C 
HETATM   20  C   UNK N   1      -2.264   3.024  -2.083  0.00  0.00     0.018 C 
HETATM   21  C   UNK N   1      -2.142   1.953  -0.993  0.00  0.00     0.039 C 
HETATM   22  C   UNK N   1      -3.479  -0.148  -0.491  0.00  0.00     0.024 C 
HETATM   23  C   UNK N   1       0.985  -0.210   1.267  0.00  0.00     0.028 C 
ENDROOT
BRANCH   8  24
HETATM   24  N   UNK N   1       4.201   2.962   1.903  0.00  0.00    -0.407 N 
HETATM   25  H   UNK N   1       3.279   2.846   2.346  0.00  0.00     0.155 HD
HETATM   26  H   UNK N   1       4.961   3.377   2.460  0.00  0.00     0.155 HD
ENDBRANCH   8  24
BRANCH   9  27
HETATM   27  O   UNK N   1       2.034   4.001   0.640  0.00  0.00    -0.356 OA
HETATM   28  H   UNK N   1       1.550   4.829   0.769  0.00  0.00     0.218 HD
ENDBRANCH   9  27
BRANCH   4  29
HETATM   29  C   UNK N   1       3.306  -1.475  -0.023  0.00  0.00     0.201 C 
BRANCH  29  30
HETATM   30  O   UNK N   1       4.084  -2.280  -0.886  0.00  0.00    -0.393 OA
HETATM   31  C   UNK N   1       4.966  -3.079  -0.135  0.00  0.00     0.201 C 
ENDBRANCH  29  30
ENDBRANCH   4  29
BRANCH  14  32
HETATM   32  O   UNK N   1      -0.843  -1.605  -0.909  0.00  0.00    -0.312 OA
BRANCH  32  33
HETATM   33  C   UNK N   1      -0.843  -2.891  -1.347  0.00  0.00     0.255 C 
HETATM   34  O   UNK N   1      -0.638  -3.154  -2.524  0.00  0.00    -0.266 OA
HETATM   35  C   UNK N   1      -1.078  -3.996  -0.368  0.00  0.00     0.126 C 
ENDBRANCH  32  33
ENDBRANCH  14  32
TORSDOF 6
