REMARK  6 active torsions:
REMARK  status: ('A' for Active; 'I' for Inactive)
REMARK    1  A    between atoms: C_7  and  C_14 
REMARK    2  A    between atoms: C_10  and  O_11 
REMARK    3  A    between atoms: C_15  and  C_16 
REMARK    4  A    between atoms: C_17  and  C_18 
REMARK    5  A    between atoms: C_18  and  C_19 
REMARK    6  A    between atoms: C_19  and  O_20 
ROOT
HETATM    1  S   UNK N   1      -0.961   0.530   1.948  0.00  0.00    -0.094 SA
HETATM    2  C   UNK N   1       0.628   0.444   1.507  0.00  0.00     0.025 A 
HETATM    3  C   UNK N   1       1.311  -0.224   2.497  0.00  0.00    -0.017 A 
HETATM    4  C   UNK N   1       2.606  -0.326   2.205  0.00  0.00     0.028 A 
HETATM    5  C   UNK N   1       2.758   0.352   0.907  0.00  0.00     0.015 A 
HETATM    6  C   UNK N   1       1.436   0.813   0.525  0.00  0.00     0.006 A 
HETATM    7  C   UNK N   1       1.182   1.568  -0.756  0.00  0.00     0.190 A 
HETATM    8  O   UNK N   1       2.370   1.768  -1.470  0.00  0.00    -0.302 OA
HETATM    9  C   UNK N   1       3.619   1.322  -1.117  0.00  0.00     0.318 A 
HETATM   10  C   UNK N   1       3.824   0.569   0.151  0.00  0.00     0.152 A 
HETATM   11  O   UNK N   1       4.566   1.552  -1.849  0.00  0.00    -0.257 OA
HETATM   12  C   UNK N   1       0.519  -0.647   3.592  0.00  0.00     0.027 A 
HETATM   13  C   UNK N   1      -0.832  -0.277   3.420  0.00  0.00    -0.020 A 
HETATM   14  C   UNK N   1      -1.948  -0.545   4.372  0.00  0.00     0.056 C 
ENDROOT
BRANCH   7  15
HETATM   15  C   UNK N   1       0.238   0.802  -1.645  0.00  0.00     0.010 C 
HETATM   16  C   UNK N   1      -0.934   1.312  -2.058  0.00  0.00    -0.001 C 
BRANCH  16  17
HETATM   17  C   UNK N   1      -1.793   0.535  -2.978  0.00  0.00    -0.004 C 
HETATM   18  C   UNK N   1      -2.949   1.023  -3.459  0.00  0.00    -0.025 C 
BRANCH  18  19
HETATM   19  C   UNK N   1      -3.779   0.207  -4.423  0.00  0.00     0.053 C 
BRANCH  19  20
HETATM   20  C   UNK N   1      -5.188  -0.056  -3.892  0.00  0.00     0.168 C 
BRANCH  20  21
HETATM   21  O   UNK N   1      -5.933   1.131  -3.848  0.00  0.00    -0.401 OA
HETATM   22  H   UNK N   1      -6.280   1.276  -4.769  0.00  0.00     0.209 HD
ENDBRANCH  20  21
ENDBRANCH  19  20
ENDBRANCH  18  19
ENDBRANCH  16  17
ENDBRANCH   7  15
BRANCH  10  23
HETATM   23  O   UNK N   1       5.044   0.125   0.533  0.00  0.00    -0.355 OA
HETATM   24  H   UNK N   1       5.831   0.277  -0.007  0.00  0.00     0.218 HD
ENDBRANCH  10  23
TORSDOF 6
