REMARK  3 active torsions:
REMARK  status: ('A' for Active; 'I' for Inactive)
REMARK    1  A    between atoms: C_5  and  C_7 
REMARK    2  A    between atoms: C_9  and  O_10 
REMARK    3  A    between atoms: C_17  and  O_18 
ROOT
HETATM    1  C   UNK N   1      -2.979   3.145  -0.535  0.00  0.00     0.028 C 
HETATM    2  C   UNK N   1      -2.865   2.576   0.904  0.00  0.00    -0.005 C 
HETATM    3  C   UNK N   1      -1.727   3.464   1.500  0.00  0.00     0.070 C 
HETATM    4  C   UNK N   1      -0.289   3.090   0.958  0.00  0.00     0.029 C 
HETATM    5  C   UNK N   1       0.006   1.583   1.112  0.00  0.00     0.005 C 
HETATM    6  C   UNK N   1       1.456   1.195   0.588  0.00  0.00    -0.017 C 
HETATM    7  C   UNK N   1       2.501   2.292   0.861  0.00  0.00    -0.072 C 
HETATM    8  C   UNK N   1       3.928   2.033   0.422  0.00  0.00     0.066 C 
HETATM    9  C   UNK N   1       3.922   1.797  -1.097  0.00  0.00     0.122 C 
HETATM   10  C   UNK N   1       2.938   0.669  -1.473  0.00  0.00     0.033 C 
HETATM   11  C   UNK N   1       1.513   0.977  -0.959  0.00  0.00     0.016 C 
HETATM   12  C   UNK N   1       2.187   3.490   1.388  0.00  0.00    -0.023 C 
HETATM   13  C   UNK N   1       0.789   3.880   1.743  0.00  0.00     0.035 C 
HETATM   14  C   UNK N   1       1.861  -0.111   1.331  0.00  0.00     0.020 C 
HETATM   15  C   UNK N   1      -1.115   0.741   0.440  0.00  0.00     0.007 C 
HETATM   16  C   UNK N   1      -2.496   1.072   1.008  0.00  0.00     0.013 C 
HETATM   17  C   UNK N   1      -2.152   4.871   1.010  0.00  0.00     0.040 C 
HETATM   18  C   UNK N   1      -2.821   4.671  -0.366  0.00  0.00     0.013 C 
HETATM   19  C   UNK N   1      -4.216   2.756   1.663  0.00  0.00     0.019 C 
ENDROOT
BRANCH   1  20
HETATM   20  C   UNK N   1      -4.179   2.717  -1.362  0.00  0.00    -0.045 A 
HETATM   21  C   UNK N   1      -5.522   3.435  -1.431  0.00  0.00     0.213 A 
HETATM   22  O   UNK N   1      -6.248   2.647  -2.312  0.00  0.00    -0.314 OA
HETATM   23  C   UNK N   1      -5.505   1.613  -2.736  0.00  0.00     0.283 A 
HETATM   24  O   UNK N   1      -5.903   0.771  -3.521  0.00  0.00    -0.260 OA
HETATM   25  C   UNK N   1      -4.198   1.649  -2.143  0.00  0.00     0.087 A 
ENDBRANCH   1  20
BRANCH   3  26
HETATM   26  O   UNK N   1      -1.736   3.346   2.909  0.00  0.00    -0.389 OA
HETATM   27  H   UNK N   1      -1.509   4.229   3.304  0.00  0.00     0.210 HD
ENDBRANCH   3  26
BRANCH   9  28
HETATM   28  O   UNK N   1       5.221   1.477  -1.519  0.00  0.00    -0.395 OA
HETATM   29  H   UNK N   1       5.199   1.425  -2.510  0.00  0.00     0.210 HD
ENDBRANCH   9  28
TORSDOF 3
