REMARK  4 active torsions:
REMARK  status: ('A' for Active; 'I' for Inactive)
REMARK    1  A    between atoms: O_3  and  C_21 
REMARK    2  A    between atoms: O_3  and  C_25 
REMARK       I    between atoms: N_6  and  C_19 
REMARK    3  A    between atoms: C_16  and  C_21 
REMARK    4  A    between atoms: C_19  and  C_24 
ROOT
HETATM    1  O   UNK N   1      -2.177  -3.024  -1.419  0.00  0.00    -0.267 OA
HETATM    2  N   UNK N   1      -0.839  -1.242  -1.014  0.00  0.00    -0.322 N 
HETATM    3  N   UNK N   1       2.699   1.050   0.442  0.00  0.00    -0.354 N 
HETATM    4  C   UNK N   1       1.507  -2.244  -0.897  0.00  0.00    -0.001 C 
HETATM    5  C   UNK N   1       2.216  -1.040  -0.275  0.00  0.00    -0.008 A 
HETATM    6  C   UNK N   1       0.279  -1.835  -1.737  0.00  0.00     0.145 C 
HETATM    7  C   UNK N   1       1.728   0.278  -0.112  0.00  0.00     0.058 A 
HETATM    8  C   UNK N   1       3.510  -1.024   0.280  0.00  0.00    -0.000 A 
HETATM    9  C   UNK N   1       1.100  -3.244   0.199  0.00  0.00     0.021 C 
HETATM   10  C   UNK N   1       2.441  -2.941  -1.931  0.00  0.00     0.021 C 
HETATM   11  C   UNK N   1       3.758   0.265   0.673  0.00  0.00     0.043 A 
HETATM   12  C   UNK N   1       0.340   0.826  -0.293  0.00  0.00     0.082 C 
HETATM   13  C   UNK N   1      -0.768   0.120  -0.597  0.00  0.00     0.114 C 
HETATM   14  C   UNK N   1       4.482  -2.020   0.491  0.00  0.00     0.014 A 
HETATM   15  C   UNK N   1      -2.054  -1.896  -0.968  0.00  0.00     0.257 C 
HETATM   16  C   UNK N   1       4.961   0.652   1.264  0.00  0.00     0.030 A 
HETATM   17  C   UNK N   1       5.707  -1.658   1.080  0.00  0.00     0.001 A 
HETATM   18  C   UNK N   1       5.949  -0.324   1.460  0.00  0.00     0.002 A 
HETATM   19  H   UNK N   1       2.634   2.058   0.705  0.00  0.00     0.166 HD
ENDROOT
BRANCH  15  20
HETATM   20  C   UNK N   1      -3.249  -1.257  -0.373  0.00  0.00     0.035 A 
HETATM   21  C   UNK N   1      -3.497  -1.374   1.000  0.00  0.00     0.062 A 
HETATM   22  C   UNK N   1      -4.615  -0.750   1.565  0.00  0.00     0.155 A 
HETATM   23  F   UNK N   1      -4.853  -0.866   2.894  0.00  0.00    -0.203 F 
HETATM   24  C   UNK N   1      -5.482  -0.003   0.759  0.00  0.00     0.154 A 
HETATM   25  F   UNK N   1      -6.563   0.606   1.307  0.00  0.00    -0.203 F 
HETATM   26  C   UNK N   1      -5.234   0.118  -0.612  0.00  0.00     0.046 A 
HETATM   27  C   UNK N   1      -4.120  -0.509  -1.179  0.00  0.00     0.020 A 
ENDBRANCH  15  20
BRANCH  12  28
HETATM   28  C   UNK N   1       0.099   2.253   0.023  0.00  0.00     0.297 C 
HETATM   29  O   UNK N   1      -0.765   2.554   0.839  0.00  0.00    -0.259 OA
BRANCH  28  30
HETATM   30  O   UNK N   1       0.683   3.209  -0.744  0.00  0.00    -0.313 OA
BRANCH  30  31
HETATM   31  C   UNK N   1       0.341   4.550  -0.677  0.00  0.00     0.124 C 
HETATM   32  C   UNK N   1       1.170   5.213   0.415  0.00  0.00     0.040 C 
HETATM   33  C   UNK N   1       0.578   5.209  -2.036  0.00  0.00     0.040 C 
ENDBRANCH  30  31
ENDBRANCH  28  30
ENDBRANCH  12  28
TORSDOF 4
