REMARK  7 active torsions:
REMARK  status: ('A' for Active; 'I' for Inactive)
REMARK    1  A    between atoms: O_1  and  C_14 
REMARK    2  A    between atoms: O_2  and  C_24 
REMARK    3  A    between atoms: O_3  and  C_28 
REMARK    4  A    between atoms: C_10  and  C_20 
REMARK    5  A    between atoms: C_20  and  C_25 
REMARK    6  A    between atoms: C_25  and  C_27 
REMARK    7  A    between atoms: C_27  and  C_28 
ROOT
HETATM    1  C   UNK N   1       0.106   1.017   0.184  0.00  0.00     0.001 C 
HETATM    2  C   UNK N   1       1.079  -0.119  -0.215  0.00  0.00    -0.036 C 
HETATM    3  C   UNK N   1      -1.243   0.949  -0.579  0.00  0.00     0.024 C 
HETATM    4  C   UNK N   1      -1.928  -0.435  -0.282  0.00  0.00     0.001 C 
HETATM    5  C   UNK N   1      -3.302  -0.582  -1.061  0.00  0.00    -0.036 C 
HETATM    6  C   UNK N   1       2.307   0.276   0.653  0.00  0.00    -0.002 C 
HETATM    7  C   UNK N   1      -4.236   0.621  -0.675  0.00  0.00    -0.001 C 
HETATM    8  C   UNK N   1       0.381  -1.450   0.185  0.00  0.00     0.010 C 
HETATM    9  C   UNK N   1      -0.956  -1.621  -0.548  0.00  0.00     0.007 C 
HETATM   10  C   UNK N   1      -2.180   2.131  -0.216  0.00  0.00     0.123 C 
HETATM   11  C   UNK N   1       0.952   2.273   0.042  0.00  0.00     0.006 C 
HETATM   12  C   UNK N   1       2.353   1.828   0.511  0.00  0.00     0.006 C 
HETATM   13  C   UNK N   1      -3.539   1.986  -0.935  0.00  0.00     0.037 C 
HETATM   14  C   UNK N   1      -4.052  -1.914  -0.727  0.00  0.00     0.012 C 
HETATM   15  C   UNK N   1       1.476  -0.121  -1.728  0.00  0.00     0.016 C 
HETATM   16  C   UNK N   1      -4.761   0.513   0.786  0.00  0.00     0.037 C 
HETATM   17  C   UNK N   1      -3.076  -0.605  -2.604  0.00  0.00     0.016 C 
HETATM   18  C   UNK N   1      -4.523  -2.000   0.728  0.00  0.00     0.032 C 
HETATM   19  C   UNK N   1      -5.469  -0.828   1.030  0.00  0.00     0.118 C 
ENDROOT
BRANCH   6  20
HETATM   20  C   UNK N   1       3.698  -0.417   0.421  0.00  0.00    -0.013 C 
HETATM   21  C   UNK N   1       3.614  -1.946   0.551  0.00  0.00     0.010 C 
BRANCH  20  22
HETATM   22  C   UNK N   1       4.745   0.160   1.413  0.00  0.00     0.015 C 
BRANCH  22  23
HETATM   23  C   UNK N   1       6.180  -0.391   1.276  0.00  0.00     0.110 C 
BRANCH  23  24
HETATM   24  C   UNK N   1       6.752  -0.226  -0.109  0.00  0.00     0.139 C 
HETATM   25  O   UNK N   1       6.806   0.873  -0.625  0.00  0.00    -0.650 OA
BRANCH  24  26
HETATM   26  O   UNK N   1       7.236  -1.310  -0.760  0.00  0.00    -0.776 OA
HETATM   27  H   UNK N   1       7.654  -1.224  -1.629  0.00  0.00     0.167 HD
ENDBRANCH  24  26
ENDBRANCH  23  24
ENDBRANCH  22  23
ENDBRANCH  20  22
ENDBRANCH   6  20
BRANCH  10  28
HETATM   28  O   UNK N   1      -2.374   2.221   1.172  0.00  0.00    -0.395 OA
HETATM   29  H   UNK N   1      -1.659   2.802   1.540  0.00  0.00     0.210 HD
ENDBRANCH  10  28
BRANCH  19  30
HETATM   30  O   UNK N   1      -5.951  -0.905   2.348  0.00  0.00    -0.396 OA
HETATM   31  H   UNK N   1      -5.169  -0.856   2.960  0.00  0.00     0.210 HD
ENDBRANCH  19  30
TORSDOF 7
