REMARK  7 active torsions:
REMARK  status: ('A' for Active; 'I' for Inactive)
REMARK    1  A    between atoms: O_4  and  C_36 
REMARK       I    between atoms: N_7  and  C_15 
REMARK    2  A    between atoms: N_7  and  C_17 
REMARK    3  A    between atoms: N_7  and  C_18 
REMARK    4  A    between atoms: C_12  and  C_15 
REMARK    5  A    between atoms: C_17  and  C_21 
REMARK    6  A    between atoms: C_18  and  C_23 
REMARK    7  A    between atoms: C_32  and  C_36 
ROOT
HETATM    1  O   UNK N   1      -0.286   1.785  -2.453  0.00  0.00    -0.266 OA
HETATM    2  N   UNK N   1      -1.332   0.999  -0.614  0.00  0.00    -0.338 N 
HETATM    3  C   UNK N   1      -0.252   1.065  -1.465  0.00  0.00     0.273 C 
ENDROOT
BRANCH   2   4
HETATM    4  C   UNK N   1      -1.310   0.163   0.590  0.00  0.00     0.165 C 
BRANCH   4   5
HETATM    5  C   UNK N   1      -2.397  -0.875   0.549  0.00  0.00    -0.040 A 
HETATM    6  C   UNK N   1      -3.392  -0.900   1.538  0.00  0.00     0.010 A 
HETATM    7  C   UNK N   1      -4.402  -1.864   1.496  0.00  0.00     0.019 A 
HETATM    8  C   UNK N   1      -4.431  -2.818   0.462  0.00  0.00     0.037 A 
HETATM    9  C   UNK N   1      -3.432  -2.787  -0.526  0.00  0.00     0.019 A 
HETATM   10  C   UNK N   1      -2.422  -1.824  -0.481  0.00  0.00     0.010 A 
BRANCH   8  11
HETATM   11  C   UNK N   1      -5.497  -3.846   0.407  0.00  0.00     0.176 C 
HETATM   12  O   UNK N   1      -6.368  -3.880   1.264  0.00  0.00    -0.646 OA
BRANCH  11  13
HETATM   13  O   UNK N   1      -5.509  -4.753  -0.595  0.00  0.00    -0.773 OA
HETATM   14  H   UNK N   1      -6.195  -5.433  -0.649  0.00  0.00     0.167 HD
ENDBRANCH  11  13
ENDBRANCH   8  11
ENDBRANCH   4   5
ENDBRANCH   2   4
BRANCH   2  15
HETATM   15  C   UNK N   1      -2.528   1.789  -0.896  0.00  0.00     0.165 C 
BRANCH  15  16
HETATM   16  C   UNK N   1      -2.419   3.155  -0.287  0.00  0.00    -0.040 A 
HETATM   17  C   UNK N   1      -2.827   3.369   1.039  0.00  0.00     0.009 A 
HETATM   18  C   UNK N   1      -2.727   4.643   1.605  0.00  0.00     0.001 A 
HETATM   19  C   UNK N   1      -2.216   5.704   0.853  0.00  0.00     0.000 A 
HETATM   20  C   UNK N   1      -1.807   5.494  -0.467  0.00  0.00     0.001 A 
HETATM   21  C   UNK N   1      -1.910   4.224  -1.038  0.00  0.00     0.009 A 
ENDBRANCH  15  16
ENDBRANCH   2  15
BRANCH   3  22
HETATM   22  C   UNK N   1       0.935   0.226  -1.264  0.00  0.00     0.127 A 
HETATM   23  N   UNK N   1       1.027  -1.029  -1.740  0.00  0.00    -0.293 N 
HETATM   24  N   UNK N   1       2.187  -1.536  -1.349  0.00  0.00    -0.295 N 
ATOM     25  HN  UNK N   1       0.325  -1.508  -2.304  1.00  0.00     0.187 HD
HETATM   26  C   UNK N   1       2.848  -0.605  -0.613  0.00  0.00     0.074 A 
HETATM   27  C   UNK N   1       2.583  -2.893  -1.696  0.00  0.00     0.178 C 
HETATM   28  C   UNK N   1       2.076   0.519  -0.543  0.00  0.00     0.029 A 
HETATM   29  C   UNK N   1       4.156  -0.649   0.070  0.00  0.00     0.028 A 
HETATM   30  C   UNK N   1       2.476   1.753   0.209  0.00  0.00     0.219 A 
HETATM   31  O   UNK N   1       3.720   1.612   0.832  0.00  0.00    -0.346 OA
HETATM   32  C   UNK N   1       4.532   0.511   0.788  0.00  0.00     0.081 A 
HETATM   33  C   UNK N   1       5.757   0.540   1.467  0.00  0.00     0.039 A 
HETATM   34  C   UNK N   1       6.610  -0.566   1.433  0.00  0.00     0.026 A 
HETATM   35  C   UNK N   1       6.245  -1.711   0.721  0.00  0.00     0.035 A 
HETATM   36 Cl   UNK N   1       7.319  -3.097   0.674  0.00  0.00    -0.084 Cl
HETATM   37  C   UNK N   1       5.024  -1.756   0.044  0.00  0.00     0.040 A 
ENDBRANCH   3  22
TORSDOF 7
