REMARK  10 active torsions:
REMARK  status: ('A' for Active; 'I' for Inactive)
REMARK    1  A    between atoms: O_6  and  C_22 
REMARK    2  A    between atoms: O_6  and  C_27 
REMARK    3  A    between atoms: O_8  and  C_38 
REMARK    4  A    between atoms: O_8  and  C_44 
REMARK    5  A    between atoms: O_9  and  C_41 
REMARK    6  A    between atoms: N_11  and  C_23 
REMARK    7  A    between atoms: C_24  and  C_28 
REMARK    8  A    between atoms: C_27  and  C_29 
REMARK    9  A    between atoms: C_32  and  C_33 
REMARK   10  A    between atoms: C_36  and  C_41 
ROOT
HETATM    1  N   UNK N   1      -0.974   3.325  -0.311  0.00  0.00    -0.352 N 
HETATM    2  C   UNK N   1      -0.141   3.349  -1.477  0.00  0.00     0.089 C 
HETATM    3  C   UNK N   1      -0.194   3.753   0.817  0.00  0.00     0.089 C 
HETATM    4  C   UNK N   1       0.575   4.701  -1.302  0.00  0.00     0.027 C 
HETATM    5  C   UNK N   1       0.536   4.971   0.233  0.00  0.00     0.027 C 
HETATM    6  C   UNK N   1       0.840   2.152  -1.362  0.00  0.00     0.057 C 
HETATM    7  C   UNK N   1       0.792   2.595   1.147  0.00  0.00     0.057 C 
HETATM    8  C   UNK N   1       1.691   2.239  -0.063  0.00  0.00     0.125 C 
ENDROOT
BRANCH   8   9
HETATM    9  O   UNK N   1       2.364   1.022   0.215  0.00  0.00    -0.381 OA
BRANCH   9  10
HETATM   10  C   UNK N   1       3.496   0.867  -0.611  0.00  0.00     0.212 C 
BRANCH  10  11
HETATM   11  C   UNK N   1       4.113  -0.482  -0.384  0.00  0.00     0.027 A 
HETATM   12  C   UNK N   1       5.420  -0.771  -0.029  0.00  0.00     0.091 A 
HETATM   13  O   UNK N   1       5.572  -2.076  -0.037  0.00  0.00    -0.241 OA
HETATM   14  N   UNK N   1       4.460  -2.674  -0.369  0.00  0.00    -0.260 N 
HETATM   15  C   UNK N   1       3.532  -1.722  -0.577  0.00  0.00     0.078 A 
ATOM     16  HN  UNK N   1       4.320  -3.681  -0.454  1.00  0.00     0.195 HD
BRANCH  12  17
HETATM   17  C   UNK N   1       6.538   0.196   0.245  0.00  0.00     0.046 A 
HETATM   18  C   UNK N   1       7.375   0.014   1.502  0.00  0.00     0.012 A 
HETATM   19  C   UNK N   1       6.211   0.989   1.505  0.00  0.00     0.012 A 
ENDBRANCH  12  17
BRANCH  15  20
HETATM   20  C   UNK N   1       2.165  -2.018  -1.043  0.00  0.00     0.027 A 
HETATM   21  C   UNK N   1       1.057  -1.953  -0.170  0.00  0.00     0.090 A 
HETATM   22  C   UNK N   1      -0.225  -2.290  -0.666  0.00  0.00     0.038 A 
HETATM   23  C   UNK N   1      -0.391  -2.664  -2.001  0.00  0.00     0.003 A 
HETATM   24  C   UNK N   1       0.709  -2.714  -2.857  0.00  0.00     0.001 A 
HETATM   25  C   UNK N   1       1.982  -2.403  -2.379  0.00  0.00     0.017 A 
BRANCH  21  26
HETATM   26  O   UNK N   1       1.253  -1.585   1.128  0.00  0.00    -0.254 OA
BRANCH  26  27
HETATM   27  C   UNK N   1       0.276  -1.490   2.104  0.00  0.00     0.530 C 
HETATM   28  F   UNK N   1      -0.699  -0.585   1.724  0.00  0.00    -0.144 F 
HETATM   29  F   UNK N   1       0.856  -1.046   3.276  0.00  0.00    -0.144 F 
HETATM   30  F   UNK N   1      -0.299  -2.727   2.333  0.00  0.00    -0.144 F 
ENDBRANCH  26  27
ENDBRANCH  21  26
ENDBRANCH  15  20
ENDBRANCH  10  11
ENDBRANCH   9  10
ENDBRANCH   8   9
BRANCH   1  31
HETATM   31  C   UNK N   1      -2.021   2.368  -0.167  0.00  0.00     0.148 A 
HETATM   32  S   UNK N   1      -2.904   2.084   1.215  0.00  0.00    -0.052 SA
HETATM   33  C   UNK N   1      -3.846   0.885   0.591  0.00  0.00     0.039 A 
HETATM   34  C   UNK N   1      -3.447   0.702  -0.732  0.00  0.00     0.090 A 
HETATM   35  C   UNK N   1      -4.860   0.141   1.176  0.00  0.00     0.039 A 
HETATM   36  N   UNK N   1      -2.435   1.532  -1.163  0.00  0.00    -0.333 N 
HETATM   37  C   UNK N   1      -4.061  -0.271  -1.516  0.00  0.00     0.145 A 
ATOM     38  HN  UNK N   1      -2.045   1.523  -2.106  1.00  0.00     0.168 HD
HETATM   39  F   UNK N   1      -3.676  -0.469  -2.801  0.00  0.00    -0.204 F 
HETATM   40  C   UNK N   1      -5.091  -1.048  -0.952  0.00  0.00     0.063 A 
HETATM   41  C   UNK N   1      -5.503  -0.844   0.394  0.00  0.00     0.042 A 
BRANCH  41  42
HETATM   42  C   UNK N   1      -6.599  -1.653   0.979  0.00  0.00     0.176 C 
HETATM   43  O   UNK N   1      -7.154  -2.514   0.312  0.00  0.00    -0.646 OA
BRANCH  42  44
HETATM   44  O   UNK N   1      -6.998  -1.434   2.251  0.00  0.00    -0.773 OA
HETATM   45  H   UNK N   1      -7.720  -1.944   2.646  0.00  0.00     0.167 HD
ENDBRANCH  42  44
ENDBRANCH  41  42
ENDBRANCH   1  31
TORSDOF 10
