REMARK  10 active torsions:
REMARK  status: ('A' for Active; 'I' for Inactive)
REMARK    1  A    between atoms: S_1  and  N_8 
REMARK    2  A    between atoms: S_1  and  C_35 
REMARK    3  A    between atoms: O_2  and  C_16 
REMARK    4  A    between atoms: O_3  and  C_28 
REMARK    5  A    between atoms: N_7  and  C_33 
REMARK       I    between atoms: N_7  and  C_34 
REMARK       I    between atoms: N_8  and  C_34 
REMARK    6  A    between atoms: C_15  and  C_26 
REMARK    7  A    between atoms: C_19  and  C_29 
REMARK    8  A    between atoms: C_26  and  C_30 
REMARK    9  A    between atoms: C_30  and  C_33 
REMARK   10  A    between atoms: C_40  and  C_41 
ROOT
HETATM    1  C   UNK N   1       2.524  -0.146  -0.488  0.00  0.00     0.024 C 
HETATM    2  C   UNK N   1       3.375  -0.603   0.749  0.00  0.00     0.001 C 
HETATM    3  C   UNK N   1       1.511  -1.264  -0.846  0.00  0.00     0.001 C 
HETATM    4  C   UNK N   1       0.545  -1.608   0.313  0.00  0.00    -0.036 C 
HETATM    5  C   UNK N   1       4.409   0.520   1.178  0.00  0.00    -0.036 C 
HETATM    6  C   UNK N   1       5.321   0.878  -0.053  0.00  0.00     0.003 C 
HETATM    7  C   UNK N   1      -0.359  -2.657  -0.414  0.00  0.00    -0.002 C 
HETATM    8  C   UNK N   1       3.426   0.233  -1.694  0.00  0.00     0.127 C 
HETATM    9  C   UNK N   1       2.460  -1.069   1.921  0.00  0.00     0.007 C 
HETATM   10  C   UNK N   1       1.426  -2.126   1.483  0.00  0.00     0.010 C 
HETATM   11  C   UNK N   1       4.461   1.320  -1.290  0.00  0.00     0.019 C 
HETATM   12  C   UNK N   1       0.585  -1.011  -2.025  0.00  0.00     0.006 C 
HETATM   13  C   UNK N   1      -0.572  -2.001  -1.811  0.00  0.00     0.006 C 
HETATM   14  C   UNK N   1       5.335   0.077   2.358  0.00  0.00     0.012 C 
HETATM   15  C   UNK N   1       6.318  -0.274  -0.386  0.00  0.00     0.037 C 
HETATM   16  C   UNK N   1      -0.330  -0.404   0.794  0.00  0.00     0.016 C 
HETATM   17  C   UNK N   1       3.674   1.801   1.690  0.00  0.00     0.016 C 
HETATM   18  C   UNK N   1       6.279  -1.071   1.992  0.00  0.00     0.032 C 
HETATM   19  C   UNK N   1       7.179  -0.649   0.827  0.00  0.00     0.118 C 
ENDROOT
BRANCH   7  20
HETATM   20  C   UNK N   1      -1.689  -3.160   0.268  0.00  0.00    -0.012 C 
HETATM   21  C   UNK N   1      -1.393  -4.081   1.466  0.00  0.00     0.010 C 
BRANCH  20  22
HETATM   22  C   UNK N   1      -2.606  -3.888  -0.757  0.00  0.00     0.024 C 
BRANCH  22  23
HETATM   23  C   UNK N   1      -3.965  -4.380  -0.207  0.00  0.00     0.125 C 
BRANCH  23  24
HETATM   24  N   UNK N   1      -4.730  -3.360   0.499  0.00  0.00    -0.342 N 
HETATM   25  C   UNK N   1      -5.191  -2.215  -0.083  0.00  0.00     0.329 C 
HETATM   26  O   UNK N   1      -4.941  -1.969  -1.253  0.00  0.00    -0.246 OA
HETATM   27  N   UNK N   1      -5.932  -1.342   0.655  0.00  0.00    -0.232 N 
HETATM   28  H   UNK N   1      -6.141  -1.552   1.641  0.00  0.00     0.183 HD
HETATM   29  H   UNK N   1      -4.948  -3.530   1.491  0.00  0.00     0.164 HD
BRANCH  27  30
HETATM   30  S   UNK N   1      -6.436   0.215   0.021  0.00  0.00     0.266 S 
HETATM   31  O   UNK N   1      -7.045  -0.056  -1.364  0.00  0.00    -0.200 OA
HETATM   32  O   UNK N   1      -7.654   0.610   0.870  0.00  0.00    -0.200 OA
BRANCH  30  33
HETATM   33  C   UNK N   1      -5.108   1.403   0.071  0.00  0.00     0.080 A 
HETATM   34  C   UNK N   1      -4.862   2.122   1.241  0.00  0.00     0.026 A 
HETATM   35  C   UNK N   1      -3.776   2.995   1.312  0.00  0.00     0.009 A 
HETATM   36  C   UNK N   1      -2.909   3.161   0.209  0.00  0.00    -0.051 A 
HETATM   37  C   UNK N   1      -3.183   2.429  -0.972  0.00  0.00     0.009 A 
HETATM   38  C   UNK N   1      -4.272   1.559  -1.033  0.00  0.00     0.026 A 
BRANCH  36  39
HETATM   39  C   UNK N   1      -1.703   4.115   0.326  0.00  0.00    -0.024 C 
HETATM   40  C   UNK N   1      -0.780   3.642   1.470  0.00  0.00     0.019 C 
HETATM   41  C   UNK N   1      -0.852   4.171  -0.966  0.00  0.00     0.019 C 
HETATM   42  C   UNK N   1      -2.207   5.541   0.626  0.00  0.00     0.019 C 
ENDBRANCH  36  39
ENDBRANCH  30  33
ENDBRANCH  27  30
ENDBRANCH  23  24
ENDBRANCH  22  23
ENDBRANCH  20  22
ENDBRANCH   7  20
BRANCH   8  43
HETATM   43  O   UNK N   1       4.075  -0.901  -2.214  0.00  0.00    -0.395 OA
HETATM   44  H   UNK N   1       3.488  -1.293  -2.911  0.00  0.00     0.210 HD
ENDBRANCH   8  43
BRANCH  11  45
HETATM   45  C   UNK N   1       5.295   1.765  -2.520  0.00  0.00     0.003 C 
HETATM   46  C   UNK N   1       6.272   2.902  -2.207  0.00  0.00     0.005 C 
ENDBRANCH  11  45
BRANCH  19  47
HETATM   47  O   UNK N   1       8.036  -1.712   0.503  0.00  0.00    -0.396 OA
HETATM   48  H   UNK N   1       8.689  -1.364  -0.159  0.00  0.00     0.210 HD
ENDBRANCH  19  47
TORSDOF 10
