REMARK  0 active torsions:
REMARK  status: ('A' for Active; 'I' for Inactive)
ROOT
HETATM    1  O   UNK N   1      -4.860   1.691  -0.360  0.00  0.00    -0.293 OA
HETATM    2  O   UNK N   1       5.911   0.165  -1.395  0.00  0.00    -0.293 OA
HETATM    3  C   UNK N   1      -0.099   0.731   0.479  0.00  0.00    -0.004 C 
HETATM    4  C   UNK N   1       0.718  -0.500  -0.059  0.00  0.00     0.002 C 
HETATM    5  C   UNK N   1      -1.538   0.642  -0.066  0.00  0.00     0.010 C 
HETATM    6  C   UNK N   1      -2.266  -0.665   0.337  0.00  0.00    -0.009 C 
HETATM    7  C   UNK N   1       2.226  -0.473   0.426  0.00  0.00    -0.016 C 
HETATM    8  C   UNK N   1      -0.016  -1.851   0.230  0.00  0.00     0.007 C 
HETATM    9  C   UNK N   1      -1.479  -1.845  -0.278  0.00  0.00     0.015 C 
HETATM   10  C   UNK N   1       0.574   2.042   0.017  0.00  0.00     0.010 C 
HETATM   11  C   UNK N   1      -2.534   1.791   0.203  0.00  0.00     0.089 C 
HETATM   12  C   UNK N   1       2.797   0.933   0.150  0.00  0.00    -0.068 C 
HETATM   13  C   UNK N   1       1.987   2.135   0.582  0.00  0.00     0.035 C 
HETATM   14  C   UNK N   1      -3.622  -0.351  -0.237  0.00  0.00    -0.008 C 
HETATM   15  C   UNK N   1       3.018  -1.562  -0.380  0.00  0.00     0.022 C 
HETATM   16  C   UNK N   1      -2.435  -0.834   1.876  0.00  0.00     0.021 C 
HETATM   17  C   UNK N   1       2.350  -0.737   1.949  0.00  0.00     0.020 C 
HETATM   18  C   UNK N   1      -3.805   1.110  -0.194  0.00  0.00     0.156 C 
HETATM   19  C   UNK N   1       4.528  -1.389  -0.276  0.00  0.00     0.084 C 
HETATM   20  C   UNK N   1       4.001   1.121  -0.438  0.00  0.00     0.053 C 
HETATM   21  C   UNK N   1      -4.512  -1.260  -0.693  0.00  0.00    -0.020 C 
HETATM   22  C   UNK N   1       4.878  -0.018  -0.770  0.00  0.00     0.149 C 
HETATM   23  C   UNK N   1      -5.845  -0.870  -1.262  0.00  0.00     0.036 C 
ENDROOT
TORSDOF 0
