REMARK  8 active torsions:
REMARK  status: ('A' for Active; 'I' for Inactive)
REMARK    1  A    between atoms: O_1  and  C_12 
REMARK    2  A    between atoms: O_2  and  C_16 
REMARK    3  A    between atoms: O_3  and  C_25 
REMARK    4  A    between atoms: O_4  and  C_29 
REMARK    5  A    between atoms: C_11  and  C_21 
REMARK    6  A    between atoms: C_21  and  C_26 
REMARK    7  A    between atoms: C_26  and  C_28 
REMARK    8  A    between atoms: C_28  and  C_29 
ROOT
HETATM    1  C   UNK N   1      -1.067  -0.035   0.270  0.00  0.00    -0.010 C 
HETATM    2  C   UNK N   1      -0.093   1.035  -0.286  0.00  0.00     0.003 C 
HETATM    3  C   UNK N   1       1.269   1.067   0.464  0.00  0.00     0.024 C 
HETATM    4  C   UNK N   1       1.950  -0.348   0.377  0.00  0.00     0.003 C 
HETATM    5  C   UNK N   1       3.323  -0.382   1.173  0.00  0.00    -0.036 C 
HETATM    6  C   UNK N   1      -2.303   0.257  -0.635  0.00  0.00     0.000 C 
HETATM    7  C   UNK N   1      -0.375  -1.426   0.074  0.00  0.00     0.127 C 
HETATM    8  C   UNK N   1       0.971  -1.474   0.823  0.00  0.00     0.038 C 
HETATM    9  C   UNK N   1       4.262   0.755   0.630  0.00  0.00    -0.001 C 
HETATM   10  C   UNK N   1      -0.926   2.306  -0.307  0.00  0.00     0.006 C 
HETATM   11  C   UNK N   1       2.219   2.200  -0.046  0.00  0.00     0.123 C 
HETATM   12  C   UNK N   1      -2.340   1.815  -0.685  0.00  0.00     0.006 C 
HETATM   13  C   UNK N   1       3.568   2.143   0.701  0.00  0.00     0.037 C 
HETATM   14  C   UNK N   1       4.073  -1.746   1.027  0.00  0.00     0.012 C 
HETATM   15  C   UNK N   1      -1.459   0.181   1.771  0.00  0.00     0.018 C 
HETATM   16  C   UNK N   1       4.797   0.442  -0.798  0.00  0.00     0.037 C 
HETATM   17  C   UNK N   1       3.095  -0.192   2.705  0.00  0.00     0.016 C 
HETATM   18  C   UNK N   1       4.545  -2.027  -0.402  0.00  0.00     0.032 C 
HETATM   19  C   UNK N   1       5.506  -0.916  -0.855  0.00  0.00     0.118 C 
ENDROOT
BRANCH   6  20
HETATM   20  C   UNK N   1      -3.696  -0.396  -0.317  0.00  0.00    -0.013 C 
HETATM   21  C   UNK N   1      -3.618  -1.931  -0.271  0.00  0.00     0.010 C 
BRANCH  20  22
HETATM   22  C   UNK N   1      -4.745   0.067  -1.364  0.00  0.00     0.015 C 
BRANCH  22  23
HETATM   23  C   UNK N   1      -6.181  -0.461  -1.159  0.00  0.00     0.110 C 
BRANCH  23  24
HETATM   24  C   UNK N   1      -6.744  -0.139   0.201  0.00  0.00     0.139 C 
HETATM   25  O   UNK N   1      -6.792   1.010   0.591  0.00  0.00    -0.650 OA
BRANCH  24  26
HETATM   26  O   UNK N   1      -7.227  -1.142   0.973  0.00  0.00    -0.776 OA
HETATM   27  H   UNK N   1      -7.640  -0.958   1.829  0.00  0.00     0.167 HD
ENDBRANCH  24  26
ENDBRANCH  23  24
ENDBRANCH  22  23
ENDBRANCH  20  22
ENDBRANCH   6  20
BRANCH   7  28
HETATM   28  O   UNK N   1      -0.157  -1.676  -1.294  0.00  0.00    -0.395 OA
HETATM   29  H   UNK N   1      -0.000  -2.651  -1.395  0.00  0.00     0.210 HD
ENDBRANCH   7  28
BRANCH  11  30
HETATM   30  O   UNK N   1       2.439   2.221  -1.440  0.00  0.00    -0.395 OA
HETATM   31  H   UNK N   1       2.084   1.405  -1.866  0.00  0.00     0.210 HD
ENDBRANCH  11  30
BRANCH  19  32
HETATM   32  O   UNK N   1       5.935  -1.153  -2.170  0.00  0.00    -0.396 OA
HETATM   33  H   UNK N   1       6.479  -1.983  -2.152  0.00  0.00     0.210 HD
ENDBRANCH  19  32
TORSDOF 8
