REMARK  7 active torsions:
REMARK  status: ('A' for Active; 'I' for Inactive)
REMARK    1  A    between atoms: O_1  and  C_11 
REMARK    2  A    between atoms: O_2  and  C_24 
REMARK    3  A    between atoms: O_3  and  C_28 
REMARK    4  A    between atoms: C_10  and  C_20 
REMARK    5  A    between atoms: C_20  and  C_25 
REMARK    6  A    between atoms: C_25  and  C_27 
REMARK    7  A    between atoms: C_27  and  C_28 
ROOT
HETATM    1  C   UNK N   1      -0.973   0.076   0.239  0.00  0.00    -0.010 C 
HETATM    2  C   UNK N   1      -0.006   1.030  -0.509  0.00  0.00     0.001 C 
HETATM    3  C   UNK N   1       1.338   1.227   0.237  0.00  0.00    -0.005 C 
HETATM    4  C   UNK N   1       2.034  -0.170   0.402  0.00  0.00     0.001 C 
HETATM    5  C   UNK N   1       3.430  -0.044   1.140  0.00  0.00    -0.036 C 
HETATM    6  C   UNK N   1      -2.208   0.166  -0.708  0.00  0.00     0.000 C 
HETATM    7  C   UNK N   1      -0.265  -1.318   0.323  0.00  0.00     0.127 C 
HETATM    8  C   UNK N   1       1.079  -1.200   1.070  0.00  0.00     0.038 C 
HETATM    9  C   UNK N   1       4.330   0.981   0.361  0.00  0.00    -0.004 C 
HETATM   10  C   UNK N   1      -0.859   2.259  -0.788  0.00  0.00     0.006 C 
HETATM   11  C   UNK N   1       2.262   2.205  -0.520  0.00  0.00     0.006 C 
HETATM   12  C   UNK N   1      -2.263   1.682  -1.068  0.00  0.00     0.006 C 
HETATM   13  C   UNK N   1       3.616   2.346   0.194  0.00  0.00     0.006 C 
HETATM   14  C   UNK N   1       4.198  -1.404   1.211  0.00  0.00     0.012 C 
HETATM   15  C   UNK N   1      -1.375   0.578   1.667  0.00  0.00     0.018 C 
HETATM   16  C   UNK N   1       4.787   0.425  -1.018  0.00  0.00     0.037 C 
HETATM   17  C   UNK N   1       3.244   0.420   2.616  0.00  0.00     0.016 C 
HETATM   18  C   UNK N   1       4.605  -1.938  -0.167  0.00  0.00     0.032 C 
HETATM   19  C   UNK N   1       5.514  -0.918  -0.872  0.00  0.00     0.118 C 
ENDROOT
BRANCH   6  20
HETATM   20  C   UNK N   1      -3.596  -0.425  -0.264  0.00  0.00    -0.013 C 
HETATM   21  C   UNK N   1      -3.504  -1.917   0.093  0.00  0.00     0.010 C 
BRANCH  20  22
HETATM   22  C   UNK N   1      -4.650  -0.194  -1.381  0.00  0.00     0.015 C 
BRANCH  22  23
HETATM   23  C   UNK N   1      -6.080  -0.685  -1.072  0.00  0.00     0.110 C 
BRANCH  23  24
HETATM   24  C   UNK N   1      -6.650  -0.101   0.195  0.00  0.00     0.139 C 
HETATM   25  O   UNK N   1      -6.718   1.103   0.341  0.00  0.00    -0.650 OA
BRANCH  24  26
HETATM   26  O   UNK N   1      -7.116  -0.932   1.158  0.00  0.00    -0.776 OA
HETATM   27  H   UNK N   1      -7.530  -0.583   1.960  0.00  0.00     0.167 HD
ENDBRANCH  24  26
ENDBRANCH  23  24
ENDBRANCH  22  23
ENDBRANCH  20  22
ENDBRANCH   6  20
BRANCH   7  28
HETATM   28  O   UNK N   1      -0.038  -1.826  -0.971  0.00  0.00    -0.395 OA
HETATM   29  H   UNK N   1       0.181  -2.789  -0.876  0.00  0.00     0.210 HD
ENDBRANCH   7  28
BRANCH  19  30
HETATM   30  O   UNK N   1       5.872  -1.385  -2.146  0.00  0.00    -0.396 OA
HETATM   31  H   UNK N   1       6.439  -2.189  -2.010  0.00  0.00     0.210 HD
ENDBRANCH  19  30
TORSDOF 7
