REMARK  8 active torsions:
REMARK  status: ('A' for Active; 'I' for Inactive)
REMARK    1  A    between atoms: O_4  and  C_15 
REMARK    2  A    between atoms: O_4  and  C_21 
REMARK    3  A    between atoms: O_5  and  C_37 
REMARK    4  A    between atoms: N_7  and  C_23 
REMARK    5  A    between atoms: C_11  and  C_14 
REMARK    6  A    between atoms: C_16  and  C_21 
REMARK    7  A    between atoms: C_22  and  C_24 
REMARK    8  A    between atoms: C_30  and  C_37 
ROOT
HETATM    1  N   UNK N   1       1.061   1.625  -0.841  0.00  0.00    -0.381 N 
HETATM    2  C   UNK N   1      -1.681   2.286  -1.455  0.00  0.00     0.125 C 
HETATM    3  C   UNK N   1      -0.757   3.288  -0.738  0.00  0.00     0.051 C 
HETATM    4  C   UNK N   1      -0.820   1.424  -2.394  0.00  0.00     0.051 C 
HETATM    5  C   UNK N   1       0.359   2.566   0.028  0.00  0.00     0.125 C 
HETATM    6  C   UNK N   1       0.241   0.675  -1.585  0.00  0.00     0.125 C 
ENDROOT
BRANCH   2   7
HETATM    7  O   UNK N   1      -2.350   1.472  -0.497  0.00  0.00    -0.381 OA
BRANCH   7   8
HETATM    8  C   UNK N   1      -3.592   1.030  -1.007  0.00  0.00     0.212 C 
BRANCH   8   9
HETATM    9  C   UNK N   1      -4.304   0.188   0.012  0.00  0.00     0.027 A 
HETATM   10  C   UNK N   1      -5.521   0.444   0.621  0.00  0.00     0.091 A 
HETATM   11  O   UNK N   1      -5.823  -0.578   1.389  0.00  0.00    -0.241 OA
HETATM   12  N   UNK N   1      -4.893  -1.491   1.340  0.00  0.00    -0.260 N 
HETATM   13  C   UNK N   1      -3.935  -1.051   0.504  0.00  0.00     0.079 A 
ATOM     14  HN  UNK N   1      -4.892  -2.378   1.844  1.00  0.00     0.195 HD
BRANCH  10  15
HETATM   15  C   UNK N   1      -6.411   1.642   0.435  0.00  0.00     0.046 A 
HETATM   16  C   UNK N   1      -5.716   2.864   1.029  0.00  0.00     0.012 A 
HETATM   17  C   UNK N   1      -6.988   2.329   1.662  0.00  0.00     0.012 A 
ENDBRANCH  10  15
BRANCH  13  18
HETATM   18  C   UNK N   1      -2.763  -1.861   0.122  0.00  0.00     0.037 A 
HETATM   19  C   UNK N   1      -1.546  -1.740   0.821  0.00  0.00     0.048 A 
HETATM   20 Cl   UNK N   1      -1.368  -0.601   2.151  0.00  0.00    -0.083 Cl
HETATM   21  C   UNK N   1      -0.452  -2.539   0.463  0.00  0.00     0.025 A 
HETATM   22  C   UNK N   1      -0.563  -3.456  -0.585  0.00  0.00     0.003 A 
HETATM   23  C   UNK N   1      -1.767  -3.582  -1.280  0.00  0.00     0.025 A 
HETATM   24  C   UNK N   1      -2.868  -2.793  -0.932  0.00  0.00     0.048 A 
HETATM   25 Cl   UNK N   1      -4.371  -2.990  -1.828  0.00  0.00    -0.083 Cl
ENDBRANCH  13  18
ENDBRANCH   8   9
ENDBRANCH   7   8
ENDBRANCH   2   7
BRANCH   1  26
HETATM   26  C   UNK N   1       2.403   1.257  -0.496  0.00  0.00     0.032 A 
HETATM   27  C   UNK N   1       2.755  -0.106  -0.341  0.00  0.00     0.059 A 
HETATM   28  C   UNK N   1       4.067  -0.422  -0.004  0.00  0.00     0.047 A 
HETATM   29  N   UNK N   1       4.585  -1.646   0.213  0.00  0.00    -0.359 N 
HETATM   30  C   UNK N   1       5.030   0.541   0.152  0.00  0.00     0.009 A 
HETATM   31  C   UNK N   1       5.896  -1.477   0.495  0.00  0.00     0.110 A 
HETATM   32  C   UNK N   1       3.870  -2.919   0.169  0.00  0.00     0.156 C 
HETATM   33  C   UNK N   1       6.211  -0.122   0.461  0.00  0.00     0.065 A 
HETATM   34  C   UNK N   1       4.727   1.896   0.002  0.00  0.00     0.017 A 
HETATM   35  C   UNK N   1       3.400   2.254  -0.310  0.00  0.00     0.030 A 
BRANCH  33  36
HETATM   36  C   UNK N   1       7.551   0.442   0.713  0.00  0.00     0.178 C 
HETATM   37  O   UNK N   1       7.739   1.647   0.654  0.00  0.00    -0.646 OA
BRANCH  36  38
HETATM   38  O   UNK N   1       8.579  -0.386   1.001  0.00  0.00    -0.773 OA
HETATM   39  H   UNK N   1       9.469  -0.045   1.164  0.00  0.00     0.167 HD
ENDBRANCH  36  38
ENDBRANCH  33  36
ENDBRANCH   1  26
TORSDOF 8
