REMARK  8 active torsions:
REMARK  status: ('A' for Active; 'I' for Inactive)
REMARK    1  A    between atoms: O_1  and  C_12 
REMARK    2  A    between atoms: O_2  and  C_24 
REMARK    3  A    between atoms: O_3  and  C_30 
REMARK    4  A    between atoms: C_11  and  C_22 
REMARK    5  A    between atoms: C_15  and  C_25 
REMARK    6  A    between atoms: C_22  and  C_26 
REMARK    7  A    between atoms: C_26  and  C_29 
REMARK    8  A    between atoms: C_29  and  C_30 
ROOT
HETATM    1  C   UNK N   1      -0.931  -0.604   0.727  0.00  0.00     0.024 C 
HETATM    2  C   UNK N   1      -1.480   0.774   0.235  0.00  0.00     0.001 C 
HETATM    3  C   UNK N   1       0.575  -0.688   0.372  0.00  0.00     0.001 C 
HETATM    4  C   UNK N   1       1.406   0.437   1.033  0.00  0.00    -0.036 C 
HETATM    5  C   UNK N   1      -3.019   0.963   0.533  0.00  0.00    -0.036 C 
HETATM    6  C   UNK N   1      -3.853  -0.299   0.046  0.00  0.00     0.003 C 
HETATM    7  C   UNK N   1       2.814   0.029   0.534  0.00  0.00    -0.002 C 
HETATM    8  C   UNK N   1      -1.732  -1.769   0.102  0.00  0.00     0.127 C 
HETATM    9  C   UNK N   1      -0.620   1.958   0.771  0.00  0.00     0.007 C 
HETATM   10  C   UNK N   1       0.871   1.779   0.459  0.00  0.00     0.010 C 
HETATM   11  C   UNK N   1      -3.218  -1.652   0.509  0.00  0.00     0.019 C 
HETATM   12  C   UNK N   1       1.338  -1.955   0.730  0.00  0.00     0.006 C 
HETATM   13  C   UNK N   1       2.816  -1.520   0.683  0.00  0.00     0.006 C 
HETATM   14  C   UNK N   1      -3.481   2.270  -0.227  0.00  0.00     0.012 C 
HETATM   15  C   UNK N   1      -4.144  -0.174  -1.461  0.00  0.00     0.037 C 
HETATM   16  C   UNK N   1       1.367   0.435   2.596  0.00  0.00     0.016 C 
HETATM   17  C   UNK N   1      -3.294   1.142   2.055  0.00  0.00     0.016 C 
HETATM   18  C   UNK N   1      -4.931   2.171  -0.673  0.00  0.00     0.032 C 
HETATM   19  C   UNK N   1      -5.079   1.039  -1.729  0.00  0.00     0.118 C 
ENDROOT
BRANCH   7  20
HETATM   20  C   UNK N   1       4.095   0.709   1.124  0.00  0.00    -0.013 C 
HETATM   21  C   UNK N   1       4.080   2.240   0.986  0.00  0.00     0.010 C 
BRANCH  20  22
HETATM   22  C   UNK N   1       5.394   0.128   0.505  0.00  0.00     0.015 C 
BRANCH  22  23
HETATM   23  C   UNK N   1       5.507   0.302  -1.023  0.00  0.00     0.110 C 
BRANCH  23  24
HETATM   24  C   UNK N   1       6.768  -0.293  -1.589  0.00  0.00     0.139 C 
HETATM   25  O   UNK N   1       7.586  -0.838  -0.872  0.00  0.00    -0.650 OA
BRANCH  24  26
HETATM   26  O   UNK N   1       6.974  -0.226  -2.924  0.00  0.00    -0.776 OA
HETATM   27  H   UNK N   1       7.766  -0.612  -3.325  0.00  0.00     0.167 HD
ENDBRANCH  24  26
ENDBRANCH  23  24
ENDBRANCH  22  23
ENDBRANCH  20  22
ENDBRANCH   7  20
BRANCH   8  28
HETATM   28  O   UNK N   1      -1.580  -1.780  -1.297  0.00  0.00    -0.395 OA
HETATM   29  H   UNK N   1      -1.740  -2.710  -1.603  0.00  0.00     0.210 HD
ENDBRANCH   8  28
BRANCH  11  30
HETATM   30  C   UNK N   1      -4.015  -2.910   0.079  0.00  0.00     0.003 C 
HETATM   31  C   UNK N   1      -5.459  -2.906   0.585  0.00  0.00     0.005 C 
ENDBRANCH  11  30
BRANCH  19  32
HETATM   32  O   UNK N   1      -4.802   1.512  -3.021  0.00  0.00    -0.396 OA
HETATM   33  H   UNK N   1      -5.538   2.131  -3.268  0.00  0.00     0.210 HD
ENDBRANCH  19  32
TORSDOF 8
