REMARK  7 active torsions:
REMARK  status: ('A' for Active; 'I' for Inactive)
REMARK    1  A    between atoms: O_1  and  C_11 
REMARK    2  A    between atoms: O_2  and  C_17 
REMARK    3  A    between atoms: O_4  and  C_23 
REMARK    4  A    between atoms: C_8  and  C_17 
REMARK    5  A    between atoms: C_9  and  C_19 
REMARK    6  A    between atoms: C_19  and  C_21 
REMARK    7  A    between atoms: C_21  and  C_22 
ROOT
HETATM    1  C   UNK N   1      -1.231   0.298  -0.129  0.00  0.00    -0.032 C 
HETATM    2  C   UNK N   1      -2.375  -0.719   0.339  0.00  0.00     0.007 C 
HETATM    3  C   UNK N   1      -3.881  -0.205   0.253  0.00  0.00     0.008 C 
HETATM    4  C   UNK N   1       0.159  -0.310   0.337  0.00  0.00     0.025 C 
HETATM    5  C   UNK N   1      -1.486   1.656   0.585  0.00  0.00     0.012 C 
HETATM    6  C   UNK N   1      -3.944   1.201   0.942  0.00  0.00     0.128 C 
HETATM    7  C   UNK N   1      -2.155  -2.129  -0.284  0.00  0.00     0.010 C 
HETATM    8  C   UNK N   1      -2.913   2.189   0.371  0.00  0.00     0.033 C 
HETATM    9  C   UNK N   1      -1.162   0.543  -1.669  0.00  0.00     0.016 C 
HETATM   10  C   UNK N   1      -0.792  -2.697   0.113  0.00  0.00     0.034 C 
HETATM   11  C   UNK N   1       0.286  -1.722  -0.258  0.00  0.00    -0.084 C 
HETATM   12  C   UNK N   1      -4.792  -1.162   1.080  0.00  0.00     0.020 C 
HETATM   13  C   UNK N   1       1.273  -2.114  -1.093  0.00  0.00     0.015 C 
ENDROOT
BRANCH   4  14
HETATM   14  C   UNK N   1       1.407   0.582   0.066  0.00  0.00     0.037 C 
BRANCH  14  15
HETATM   15  C   UNK N   1       2.640   0.001   0.724  0.00  0.00    -0.010 C 
BRANCH  15  16
HETATM   16  C   UNK N   1       3.882   0.397   0.395  0.00  0.00     0.044 C 
HETATM   17  C   UNK N   1       4.264   1.355  -0.682  0.00  0.00     0.181 C 
HETATM   18  C   UNK N   1       5.804   1.493  -0.436  0.00  0.00     0.215 C 
HETATM   19  O   UNK N   1       6.166   0.476   0.433  0.00  0.00    -0.315 OA
HETATM   20  C   UNK N   1       5.096  -0.122   0.960  0.00  0.00     0.291 C 
HETATM   21  O   UNK N   1       5.167  -0.995   1.808  0.00  0.00    -0.260 OA
BRANCH  17  22
HETATM   22  O   UNK N   1       4.007   0.720  -1.909  0.00  0.00    -0.389 OA
HETATM   23  H   UNK N   1       4.363   1.308  -2.623  0.00  0.00     0.210 HD
ENDBRANCH  17  22
ENDBRANCH  15  16
ENDBRANCH  14  15
ENDBRANCH   4  14
BRANCH   3  24
HETATM   24  C   UNK N   1      -4.462  -0.177  -1.199  0.00  0.00     0.176 C 
BRANCH  24  25
HETATM   25  O   UNK N   1      -5.825   0.160  -1.194  0.00  0.00    -0.400 OA
HETATM   26  H   UNK N   1      -6.125   0.139  -2.141  0.00  0.00     0.209 HD
ENDBRANCH  24  25
ENDBRANCH   3  24
BRANCH   6  27
HETATM   27  O   UNK N   1      -5.235   1.748   0.847  0.00  0.00    -0.395 OA
HETATM   28  H   UNK N   1      -5.300   2.466   1.529  0.00  0.00     0.210 HD
ENDBRANCH   6  27
TORSDOF 7
