REMARK  10 active torsions:
REMARK  status: ('A' for Active; 'I' for Inactive)
REMARK    1  A    between atoms: O_4  and  C_17 
REMARK    2  A    between atoms: O_6  and  C_24 
REMARK    3  A    between atoms: O_6  and  C_28 
REMARK    4  A    between atoms: O_7  and  C_38 
REMARK    5  A    between atoms: N_9  and  C_23 
REMARK    6  A    between atoms: C_14  and  C_20 
REMARK    7  A    between atoms: C_17  and  C_21 
REMARK    8  A    between atoms: C_22  and  C_24 
REMARK    9  A    between atoms: C_25  and  C_32 
REMARK   10  A    between atoms: C_33  and  C_38 
ROOT
HETATM    1 Cl   UNK N   1       1.185   2.235  -3.003  0.00  0.00    -0.084 Cl
HETATM    2  C   UNK N   1       1.457   1.117  -0.475  0.00  0.00     0.001 A 
HETATM    3  C   UNK N   1       0.611   1.361  -1.585  0.00  0.00     0.046 A 
HETATM    4  C   UNK N   1       0.934   0.428   0.631  0.00  0.00     0.015 A 
HETATM    5  C   UNK N   1      -1.226   0.210  -0.466  0.00  0.00     0.070 A 
HETATM    6  C   UNK N   1      -0.720   0.906  -1.573  0.00  0.00     0.061 A 
HETATM    7  C   UNK N   1      -0.380  -0.021   0.636  0.00  0.00     0.037 A 
ENDROOT
BRANCH   5   8
HETATM    8  O   UNK N   1      -2.517  -0.233  -0.480  0.00  0.00    -0.346 OA
BRANCH   8   9
HETATM    9  C   UNK N   1      -3.046  -1.025   0.524  0.00  0.00     0.219 C 
BRANCH   9  10
HETATM   10  C   UNK N   1      -4.460  -1.432   0.249  0.00  0.00     0.028 A 
HETATM   11  C   UNK N   1      -4.937  -2.715   0.051  0.00  0.00     0.091 A 
HETATM   12  O   UNK N   1      -6.244  -2.656  -0.067  0.00  0.00    -0.241 OA
HETATM   13  N   UNK N   1      -6.667  -1.424   0.033  0.00  0.00    -0.260 N 
HETATM   14  C   UNK N   1      -5.589  -0.641   0.223  0.00  0.00     0.079 A 
ATOM     15  HN  UNK N   1      -7.636  -1.113  -0.022  1.00  0.00     0.195 HD
BRANCH  11  16
HETATM   16  C   UNK N   1      -4.141  -3.991   0.016  0.00  0.00     0.046 A 
HETATM   17  C   UNK N   1      -3.250  -3.957  -1.224  0.00  0.00     0.012 A 
HETATM   18  C   UNK N   1      -4.367  -4.978  -1.116  0.00  0.00     0.012 A 
ENDBRANCH  11  16
BRANCH  14  19
HETATM   19  C   UNK N   1      -5.671   0.806   0.489  0.00  0.00     0.037 A 
HETATM   20  C   UNK N   1      -5.600   1.734  -0.568  0.00  0.00     0.048 A 
HETATM   21 Cl   UNK N   1      -5.384   1.201  -2.232  0.00  0.00    -0.083 Cl
HETATM   22  C   UNK N   1      -5.706   3.104  -0.301  0.00  0.00     0.025 A 
HETATM   23  C   UNK N   1      -5.882   3.556   1.009  0.00  0.00     0.003 A 
HETATM   24  C   UNK N   1      -5.951   2.642   2.061  0.00  0.00     0.025 A 
HETATM   25  C   UNK N   1      -5.848   1.269   1.810  0.00  0.00     0.048 A 
HETATM   26 Cl   UNK N   1      -5.948   0.148   3.165  0.00  0.00    -0.083 Cl
ENDBRANCH  14  19
ENDBRANCH   9  10
ENDBRANCH   8   9
ENDBRANCH   5   8
BRANCH   2  27
HETATM   27  C   UNK N   1       2.893   1.626  -0.448  0.00  0.00     0.118 A 
HETATM   28  C   UNK N   1       3.871   1.062  -1.537  0.00  0.00     0.169 A 
HETATM   29  N   UNK N   1       4.722   0.715  -0.460  0.00  0.00    -0.361 N 
HETATM   30  C   UNK N   1       3.894   1.063   0.631  0.00  0.00     0.169 A 
BRANCH  27  31
HETATM   31  O   UNK N   1       2.939   3.030  -0.468  0.00  0.00    -0.382 OA
HETATM   32  H   UNK N   1       2.624   3.333   0.424  0.00  0.00     0.211 HD
ENDBRANCH  27  31
BRANCH  29  33
HETATM   33  C   UNK N   1       6.015   0.126  -0.464  0.00  0.00     0.104 A 
HETATM   34  N   UNK N   1       6.616  -0.187  -1.644  0.00  0.00    -0.352 N 
HETATM   35  C   UNK N   1       7.860  -0.735  -1.689  0.00  0.00     0.090 A 
ATOM     36  HN  UNK N   1       6.121  -0.006  -2.517  1.00  0.00     0.166 HD
HETATM   37  C   UNK N   1       8.562  -0.986  -0.507  0.00  0.00     0.035 A 
HETATM   38  C   UNK N   1       7.975  -0.674   0.728  0.00  0.00     0.042 A 
HETATM   39  C   UNK N   1       6.688  -0.116   0.745  0.00  0.00     0.066 A 
BRANCH  38  40
HETATM   40  C   UNK N   1       8.707  -0.921   1.996  0.00  0.00     0.176 C 
HETATM   41  O   UNK N   1       8.191  -0.642   3.070  0.00  0.00    -0.646 OA
BRANCH  40  42
HETATM   42  O   UNK N   1       9.951  -1.447   1.971  0.00  0.00    -0.773 OA
HETATM   43  H   UNK N   1      10.443  -1.606   2.790  0.00  0.00     0.167 HD
ENDBRANCH  40  42
ENDBRANCH  38  40
ENDBRANCH  29  33
ENDBRANCH   2  27
TORSDOF 10
