REMARK  6 active torsions:
REMARK  status: ('A' for Active; 'I' for Inactive)
REMARK    1  A    between atoms: O_3  and  C_13 
REMARK    2  A    between atoms: O_5  and  C_23 
REMARK       I    between atoms: N_6  and  C_12 
REMARK    3  A    between atoms: N_6  and  C_14 
REMARK    4  A    between atoms: C_10  and  C_12 
REMARK    5  A    between atoms: C_11  and  C_13 
REMARK    6  A    between atoms: C_15  and  C_20 
ROOT
HETATM    1  F   UNK N   1      -0.251   1.547   1.896  0.00  0.00    -0.204 F 
HETATM    2  C   UNK N   1      -0.609  -0.209   0.300  0.00  0.00     0.074 A 
HETATM    3  C   UNK N   1       2.219  -0.404   0.020  0.00  0.00    -0.023 A 
HETATM    4  C   UNK N   1       0.254   0.632   1.030  0.00  0.00     0.143 A 
HETATM    5  C   UNK N   1      -0.031  -1.156  -0.574  0.00  0.00     0.034 A 
HETATM    6  C   UNK N   1       1.639   0.539   0.890  0.00  0.00     0.057 A 
HETATM    7  C   UNK N   1       1.358  -1.253  -0.705  0.00  0.00     0.014 A 
ENDROOT
BRANCH   2   8
HETATM    8  N   UNK N   1      -2.030  -0.047   0.485  0.00  0.00    -0.321 N 
HETATM    9  C   UNK N   1      -3.024  -0.859   0.008  0.00  0.00     0.253 C 
HETATM   10  O   UNK N   1      -2.787  -1.869  -0.627  0.00  0.00    -0.268 OA
HETATM   11  H   UNK N   1      -2.333   0.730   1.088  0.00  0.00     0.169 HD
BRANCH   9  12
HETATM   12  C   UNK N   1      -4.420  -0.566   0.389  0.00  0.00     0.023 C 
HETATM   13  C   UNK N   1      -5.171  -1.435   1.337  0.00  0.00     0.045 C 
HETATM   14  C   UNK N   1      -6.333  -0.509   1.696  0.00  0.00     0.010 C 
HETATM   15  C   UNK N   1      -6.582   0.322   0.438  0.00  0.00     0.046 C 
HETATM   16  C   UNK N   1      -5.199   0.395  -0.124  0.00  0.00     0.027 C 
BRANCH  16  17
HETATM   17  C   UNK N   1      -4.833   1.339  -1.211  0.00  0.00     0.172 C 
HETATM   18  O   UNK N   1      -3.713   1.329  -1.700  0.00  0.00    -0.646 OA
BRANCH  17  19
HETATM   19  O   UNK N   1      -5.762   2.200  -1.682  0.00  0.00    -0.773 OA
HETATM   20  H   UNK N   1      -5.561   2.812  -2.404  0.00  0.00     0.167 HD
ENDBRANCH  17  19
ENDBRANCH  16  17
ENDBRANCH   9  12
ENDBRANCH   2   8
BRANCH   3  21
HETATM   21  C   UNK N   1       3.714  -0.495  -0.140  0.00  0.00    -0.023 A 
HETATM   22  C   UNK N   1       4.546   0.604   0.178  0.00  0.00     0.049 A 
HETATM   23  C   UNK N   1       5.934   0.535   0.012  0.00  0.00     0.069 A 
HETATM   24  C   UNK N   1       6.514  -0.657  -0.461  0.00  0.00     0.037 A 
HETATM   25  C   UNK N   1       5.708  -1.751  -0.771  0.00  0.00     0.004 A 
HETATM   26  C   UNK N   1       4.323  -1.674  -0.621  0.00  0.00     0.012 A 
BRANCH  23  27
HETATM   27  O   UNK N   1       6.677   1.635   0.308  0.00  0.00    -0.356 OA
HETATM   28  C   UNK N   1       8.045   1.735   0.158  0.00  0.00     0.210 C 
ENDBRANCH  23  27
ENDBRANCH   3  21
TORSDOF 6
