REMARK  9 active torsions:
REMARK  status: ('A' for Active; 'I' for Inactive)
REMARK    1  A    between atoms: O_5  and  C_14 
REMARK    2  A    between atoms: O_5  and  C_20 
REMARK    3  A    between atoms: O_6  and  C_37 
REMARK    4  A    between atoms: C_10  and  C_11 
REMARK    5  A    between atoms: C_12  and  C_14 
REMARK    6  A    between atoms: C_13  and  C_17 
REMARK    7  A    between atoms: C_26  and  C_29 
REMARK    8  A    between atoms: C_30  and  C_31 
REMARK    9  A    between atoms: C_34  and  C_37 
ROOT
HETATM    1 Cl   UNK N   1      -2.202  -0.017   3.118  0.00  0.00    -0.083 Cl
HETATM    2  C   UNK N   1       0.720   0.583   0.391  0.00  0.00     0.070 A 
HETATM    3  C   UNK N   1       0.019   0.372   1.585  0.00  0.00     0.061 A 
HETATM    4  C   UNK N   1       0.000   0.684  -0.817  0.00  0.00     0.037 A 
HETATM    5  C   UNK N   1      -2.096   0.356   0.377  0.00  0.00    -0.014 A 
HETATM    6  C   UNK N   1      -1.376   0.239   1.584  0.00  0.00     0.047 A 
HETATM    7  C   UNK N   1      -1.392   0.586  -0.819  0.00  0.00     0.016 A 
ENDROOT
BRANCH   2   8
HETATM    8  O   UNK N   1       2.078   0.676   0.435  0.00  0.00    -0.346 OA
BRANCH   8   9
HETATM    9  C   UNK N   1       2.893   0.804  -0.674  0.00  0.00     0.219 C 
BRANCH   9  10
HETATM   10  C   UNK N   1       4.330   0.877  -0.252  0.00  0.00     0.028 A 
HETATM   11  C   UNK N   1       5.107   1.998  -0.021  0.00  0.00     0.090 A 
HETATM   12  O   UNK N   1       6.315   1.601   0.316  0.00  0.00    -0.241 OA
HETATM   13  N   UNK N   1       6.391   0.297   0.333  0.00  0.00    -0.260 N 
HETATM   14  C   UNK N   1       5.184  -0.180  -0.015  0.00  0.00     0.079 A 
ATOM     15  HN  UNK N   1       7.215  -0.256   0.568  1.00  0.00     0.195 HD
BRANCH  11  16
HETATM   16  C   UNK N   1       4.693   3.445  -0.104  0.00  0.00     0.038 C 
HETATM   17  C   UNK N   1       4.952   4.134   1.239  0.00  0.00     0.016 C 
HETATM   18  C   UNK N   1       5.458   4.143  -1.230  0.00  0.00     0.016 C 
ENDBRANCH  11  16
BRANCH  14  19
HETATM   19  C   UNK N   1       4.871  -1.614  -0.130  0.00  0.00     0.037 A 
HETATM   20  C   UNK N   1       4.921  -2.256  -1.385  0.00  0.00     0.048 A 
HETATM   21 Cl   UNK N   1       5.361  -1.374  -2.844  0.00  0.00    -0.083 Cl
HETATM   22  C   UNK N   1       4.631  -3.622  -1.481  0.00  0.00     0.025 A 
HETATM   23  C   UNK N   1       4.285  -4.349  -0.340  0.00  0.00     0.003 A 
HETATM   24  C   UNK N   1       4.231  -3.718   0.904  0.00  0.00     0.025 A 
HETATM   25  C   UNK N   1       4.525  -2.355   1.017  0.00  0.00     0.048 A 
HETATM   26 Cl   UNK N   1       4.439  -1.591   2.601  0.00  0.00    -0.083 Cl
ENDBRANCH  14  19
ENDBRANCH   9  10
ENDBRANCH   8   9
ENDBRANCH   2   8
BRANCH   5  27
HETATM   27  C   UNK N   1      -3.576   0.217   0.360  0.00  0.00     0.014 C 
HETATM   28  C   UNK N   1      -4.344   0.969  -0.452  0.00  0.00     0.012 C 
BRANCH  28  29
HETATM   29  C   UNK N   1      -5.826   0.862  -0.527  0.00  0.00    -0.035 A 
HETATM   30  C   UNK N   1      -6.520  -0.292  -0.109  0.00  0.00     0.029 A 
HETATM   31  C   UNK N   1      -7.918  -0.378  -0.255  0.00  0.00     0.038 A 
HETATM   32  C   UNK N   1      -8.621   0.713  -0.793  0.00  0.00     0.018 A 
HETATM   33  C   UNK N   1      -7.939   1.863  -1.191  0.00  0.00     0.002 A 
HETATM   34  C   UNK N   1      -6.551   1.934  -1.072  0.00  0.00     0.011 A 
BRANCH  31  35
HETATM   35  C   UNK N   1      -8.642  -1.616   0.128  0.00  0.00     0.176 C 
HETATM   36  O   UNK N   1      -8.033  -2.568   0.596  0.00  0.00    -0.646 OA
BRANCH  35  37
HETATM   37  O   UNK N   1      -9.976  -1.710  -0.066  0.00  0.00    -0.773 OA
HETATM   38  H   UNK N   1     -10.458  -2.520   0.152  0.00  0.00     0.167 HD
ENDBRANCH  35  37
ENDBRANCH  31  35
ENDBRANCH  28  29
ENDBRANCH   5  27
TORSDOF 9
