MODEL 1
REMARK VINA RESULT:      -6.6      0.000      0.000
REMARK  10 active torsions:
REMARK  status: ('A' for Active; 'I' for Inactive)
REMARK    1  A    between atoms: C_6  and  C_10 
REMARK    2  A    between atoms: C_7  and  O_8 
REMARK    3  A    between atoms: C_12  and  O_13 
REMARK    4  A    between atoms: C_17  and  C_18 
REMARK    5  A    between atoms: C_20  and  O_21 
REMARK    6  A    between atoms: C_23  and  O_24 
REMARK    7  A    between atoms: C_28  and  C_29 
REMARK    8  A    between atoms: C_29  and  O_30 
REMARK    9  A    between atoms: C_35  and  O_36 
REMARK   10  A    between atoms: C_39  and  O_40 
ROOT
HETATM    1  C   UNK N   1      33.089  43.737  61.701  0.00  0.00    -0.023 A 
HETATM    2  C   UNK N   1      34.222  43.322  60.953  0.00  0.00     0.049 A 
HETATM    3  C   UNK N   1      34.122  43.087  59.569  0.00  0.00     0.100 A 
HETATM    4  C   UNK N   1      32.893  43.295  58.952  0.00  0.00     0.109 A 
HETATM    5  O   UNK N   1      32.631  43.152  57.652  0.00  0.00    -0.337 OA
HETATM    6  C   UNK N   1      31.374  43.661  57.363  0.00  0.00     0.172 C 
HETATM    7  C   UNK N   1      30.629  43.751  58.739  0.00  0.00     0.079 C 
HETATM    8  C   UNK N   1      31.799  43.690  59.652  0.00  0.00    -0.012 A 
HETATM    9  C   UNK N   1      31.850  43.900  61.030  0.00  0.00     0.020 A 
ENDROOT
BRANCH   1  10
HETATM   10  C   UNK N   1      33.267  43.971  63.199  0.00  0.00     0.198 C 
HETATM   11  O   UNK N   1      34.624  43.968  63.488  0.00  0.00    -0.337 OA
HETATM   12  C   UNK N   1      35.426  45.030  63.205  0.00  0.00     0.089 A 
HETATM   13  C   UNK N   1      34.881  46.336  63.083  0.00  0.00     0.079 A 
HETATM   14  C   UNK N   1      36.799  44.822  63.048  0.00  0.00     0.074 A 
HETATM   15  C   UNK N   1      33.411  46.478  63.350  0.00  0.00     0.196 C 
HETATM   16  C   UNK N   1      35.757  47.421  62.772  0.00  0.00     0.085 A 
HETATM   17  O   UNK N   1      32.868  47.569  63.394  0.00  0.00    -0.289 OA
HETATM   18  C   UNK N   1      32.622  45.259  63.761  0.00  0.00     0.227 C 
HETATM   19  C   UNK N   1      37.126  47.175  62.612  0.00  0.00     0.074 A 
HETATM   20  C   UNK N   1      37.648  45.889  62.752  0.00  0.00     0.071 A 
BRANCH  18  21
HETATM   21  O   UNK N   1      32.537  45.213  65.164  0.00  0.00    -0.385 OA
HETATM   22  H   UNK N   1      31.575  45.192  65.412  0.00  0.00     0.210 HD
ENDBRANCH  18  21
BRANCH  16  23
HETATM   23  O   UNK N   1      35.341  48.701  62.626  0.00  0.00    -0.360 OA
HETATM   24  H   UNK N   1      35.642  49.317  61.952  0.00  0.00     0.217 HD
ENDBRANCH  16  23
BRANCH  20  25
HETATM   25  O   UNK N   1      38.974  45.692  62.597  0.00  0.00    -0.361 OA
HETATM   26  H   UNK N   1      39.625  46.348  62.886  0.00  0.00     0.217 HD
ENDBRANCH  20  25
ENDBRANCH   1  10
BRANCH   3  27
HETATM   27  O   UNK N   1      35.185  42.674  58.850  0.00  0.00    -0.358 OA
HETATM   28  H   UNK N   1      36.054  42.547  59.257  0.00  0.00     0.218 HD
ENDBRANCH   3  27
BRANCH   7  29
HETATM   29  C   UNK N   1      29.737  44.996  58.884  0.00  0.00     0.176 C 
BRANCH  29  30
HETATM   30  O   UNK N   1      30.063  45.974  57.933  0.00  0.00    -0.400 OA
HETATM   31  H   UNK N   1      30.124  45.518  57.052  0.00  0.00     0.209 HD
ENDBRANCH  29  30
ENDBRANCH   7  29
BRANCH   6  32
HETATM   32  C   UNK N   1      30.613  42.885  56.323  0.00  0.00    -0.025 A 
HETATM   33  C   UNK N   1      29.217  42.843  56.400  0.00  0.00     0.049 A 
HETATM   34  C   UNK N   1      28.464  42.113  55.463  0.00  0.00     0.101 A 
HETATM   35  C   UNK N   1      29.134  41.431  54.428  0.00  0.00     0.099 A 
HETATM   36  C   UNK N   1      30.532  41.479  54.350  0.00  0.00     0.040 A 
HETATM   37  C   UNK N   1      31.271  42.197  55.294  0.00  0.00     0.012 A 
BRANCH  34  38
HETATM   38  O   UNK N   1      27.106  42.048  55.538  0.00  0.00    -0.353 OA
HETATM   39  C   UNK N   1      26.242  43.027  55.084  0.00  0.00     0.210 C 
ENDBRANCH  34  38
BRANCH  35  40
HETATM   40  O   UNK N   1      28.449  40.725  53.504  0.00  0.00    -0.358 OA
HETATM   41  H   UNK N   1      28.564  39.771  53.393  0.00  0.00     0.218 HD
ENDBRANCH  35  40
ENDBRANCH   6  32
TORSDOF 10
ENDMDL
MODEL 2
REMARK VINA RESULT:      -6.5      4.760      9.749
REMARK  10 active torsions:
REMARK  status: ('A' for Active; 'I' for Inactive)
REMARK    1  A    between atoms: C_6  and  C_10 
REMARK    2  A    between atoms: C_7  and  O_8 
REMARK    3  A    between atoms: C_12  and  O_13 
REMARK    4  A    between atoms: C_17  and  C_18 
REMARK    5  A    between atoms: C_20  and  O_21 
REMARK    6  A    between atoms: C_23  and  O_24 
REMARK    7  A    between atoms: C_28  and  C_29 
REMARK    8  A    between atoms: C_29  and  O_30 
REMARK    9  A    between atoms: C_35  and  O_36 
REMARK   10  A    between atoms: C_39  and  O_40 
ROOT
HETATM    1  C   UNK N   1      29.523  42.886  56.893  0.00  0.00    -0.023 A 
HETATM    2  C   UNK N   1      30.890  43.260  56.812  0.00  0.00     0.049 A 
HETATM    3  C   UNK N   1      31.333  44.482  57.352  0.00  0.00     0.100 A 
HETATM    4  C   UNK N   1      30.403  45.299  57.985  0.00  0.00     0.109 A 
HETATM    5  O   UNK N   1      30.657  46.468  58.575  0.00  0.00    -0.337 OA
HETATM    6  C   UNK N   1      29.546  46.887  59.293  0.00  0.00     0.172 C 
HETATM    7  C   UNK N   1      28.342  46.059  58.727  0.00  0.00     0.079 C 
HETATM    8  C   UNK N   1      29.092  44.959  58.069  0.00  0.00    -0.012 A 
HETATM    9  C   UNK N   1      28.609  43.773  57.517  0.00  0.00     0.020 A 
ENDROOT
BRANCH   1  10
HETATM   10  C   UNK N   1      29.109  41.549  56.284  0.00  0.00     0.198 C 
HETATM   11  O   UNK N   1      27.800  41.654  55.839  0.00  0.00    -0.337 OA
HETATM   12  C   UNK N   1      27.476  42.303  54.687  0.00  0.00     0.089 A 
HETATM   13  C   UNK N   1      28.436  42.460  53.652  0.00  0.00     0.079 A 
HETATM   14  C   UNK N   1      26.182  42.805  54.531  0.00  0.00     0.074 A 
HETATM   15  C   UNK N   1      29.773  41.816  53.872  0.00  0.00     0.196 C 
HETATM   16  C   UNK N   1      28.059  43.159  52.464  0.00  0.00     0.085 A 
HETATM   17  O   UNK N   1      30.624  41.784  52.998  0.00  0.00    -0.289 OA
HETATM   18  C   UNK N   1      30.004  41.025  55.137  0.00  0.00     0.227 C 
HETATM   19  C   UNK N   1      26.756  43.658  52.344  0.00  0.00     0.074 A 
HETATM   20  C   UNK N   1      25.821  43.481  53.364  0.00  0.00     0.071 A 
BRANCH  18  21
HETATM   21  O   UNK N   1      29.760  39.664  54.884  0.00  0.00    -0.385 OA
HETATM   22  H   UNK N   1      28.891  39.425  55.301  0.00  0.00     0.210 HD
ENDBRANCH  18  21
BRANCH  16  23
HETATM   23  O   UNK N   1      28.896  43.370  51.422  0.00  0.00    -0.360 OA
HETATM   24  H   UNK N   1      29.746  43.818  51.464  0.00  0.00     0.217 HD
ENDBRANCH  16  23
BRANCH  20  25
HETATM   25  O   UNK N   1      24.573  43.970  53.209  0.00  0.00    -0.361 OA
HETATM   26  H   UNK N   1      24.078  43.856  52.384  0.00  0.00     0.217 HD
ENDBRANCH  20  25
ENDBRANCH   1  10
BRANCH   3  27
HETATM   27  O   UNK N   1      32.625  44.858  57.266  0.00  0.00    -0.358 OA
HETATM   28  H   UNK N   1      33.107  44.830  56.427  0.00  0.00     0.218 HD
ENDBRANCH   3  27
BRANCH   7  29
HETATM   29  C   UNK N   1      27.327  45.624  59.798  0.00  0.00     0.176 C 
BRANCH  29  30
HETATM   30  O   UNK N   1      27.951  45.403  61.035  0.00  0.00    -0.400 OA
HETATM   31  H   UNK N   1      28.512  44.589  60.940  0.00  0.00     0.209 HD
ENDBRANCH  29  30
ENDBRANCH   7  29
BRANCH   6  32
HETATM   32  C   UNK N   1      29.313  48.373  59.267  0.00  0.00    -0.025 A 
HETATM   33  C   UNK N   1      29.512  49.066  58.068  0.00  0.00     0.049 A 
HETATM   34  C   UNK N   1      29.327  50.458  57.999  0.00  0.00     0.101 A 
HETATM   35  C   UNK N   1      28.923  51.153  59.157  0.00  0.00     0.099 A 
HETATM   36  C   UNK N   1      28.720  50.457  60.355  0.00  0.00     0.040 A 
HETATM   37  C   UNK N   1      28.919  49.074  60.415  0.00  0.00     0.012 A 
BRANCH  34  38
HETATM   38  O   UNK N   1      29.536  51.147  56.843  0.00  0.00    -0.353 OA
HETATM   39  C   UNK N   1      30.338  50.718  55.802  0.00  0.00     0.210 C 
ENDBRANCH  34  38
BRANCH  35  40
HETATM   40  O   UNK N   1      28.727  52.488  59.132  0.00  0.00    -0.358 OA
HETATM   41  H   UNK N   1      29.126  53.081  59.785  0.00  0.00     0.218 HD
ENDBRANCH  35  40
ENDBRANCH   6  32
TORSDOF 10
ENDMDL
MODEL 3
REMARK VINA RESULT:      -6.3     14.171     19.621
REMARK  10 active torsions:
REMARK  status: ('A' for Active; 'I' for Inactive)
REMARK    1  A    between atoms: C_6  and  C_10 
REMARK    2  A    between atoms: C_7  and  O_8 
REMARK    3  A    between atoms: C_12  and  O_13 
REMARK    4  A    between atoms: C_17  and  C_18 
REMARK    5  A    between atoms: C_20  and  O_21 
REMARK    6  A    between atoms: C_23  and  O_24 
REMARK    7  A    between atoms: C_28  and  C_29 
REMARK    8  A    between atoms: C_29  and  O_30 
REMARK    9  A    between atoms: C_35  and  O_36 
REMARK   10  A    between atoms: C_39  and  O_40 
ROOT
HETATM    1  C   UNK N   1      48.519  53.164  60.759  0.00  0.00    -0.023 A 
HETATM    2  C   UNK N   1      47.461  54.012  60.339  0.00  0.00     0.049 A 
HETATM    3  C   UNK N   1      47.474  54.594  59.057  0.00  0.00     0.100 A 
HETATM    4  C   UNK N   1      48.535  54.297  58.209  0.00  0.00     0.109 A 
HETATM    5  O   UNK N   1      48.688  54.734  56.958  0.00  0.00    -0.337 OA
HETATM    6  C   UNK N   1      49.733  54.059  56.345  0.00  0.00     0.172 C 
HETATM    7  C   UNK N   1      50.568  53.427  57.510  0.00  0.00     0.079 C 
HETATM    8  C   UNK N   1      49.556  53.490  58.596  0.00  0.00    -0.012 A 
HETATM    9  C   UNK N   1      49.596  52.922  59.869  0.00  0.00     0.020 A 
ENDROOT
BRANCH   1  10
HETATM   10  C   UNK N   1      48.444  52.569  62.164  0.00  0.00     0.198 C 
HETATM   11  O   UNK N   1      47.109  52.437  62.515  0.00  0.00    -0.337 OA
HETATM   12  C   UNK N   1      46.326  51.436  62.026  0.00  0.00     0.089 A 
HETATM   13  C   UNK N   1      46.907  50.226  61.562  0.00  0.00     0.079 A 
HETATM   14  C   UNK N   1      44.941  51.610  61.997  0.00  0.00     0.074 A 
HETATM   15  C   UNK N   1      48.395  50.095  61.708  0.00  0.00     0.196 C 
HETATM   16  C   UNK N   1      46.051  49.206  61.044  0.00  0.00     0.085 A 
HETATM   17  O   UNK N   1      48.977  49.053  61.457  0.00  0.00    -0.289 OA
HETATM   18  C   UNK N   1      49.166  51.216  62.361  0.00  0.00     0.227 C 
HETATM   19  C   UNK N   1      44.667  49.417  61.021  0.00  0.00     0.074 A 
HETATM   20  C   UNK N   1      44.111  50.605  61.496  0.00  0.00     0.071 A 
BRANCH  18  21
HETATM   21  O   UNK N   1      49.338  50.928  63.727  0.00  0.00    -0.385 OA
HETATM   22  H   UNK N   1      49.852  51.673  64.135  0.00  0.00     0.210 HD
ENDBRANCH  18  21
BRANCH  16  23
HETATM   23  O   UNK N   1      46.500  48.021  60.570  0.00  0.00    -0.360 OA
HETATM   24  H   UNK N   1      46.160  47.557  59.800  0.00  0.00     0.217 HD
ENDBRANCH  16  23
BRANCH  20  25
HETATM   25  O   UNK N   1      42.772  50.769  61.464  0.00  0.00    -0.361 OA
HETATM   26  H   UNK N   1      42.166  50.079  61.771  0.00  0.00     0.217 HD
ENDBRANCH  20  25
ENDBRANCH   1  10
BRANCH   3  27
HETATM   27  O   UNK N   1      46.486  55.416  58.651  0.00  0.00    -0.358 OA
HETATM   28  H   UNK N   1      46.055  55.305  57.791  0.00  0.00     0.218 HD
ENDBRANCH   3  27
BRANCH   7  29
HETATM   29  C   UNK N   1      51.117  52.024  57.195  0.00  0.00     0.176 C 
BRANCH  29  30
HETATM   30  O   UNK N   1      50.630  51.548  55.969  0.00  0.00    -0.400 OA
HETATM   31  H   UNK N   1      49.716  51.195  56.132  0.00  0.00     0.209 HD
ENDBRANCH  29  30
ENDBRANCH   7  29
BRANCH   6  32
HETATM   32  C   UNK N   1      50.556  54.904  55.411  0.00  0.00    -0.025 A 
HETATM   33  C   UNK N   1      49.919  55.901  54.665  0.00  0.00     0.049 A 
HETATM   34  C   UNK N   1      50.642  56.703  53.764  0.00  0.00     0.101 A 
HETATM   35  C   UNK N   1      52.030  56.499  53.629  0.00  0.00     0.099 A 
HETATM   36  C   UNK N   1      52.667  55.503  54.380  0.00  0.00     0.040 A 
HETATM   37  C   UNK N   1      51.936  54.704  55.264  0.00  0.00     0.012 A 
BRANCH  34  38
HETATM   38  O   UNK N   1      50.031  57.664  53.018  0.00  0.00    -0.353 OA
HETATM   39  C   UNK N   1      48.853  58.300  53.363  0.00  0.00     0.210 C 
ENDBRANCH  34  38
BRANCH  35  40
HETATM   40  O   UNK N   1      52.763  57.251  52.781  0.00  0.00    -0.358 OA
HETATM   41  H   UNK N   1      52.399  57.604  51.957  0.00  0.00     0.218 HD
ENDBRANCH  35  40
ENDBRANCH   6  32
TORSDOF 10
ENDMDL
MODEL 4
REMARK VINA RESULT:      -6.1      4.570      6.586
REMARK  10 active torsions:
REMARK  status: ('A' for Active; 'I' for Inactive)
REMARK    1  A    between atoms: C_6  and  C_10 
REMARK    2  A    between atoms: C_7  and  O_8 
REMARK    3  A    between atoms: C_12  and  O_13 
REMARK    4  A    between atoms: C_17  and  C_18 
REMARK    5  A    between atoms: C_20  and  O_21 
REMARK    6  A    between atoms: C_23  and  O_24 
REMARK    7  A    between atoms: C_28  and  C_29 
REMARK    8  A    between atoms: C_29  and  O_30 
REMARK    9  A    between atoms: C_35  and  O_36 
REMARK   10  A    between atoms: C_39  and  O_40 
ROOT
HETATM    1  C   UNK N   1      30.135  44.472  58.147  0.00  0.00    -0.023 A 
HETATM    2  C   UNK N   1      31.372  44.163  57.524  0.00  0.00     0.049 A 
HETATM    3  C   UNK N   1      31.435  43.223  56.478  0.00  0.00     0.100 A 
HETATM    4  C   UNK N   1      30.251  42.626  56.057  0.00  0.00     0.109 A 
HETATM    5  O   UNK N   1      30.126  41.744  55.064  0.00  0.00    -0.337 OA
HETATM    6  C   UNK N   1      28.784  41.540  54.778  0.00  0.00     0.172 C 
HETATM    7  C   UNK N   1      28.002  42.062  56.031  0.00  0.00     0.079 C 
HETATM    8  C   UNK N   1      29.060  42.908  56.643  0.00  0.00    -0.012 A 
HETATM    9  C   UNK N   1      28.963  43.808  57.704  0.00  0.00     0.020 A 
ENDROOT
BRANCH   1  10
HETATM   10  C   UNK N   1      30.139  45.497  59.278  0.00  0.00     0.198 C 
HETATM   11  O   UNK N   1      30.604  46.704  58.776  0.00  0.00    -0.337 OA
HETATM   12  C   UNK N   1      29.827  47.519  58.012  0.00  0.00     0.089 A 
HETATM   13  C   UNK N   1      28.410  47.454  58.097  0.00  0.00     0.079 A 
HETATM   14  C   UNK N   1      30.440  48.429  57.148  0.00  0.00     0.074 A 
HETATM   15  C   UNK N   1      27.840  46.507  59.111  0.00  0.00     0.196 C 
HETATM   16  C   UNK N   1      27.631  48.318  57.267  0.00  0.00     0.085 A 
HETATM   17  O   UNK N   1      26.645  46.464  59.352  0.00  0.00    -0.289 OA
HETATM   18  C   UNK N   1      28.784  45.722  59.989  0.00  0.00     0.227 C 
HETATM   19  C   UNK N   1      28.279  49.212  56.405  0.00  0.00     0.074 A 
HETATM   20  C   UNK N   1      29.671  49.274  56.346  0.00  0.00     0.071 A 
BRANCH  18  21
HETATM   21  O   UNK N   1      28.957  46.400  61.208  0.00  0.00    -0.385 OA
HETATM   22  H   UNK N   1      28.073  46.458  61.656  0.00  0.00     0.210 HD
ENDBRANCH  18  21
BRANCH  16  23
HETATM   23  O   UNK N   1      26.278  48.333  57.263  0.00  0.00    -0.360 OA
HETATM   24  H   UNK N   1      25.707  47.562  57.314  0.00  0.00     0.217 HD
ENDBRANCH  16  23
BRANCH  20  25
HETATM   25  O   UNK N   1      30.260  50.153  55.509  0.00  0.00    -0.361 OA
HETATM   26  H   UNK N   1      31.223  50.233  55.448  0.00  0.00     0.217 HD
ENDBRANCH  20  25
ENDBRANCH   1  10
BRANCH   3  27
HETATM   27  O   UNK N   1      32.606  42.906  55.890  0.00  0.00    -0.358 OA
HETATM   28  H   UNK N   1      33.235  42.300  56.307  0.00  0.00     0.218 HD
ENDBRANCH   3  27
BRANCH   7  29
HETATM   29  C   UNK N   1      26.688  42.787  55.689  0.00  0.00     0.176 C 
BRANCH  29  30
HETATM   30  O   UNK N   1      26.807  43.530  54.506  0.00  0.00    -0.400 OA
HETATM   31  H   UNK N   1      27.769  43.541  54.260  0.00  0.00     0.209 HD
ENDBRANCH  29  30
ENDBRANCH   7  29
BRANCH   6  32
HETATM   32  C   UNK N   1      28.436  40.126  54.405  0.00  0.00    -0.025 A 
HETATM   33  C   UNK N   1      29.215  39.082  54.915  0.00  0.00     0.049 A 
HETATM   34  C   UNK N   1      28.941  37.744  54.578  0.00  0.00     0.101 A 
HETATM   35  C   UNK N   1      27.856  37.462  53.724  0.00  0.00     0.099 A 
HETATM   36  C   UNK N   1      27.075  38.508  53.217  0.00  0.00     0.040 A 
HETATM   37  C   UNK N   1      27.363  39.835  53.549  0.00  0.00     0.012 A 
BRANCH  34  38
HETATM   38  O   UNK N   1      29.703  36.721  55.053  0.00  0.00    -0.353 OA
HETATM   39  C   UNK N   1      31.027  36.502  54.721  0.00  0.00     0.210 C 
ENDBRANCH  34  38
BRANCH  35  40
HETATM   40  O   UNK N   1      27.555  36.192  53.381  0.00  0.00    -0.358 OA
HETATM   41  H   UNK N   1      28.098  35.680  52.766  0.00  0.00     0.218 HD
ENDBRANCH  35  40
ENDBRANCH   6  32
TORSDOF 10
ENDMDL
MODEL 5
REMARK VINA RESULT:      -6.0      4.889      6.822
REMARK  10 active torsions:
REMARK  status: ('A' for Active; 'I' for Inactive)
REMARK    1  A    between atoms: C_6  and  C_10 
REMARK    2  A    between atoms: C_7  and  O_8 
REMARK    3  A    between atoms: C_12  and  O_13 
REMARK    4  A    between atoms: C_17  and  C_18 
REMARK    5  A    between atoms: C_20  and  O_21 
REMARK    6  A    between atoms: C_23  and  O_24 
REMARK    7  A    between atoms: C_28  and  C_29 
REMARK    8  A    between atoms: C_29  and  O_30 
REMARK    9  A    between atoms: C_35  and  O_36 
REMARK   10  A    between atoms: C_39  and  O_40 
ROOT
HETATM    1  C   UNK N   1      29.354  46.819  59.160  0.00  0.00    -0.023 A 
HETATM    2  C   UNK N   1      28.031  46.454  59.519  0.00  0.00     0.049 A 
HETATM    3  C   UNK N   1      27.472  45.245  59.064  0.00  0.00     0.100 A 
HETATM    4  C   UNK N   1      28.257  44.411  58.276  0.00  0.00     0.109 A 
HETATM    5  O   UNK N   1      27.898  43.222  57.790  0.00  0.00    -0.337 OA
HETATM    6  C   UNK N   1      29.002  42.578  57.249  0.00  0.00     0.172 C 
HETATM    7  C   UNK N   1      30.073  43.699  57.022  0.00  0.00     0.079 C 
HETATM    8  C   UNK N   1      29.524  44.746  57.922  0.00  0.00    -0.012 A 
HETATM    9  C   UNK N   1      30.101  45.950  58.324  0.00  0.00     0.020 A 
ENDROOT
BRANCH   1  10
HETATM   10  C   UNK N   1      29.898  48.146  59.685  0.00  0.00     0.198 C 
HETATM   11  O   UNK N   1      30.493  48.826  58.632  0.00  0.00    -0.337 OA
HETATM   12  C   UNK N   1      29.763  49.475  57.684  0.00  0.00     0.089 A 
HETATM   13  C   UNK N   1      28.445  49.921  57.967  0.00  0.00     0.079 A 
HETATM   14  C   UNK N   1      30.332  49.707  56.430  0.00  0.00     0.074 A 
HETATM   15  C   UNK N   1      27.947  49.702  59.366  0.00  0.00     0.196 C 
HETATM   16  C   UNK N   1      27.708  50.587  56.940  0.00  0.00     0.085 A 
HETATM   17  O   UNK N   1      26.881  50.156  59.748  0.00  0.00    -0.289 OA
HETATM   18  C   UNK N   1      28.869  49.069  60.379  0.00  0.00     0.227 C 
HETATM   19  C   UNK N   1      28.306  50.795  55.690  0.00  0.00     0.074 A 
HETATM   20  C   UNK N   1      29.607  50.365  55.434  0.00  0.00     0.071 A 
BRANCH  18  21
HETATM   21  O   UNK N   1      29.510  50.078  61.118  0.00  0.00    -0.385 OA
HETATM   22  H   UNK N   1      29.239  50.956  60.740  0.00  0.00     0.210 HD
ENDBRANCH  18  21
BRANCH  16  23
HETATM   23  O   UNK N   1      26.445  51.045  57.101  0.00  0.00    -0.360 OA
HETATM   24  H   UNK N   1      25.783  50.675  57.691  0.00  0.00     0.217 HD
ENDBRANCH  16  23
BRANCH  20  25
HETATM   25  O   UNK N   1      30.152  50.590  54.220  0.00  0.00    -0.361 OA
HETATM   26  H   UNK N   1      30.919  51.170  54.105  0.00  0.00     0.217 HD
ENDBRANCH  20  25
ENDBRANCH   1  10
BRANCH   3  27
HETATM   27  O   UNK N   1      26.210  44.894  59.382  0.00  0.00    -0.358 OA
HETATM   28  H   UNK N   1      26.016  44.340  60.153  0.00  0.00     0.218 HD
ENDBRANCH   3  27
BRANCH   7  29
HETATM   29  C   UNK N   1      31.515  43.253  57.324  0.00  0.00     0.176 C 
BRANCH  29  30
HETATM   30  O   UNK N   1      32.284  43.182  56.154  0.00  0.00    -0.400 OA
HETATM   31  H   UNK N   1      32.066  42.321  55.710  0.00  0.00     0.209 HD
ENDBRANCH  29  30
ENDBRANCH   7  29
BRANCH   6  32
HETATM   32  C   UNK N   1      28.708  41.775  56.012  0.00  0.00    -0.025 A 
HETATM   33  C   UNK N   1      28.578  42.442  54.789  0.00  0.00     0.049 A 
HETATM   34  C   UNK N   1      28.282  41.737  53.609  0.00  0.00     0.101 A 
HETATM   35  C   UNK N   1      28.132  40.337  53.668  0.00  0.00     0.099 A 
HETATM   36  C   UNK N   1      28.267  39.670  54.892  0.00  0.00     0.040 A 
HETATM   37  C   UNK N   1      28.548  40.383  56.061  0.00  0.00     0.012 A 
BRANCH  34  38
HETATM   38  O   UNK N   1      28.134  42.377  52.416  0.00  0.00    -0.353 OA
HETATM   39  C   UNK N   1      27.466  43.574  52.240  0.00  0.00     0.210 C 
ENDBRANCH  34  38
BRANCH  35  40
HETATM   40  O   UNK N   1      27.855  39.621  52.558  0.00  0.00    -0.358 OA
HETATM   41  H   UNK N   1      27.169  39.886  51.929  0.00  0.00     0.218 HD
ENDBRANCH  35  40
ENDBRANCH   6  32
TORSDOF 10
ENDMDL
MODEL 6
REMARK VINA RESULT:      -5.8      2.810      9.668
REMARK  10 active torsions:
REMARK  status: ('A' for Active; 'I' for Inactive)
REMARK    1  A    between atoms: C_6  and  C_10 
REMARK    2  A    between atoms: C_7  and  O_8 
REMARK    3  A    between atoms: C_12  and  O_13 
REMARK    4  A    between atoms: C_17  and  C_18 
REMARK    5  A    between atoms: C_20  and  O_21 
REMARK    6  A    between atoms: C_23  and  O_24 
REMARK    7  A    between atoms: C_28  and  C_29 
REMARK    8  A    between atoms: C_29  and  O_30 
REMARK    9  A    between atoms: C_35  and  O_36 
REMARK   10  A    between atoms: C_39  and  O_40 
ROOT
HETATM    1  C   UNK N   1      29.679  42.005  56.954  0.00  0.00    -0.023 A 
HETATM    2  C   UNK N   1      30.580  42.847  56.251  0.00  0.00     0.049 A 
HETATM    3  C   UNK N   1      31.744  43.333  56.874  0.00  0.00     0.100 A 
HETATM    4  C   UNK N   1      32.000  42.947  58.186  0.00  0.00     0.109 A 
HETATM    5  O   UNK N   1      33.066  43.287  58.911  0.00  0.00    -0.337 OA
HETATM    6  C   UNK N   1      33.100  42.542  60.081  0.00  0.00     0.172 C 
HETATM    7  C   UNK N   1      31.650  41.976  60.262  0.00  0.00     0.079 C 
HETATM    8  C   UNK N   1      31.148  42.145  58.874  0.00  0.00    -0.012 A 
HETATM    9  C   UNK N   1      29.968  41.671  58.302  0.00  0.00     0.020 A 
ENDROOT
BRANCH   1  10
HETATM   10  C   UNK N   1      28.433  41.517  56.220  0.00  0.00     0.198 C 
HETATM   11  O   UNK N   1      28.820  40.590  55.263  0.00  0.00    -0.337 OA
HETATM   12  C   UNK N   1      29.156  39.312  55.587  0.00  0.00     0.089 A 
HETATM   13  C   UNK N   1      28.666  38.717  56.780  0.00  0.00     0.079 A 
HETATM   14  C   UNK N   1      29.981  38.587  54.725  0.00  0.00     0.074 A 
HETATM   15  C   UNK N   1      27.720  39.540  57.603  0.00  0.00     0.196 C 
HETATM   16  C   UNK N   1      29.054  37.376  57.090  0.00  0.00     0.085 A 
HETATM   17  O   UNK N   1      27.146  39.081  58.577  0.00  0.00    -0.289 OA
HETATM   18  C   UNK N   1      27.322  40.909  57.107  0.00  0.00     0.227 C 
HETATM   19  C   UNK N   1      29.890  36.682  56.207  0.00  0.00     0.074 A 
HETATM   20  C   UNK N   1      30.349  37.275  55.032  0.00  0.00     0.071 A 
BRANCH  18  21
HETATM   21  O   UNK N   1      26.107  40.814  56.406  0.00  0.00    -0.385 OA
HETATM   22  H   UNK N   1      25.887  39.852  56.302  0.00  0.00     0.210 HD
ENDBRANCH  18  21
BRANCH  16  23
HETATM   23  O   UNK N   1      28.651  36.719  58.202  0.00  0.00    -0.360 OA
HETATM   24  H   UNK N   1      29.160  36.059  58.680  0.00  0.00     0.217 HD
ENDBRANCH  16  23
BRANCH  20  25
HETATM   25  O   UNK N   1      31.148  36.572  54.202  0.00  0.00    -0.361 OA
HETATM   26  H   UNK N   1      30.846  36.279  53.330  0.00  0.00     0.217 HD
ENDBRANCH  20  25
ENDBRANCH   1  10
BRANCH   3  27
HETATM   27  O   UNK N   1      32.599  44.148  56.224  0.00  0.00    -0.358 OA
HETATM   28  H   UNK N   1      33.030  43.878  55.401  0.00  0.00     0.218 HD
ENDBRANCH   3  27
BRANCH   7  29
HETATM   29  C   UNK N   1      31.606  40.540  60.814  0.00  0.00     0.176 C 
BRANCH  29  30
HETATM   30  O   UNK N   1      30.668  40.418  61.850  0.00  0.00    -0.400 OA
HETATM   31  H   UNK N   1      29.766  40.425  61.432  0.00  0.00     0.209 HD
ENDBRANCH  29  30
ENDBRANCH   7  29
BRANCH   6  32
HETATM   32  C   UNK N   1      33.601  43.294  61.283  0.00  0.00    -0.025 A 
HETATM   33  C   UNK N   1      34.921  43.757  61.288  0.00  0.00     0.049 A 
HETATM   34  C   UNK N   1      35.441  44.447  62.398  0.00  0.00     0.101 A 
HETATM   35  C   UNK N   1      34.607  44.683  63.509  0.00  0.00     0.099 A 
HETATM   36  C   UNK N   1      33.284  44.222  63.500  0.00  0.00     0.040 A 
HETATM   37  C   UNK N   1      32.782  43.527  62.397  0.00  0.00     0.012 A 
BRANCH  34  38
HETATM   38  O   UNK N   1      36.730  44.885  62.422  0.00  0.00    -0.353 OA
HETATM   39  C   UNK N   1      37.149  46.129  61.991  0.00  0.00     0.210 C 
ENDBRANCH  34  38
BRANCH  35  40
HETATM   40  O   UNK N   1      35.064  45.347  64.591  0.00  0.00    -0.358 OA
HETATM   41  H   UNK N   1      34.488  45.895  65.142  0.00  0.00     0.218 HD
ENDBRANCH  35  40
ENDBRANCH   6  32
TORSDOF 10
ENDMDL
MODEL 7
REMARK VINA RESULT:      -5.8      3.023      9.032
REMARK  10 active torsions:
REMARK  status: ('A' for Active; 'I' for Inactive)
REMARK    1  A    between atoms: C_6  and  C_10 
REMARK    2  A    between atoms: C_7  and  O_8 
REMARK    3  A    between atoms: C_12  and  O_13 
REMARK    4  A    between atoms: C_17  and  C_18 
REMARK    5  A    between atoms: C_20  and  O_21 
REMARK    6  A    between atoms: C_23  and  O_24 
REMARK    7  A    between atoms: C_28  and  C_29 
REMARK    8  A    between atoms: C_29  and  O_30 
REMARK    9  A    between atoms: C_35  and  O_36 
REMARK   10  A    between atoms: C_39  and  O_40 
ROOT
HETATM    1  C   UNK N   1      33.059  44.076  62.284  0.00  0.00    -0.023 A 
HETATM    2  C   UNK N   1      34.461  44.187  62.474  0.00  0.00     0.049 A 
HETATM    3  C   UNK N   1      35.022  45.361  63.011  0.00  0.00     0.100 A 
HETATM    4  C   UNK N   1      34.167  46.397  63.370  0.00  0.00     0.109 A 
HETATM    5  O   UNK N   1      34.525  47.558  63.919  0.00  0.00    -0.337 OA
HETATM    6  C   UNK N   1      33.400  48.246  64.349  0.00  0.00     0.172 C 
HETATM    7  C   UNK N   1      32.192  47.591  63.596  0.00  0.00     0.079 C 
HETATM    8  C   UNK N   1      32.824  46.309  63.192  0.00  0.00    -0.012 A 
HETATM    9  C   UNK N   1      32.234  45.175  62.633  0.00  0.00     0.020 A 
ENDROOT
BRANCH   1  10
HETATM   10  C   UNK N   1      32.517  42.777  61.694  0.00  0.00     0.198 C 
HETATM   11  O   UNK N   1      31.222  43.001  61.250  0.00  0.00    -0.337 OA
HETATM   12  C   UNK N   1      30.958  43.662  60.091  0.00  0.00     0.089 A 
HETATM   13  C   UNK N   1      31.924  43.713  59.051  0.00  0.00     0.079 A 
HETATM   14  C   UNK N   1      29.717  44.284  59.931  0.00  0.00     0.074 A 
HETATM   15  C   UNK N   1      33.195  42.948  59.277  0.00  0.00     0.196 C 
HETATM   16  C   UNK N   1      31.611  44.429  57.855  0.00  0.00     0.085 A 
HETATM   17  O   UNK N   1      34.035  42.822  58.401  0.00  0.00    -0.289 OA
HETATM   18  C   UNK N   1      33.353  42.155  60.551  0.00  0.00     0.227 C 
HETATM   19  C   UNK N   1      30.361  45.049  57.732  0.00  0.00     0.074 A 
HETATM   20  C   UNK N   1      29.417  44.976  58.756  0.00  0.00     0.071 A 
BRANCH  18  21
HETATM   21  O   UNK N   1      32.980  40.820  60.318  0.00  0.00    -0.385 OA
HETATM   22  H   UNK N   1      32.552  40.772  59.423  0.00  0.00     0.210 HD
ENDBRANCH  18  21
BRANCH  16  23
HETATM   23  O   UNK N   1      32.461  44.546  56.808  0.00  0.00    -0.360 OA
HETATM   24  H   UNK N   1      32.425  45.222  56.127  0.00  0.00     0.217 HD
ENDBRANCH  16  23
BRANCH  20  25
HETATM   25  O   UNK N   1      28.221  45.579  58.598  0.00  0.00    -0.361 OA
HETATM   26  H   UNK N   1      27.452  45.104  58.250  0.00  0.00     0.217 HD
ENDBRANCH  20  25
ENDBRANCH   1  10
BRANCH   3  27
HETATM   27  O   UNK N   1      36.354  45.487  63.180  0.00  0.00    -0.358 OA
HETATM   28  H   UNK N   1      36.982  45.171  62.514  0.00  0.00     0.218 HD
ENDBRANCH   3  27
BRANCH   7  29
HETATM   29  C   UNK N   1      30.918  47.465  64.450  0.00  0.00     0.176 C 
BRANCH  29  30
HETATM   30  O   UNK N   1      31.148  46.694  65.599  0.00  0.00    -0.400 OA
HETATM   31  H   UNK N   1      30.366  46.091  65.709  0.00  0.00     0.209 HD
ENDBRANCH  29  30
ENDBRANCH   7  29
BRANCH   6  32
HETATM   32  C   UNK N   1      33.477  49.737  64.171  0.00  0.00    -0.025 A 
HETATM   33  C   UNK N   1      32.634  50.552  64.933  0.00  0.00     0.049 A 
HETATM   34  C   UNK N   1      32.654  51.951  64.786  0.00  0.00     0.101 A 
HETATM   35  C   UNK N   1      33.551  52.529  63.866  0.00  0.00     0.099 A 
HETATM   36  C   UNK N   1      34.397  51.711  63.106  0.00  0.00     0.040 A 
HETATM   37  C   UNK N   1      34.359  50.322  63.251  0.00  0.00     0.012 A 
BRANCH  34  38
HETATM   38  O   UNK N   1      31.825  52.754  65.509  0.00  0.00    -0.353 OA
HETATM   39  C   UNK N   1      30.471  52.906  65.275  0.00  0.00     0.210 C 
ENDBRANCH  34  38
BRANCH  35  40
HETATM   40  O   UNK N   1      33.608  53.867  63.699  0.00  0.00    -0.358 OA
HETATM   41  H   UNK N   1      33.121  54.322  62.996  0.00  0.00     0.218 HD
ENDBRANCH  35  40
ENDBRANCH   6  32
TORSDOF 10
ENDMDL
MODEL 8
REMARK VINA RESULT:      -5.7      4.451      8.736
REMARK  10 active torsions:
REMARK  status: ('A' for Active; 'I' for Inactive)
REMARK    1  A    between atoms: C_6  and  C_10 
REMARK    2  A    between atoms: C_7  and  O_8 
REMARK    3  A    between atoms: C_12  and  O_13 
REMARK    4  A    between atoms: C_17  and  C_18 
REMARK    5  A    between atoms: C_20  and  O_21 
REMARK    6  A    between atoms: C_23  and  O_24 
REMARK    7  A    between atoms: C_28  and  C_29 
REMARK    8  A    between atoms: C_29  and  O_30 
REMARK    9  A    between atoms: C_35  and  O_36 
REMARK   10  A    between atoms: C_39  and  O_40 
ROOT
HETATM    1  C   UNK N   1      30.455  44.829  59.357  0.00  0.00    -0.023 A 
HETATM    2  C   UNK N   1      29.185  44.516  59.907  0.00  0.00     0.049 A 
HETATM    3  C   UNK N   1      28.152  45.471  59.917  0.00  0.00     0.100 A 
HETATM    4  C   UNK N   1      28.401  46.718  59.354  0.00  0.00     0.109 A 
HETATM    5  O   UNK N   1      27.530  47.722  59.251  0.00  0.00    -0.337 OA
HETATM    6  C   UNK N   1      28.049  48.718  58.436  0.00  0.00     0.172 C 
HETATM    7  C   UNK N   1      29.592  48.451  58.375  0.00  0.00     0.079 C 
HETATM    8  C   UNK N   1      29.610  47.035  58.825  0.00  0.00    -0.012 A 
HETATM    9  C   UNK N   1      30.669  46.127  58.827  0.00  0.00     0.020 A 
ENDROOT
BRANCH   1  10
HETATM   10  C   UNK N   1      31.533  43.747  59.381  0.00  0.00     0.198 C 
HETATM   11  O   UNK N   1      30.912  42.509  59.463  0.00  0.00    -0.337 OA
HETATM   12  C   UNK N   1      30.319  41.924  58.387  0.00  0.00     0.089 A 
HETATM   13  C   UNK N   1      30.717  42.268  57.067  0.00  0.00     0.079 A 
HETATM   14  C   UNK N   1      29.320  40.971  58.596  0.00  0.00     0.074 A 
HETATM   15  C   UNK N   1      31.854  43.238  56.938  0.00  0.00     0.196 C 
HETATM   16  C   UNK N   1      30.059  41.639  55.965  0.00  0.00     0.085 A 
HETATM   17  O   UNK N   1      32.354  43.504  55.858  0.00  0.00    -0.289 OA
HETATM   18  C   UNK N   1      32.520  43.752  58.191  0.00  0.00     0.227 C 
HETATM   19  C   UNK N   1      29.055  40.695  56.211  0.00  0.00     0.074 A 
HETATM   20  C   UNK N   1      28.688  40.357  57.513  0.00  0.00     0.071 A 
BRANCH  18  21
HETATM   21  O   UNK N   1      33.654  42.969  58.470  0.00  0.00    -0.385 OA
HETATM   22  H   UNK N   1      34.448  43.435  58.096  0.00  0.00     0.210 HD
ENDBRANCH  18  21
BRANCH  16  23
HETATM   23  O   UNK N   1      30.355  41.899  54.670  0.00  0.00    -0.360 OA
HETATM   24  H   UNK N   1      29.742  41.846  53.931  0.00  0.00     0.217 HD
ENDBRANCH  16  23
BRANCH  20  25
HETATM   25  O   UNK N   1      27.721  39.437  57.712  0.00  0.00    -0.361 OA
HETATM   26  H   UNK N   1      27.012  39.573  58.358  0.00  0.00     0.217 HD
ENDBRANCH  20  25
ENDBRANCH   1  10
BRANCH   3  27
HETATM   27  O   UNK N   1      26.947  45.194  60.454  0.00  0.00    -0.358 OA
HETATM   28  H   UNK N   1      26.217  44.857  59.914  0.00  0.00     0.218 HD
ENDBRANCH   3  27
BRANCH   7  29
HETATM   29  C   UNK N   1      30.216  48.717  56.994  0.00  0.00     0.176 C 
BRANCH  29  30
HETATM   30  O   UNK N   1      30.758  50.008  56.917  0.00  0.00    -0.400 OA
HETATM   31  H   UNK N   1      30.435  50.412  56.069  0.00  0.00     0.209 HD
ENDBRANCH  29  30
ENDBRANCH   7  29
BRANCH   6  32
HETATM   32  C   UNK N   1      27.703  50.117  58.868  0.00  0.00    -0.025 A 
HETATM   33  C   UNK N   1      26.421  50.608  58.599  0.00  0.00     0.049 A 
HETATM   34  C   UNK N   1      26.058  51.917  58.964  0.00  0.00     0.101 A 
HETATM   35  C   UNK N   1      27.002  52.731  59.622  0.00  0.00     0.099 A 
HETATM   36  C   UNK N   1      28.284  52.236  59.894  0.00  0.00     0.040 A 
HETATM   37  C   UNK N   1      28.638  50.938  59.516  0.00  0.00     0.012 A 
BRANCH  34  38
HETATM   38  O   UNK N   1      24.820  52.414  58.692  0.00  0.00    -0.353 OA
HETATM   39  C   UNK N   1      23.976  51.933  57.708  0.00  0.00     0.210 C 
ENDBRANCH  34  38
BRANCH  35  40
HETATM   40  O   UNK N   1      26.692  53.990  59.996  0.00  0.00    -0.358 OA
HETATM   41  H   UNK N   1      25.782  54.318  60.003  0.00  0.00     0.218 HD
ENDBRANCH  35  40
ENDBRANCH   6  32
TORSDOF 10
ENDMDL
MODEL 9
REMARK VINA RESULT:      -5.6     15.033     20.373
REMARK  10 active torsions:
REMARK  status: ('A' for Active; 'I' for Inactive)
REMARK    1  A    between atoms: C_6  and  C_10 
REMARK    2  A    between atoms: C_7  and  O_8 
REMARK    3  A    between atoms: C_12  and  O_13 
REMARK    4  A    between atoms: C_17  and  C_18 
REMARK    5  A    between atoms: C_20  and  O_21 
REMARK    6  A    between atoms: C_23  and  O_24 
REMARK    7  A    between atoms: C_28  and  C_29 
REMARK    8  A    between atoms: C_29  and  O_30 
REMARK    9  A    between atoms: C_35  and  O_36 
REMARK   10  A    between atoms: C_39  and  O_40 
ROOT
HETATM    1  C   UNK N   1      49.657  56.463  57.847  0.00  0.00    -0.023 A 
HETATM    2  C   UNK N   1      48.288  56.819  57.973  0.00  0.00     0.049 A 
HETATM    3  C   UNK N   1      47.395  55.996  58.684  0.00  0.00     0.100 A 
HETATM    4  C   UNK N   1      47.893  54.841  59.277  0.00  0.00     0.109 A 
HETATM    5  O   UNK N   1      47.197  53.970  60.010  0.00  0.00    -0.337 OA
HETATM    6  C   UNK N   1      48.057  53.073  60.624  0.00  0.00     0.172 C 
HETATM    7  C   UNK N   1      49.406  53.174  59.833  0.00  0.00     0.079 C 
HETATM    8  C   UNK N   1      49.198  54.484  59.164  0.00  0.00    -0.012 A 
HETATM    9  C   UNK N   1      50.106  55.256  58.440  0.00  0.00     0.020 A 
ENDROOT
BRANCH   1  10
HETATM   10  C   UNK N   1      50.570  57.399  57.059  0.00  0.00     0.198 C 
HETATM   11  O   UNK N   1      51.704  56.694  56.682  0.00  0.00    -0.337 OA
HETATM   12  C   UNK N   1      51.694  55.803  55.654  0.00  0.00     0.089 A 
HETATM   13  C   UNK N   1      50.726  55.904  54.620  0.00  0.00     0.079 A 
HETATM   14  C   UNK N   1      52.658  54.792  55.622  0.00  0.00     0.074 A 
HETATM   15  C   UNK N   1      49.784  57.069  54.692  0.00  0.00     0.196 C 
HETATM   16  C   UNK N   1      50.743  54.940  53.565  0.00  0.00     0.085 A 
HETATM   17  O   UNK N   1      48.998  57.318  53.793  0.00  0.00    -0.289 OA
HETATM   18  C   UNK N   1      49.940  58.066  55.814  0.00  0.00     0.227 C 
HETATM   19  C   UNK N   1      51.717  53.933  53.569  0.00  0.00     0.074 A 
HETATM   20  C   UNK N   1      52.671  53.859  54.583  0.00  0.00     0.071 A 
BRANCH  18  21
HETATM   21  O   UNK N   1      50.719  59.148  55.369  0.00  0.00    -0.385 OA
HETATM   22  H   UNK N   1      50.116  59.924  55.228  0.00  0.00     0.210 HD
ENDBRANCH  18  21
BRANCH  16  23
HETATM   23  O   UNK N   1      49.863  54.939  52.537  0.00  0.00    -0.360 OA
HETATM   24  H   UNK N   1      50.066  54.726  51.622  0.00  0.00     0.217 HD
ENDBRANCH  16  23
BRANCH  20  25
HETATM   25  O   UNK N   1      53.599  52.879  54.550  0.00  0.00    -0.361 OA
HETATM   26  H   UNK N   1      54.539  53.061  54.696  0.00  0.00     0.217 HD
ENDBRANCH  20  25
ENDBRANCH   1  10
BRANCH   3  27
HETATM   27  O   UNK N   1      46.090  56.312  58.796  0.00  0.00    -0.358 OA
HETATM   28  H   UNK N   1      45.601  56.717  58.065  0.00  0.00     0.218 HD
ENDBRANCH   3  27
BRANCH   7  29
HETATM   29  C   UNK N   1      50.659  53.074  60.721  0.00  0.00     0.176 C 
BRANCH  29  30
HETATM   30  O   UNK N   1      51.540  52.088  60.254  0.00  0.00    -0.400 OA
HETATM   31  H   UNK N   1      51.972  51.678  61.050  0.00  0.00     0.209 HD
ENDBRANCH  29  30
ENDBRANCH   7  29
BRANCH   6  32
HETATM   32  C   UNK N   1      47.526  51.669  60.720  0.00  0.00    -0.025 A 
HETATM   33  C   UNK N   1      46.244  51.467  61.241  0.00  0.00     0.049 A 
HETATM   34  C   UNK N   1      45.712  50.171  61.370  0.00  0.00     0.101 A 
HETATM   35  C   UNK N   1      46.486  49.069  60.952  0.00  0.00     0.099 A 
HETATM   36  C   UNK N   1      47.768  49.274  60.427  0.00  0.00     0.040 A 
HETATM   37  C   UNK N   1      48.291  50.565  60.314  0.00  0.00     0.012 A 
BRANCH  34  38
HETATM   38  O   UNK N   1      44.473  49.960  61.893  0.00  0.00    -0.353 OA
HETATM   39  C   UNK N   1      43.302  50.494  61.390  0.00  0.00     0.210 C 
ENDBRANCH  34  38
BRANCH  35  40
HETATM   40  O   UNK N   1      46.011  47.810  61.052  0.00  0.00    -0.358 OA
HETATM   41  H   UNK N   1      45.925  47.228  60.284  0.00  0.00     0.218 HD
ENDBRANCH  35  40
ENDBRANCH   6  32
TORSDOF 10
ENDMDL
