MODEL 1
REMARK VINA RESULT:      -7.2      0.000      0.000
REMARK  10 active torsions:
REMARK  status: ('A' for Active; 'I' for Inactive)
REMARK    1  A    between atoms: O_1  and  C_2 
REMARK    2  A    between atoms: C_3  and  O_4 
REMARK    3  A    between atoms: C_8  and  C_10 
REMARK    4  A    between atoms: C_10  and  O_11 
REMARK    5  A    between atoms: C_10  and  C_13 
REMARK    6  A    between atoms: C_13  and  C_14 
REMARK    7  A    between atoms: C_13  and  C_17 
REMARK    8  A    between atoms: C_14  and  O_15 
REMARK    9  A    between atoms: C_19  and  O_20 
REMARK   10  A    between atoms: C_22  and  O_23 
ROOT
HETATM    1  C   UNK N   1      40.164  45.169  47.723  0.00  0.00     0.075 C 
ENDROOT
BRANCH   1   2
HETATM    2  C   UNK N   1      41.018  46.105  48.618  0.00  0.00     0.161 C 
BRANCH   2   3
HETATM    3  C   UNK N   1      41.228  45.520  50.003  0.00  0.00    -0.026 A 
HETATM    4  C   UNK N   1      42.203  46.056  50.853  0.00  0.00     0.012 A 
HETATM    5  C   UNK N   1      42.403  45.519  52.123  0.00  0.00     0.040 A 
HETATM    6  C   UNK N   1      41.631  44.438  52.571  0.00  0.00     0.099 A 
HETATM    7  C   UNK N   1      40.644  43.885  51.730  0.00  0.00     0.101 A 
HETATM    8  C   UNK N   1      40.451  44.428  50.444  0.00  0.00     0.049 A 
BRANCH   6   9
HETATM    9  O   UNK N   1      41.853  43.946  53.806  0.00  0.00    -0.358 OA
HETATM   10  H   UNK N   1      42.608  44.220  54.347  0.00  0.00     0.218 HD
ENDBRANCH   6   9
BRANCH   7  11
HETATM   11  O   UNK N   1      39.903  42.835  52.189  0.00  0.00    -0.353 OA
HETATM   12  C   UNK N   1      39.308  42.754  53.432  0.00  0.00     0.210 C 
ENDBRANCH   7  11
ENDBRANCH   2   3
BRANCH   2  13
HETATM   13  O   UNK N   1      42.275  46.308  48.021  0.00  0.00    -0.390 OA
HETATM   14  H   UNK N   1      42.949  45.886  48.617  0.00  0.00     0.210 HD
ENDBRANCH   2  13
ENDBRANCH   1   2
BRANCH   1  15
HETATM   15  C   UNK N   1      38.957  45.904  47.093  0.00  0.00     0.176 C 
BRANCH  15  16
HETATM   16  O   UNK N   1      39.209  47.280  47.016  0.00  0.00    -0.400 OA
HETATM   17  H   UNK N   1      39.892  47.394  46.304  0.00  0.00     0.209 HD
ENDBRANCH  15  16
ENDBRANCH   1  15
BRANCH   1  18
HETATM   18  C   UNK N   1      41.046  44.468  46.692  0.00  0.00    -0.046 A 
HETATM   19  C   UNK N   1      41.737  43.300  47.069  0.00  0.00     0.047 A 
HETATM   20  C   UNK N   1      42.588  42.637  46.163  0.00  0.00     0.101 A 
HETATM   21  C   UNK N   1      42.725  43.140  44.854  0.00  0.00     0.099 A 
HETATM   22  C   UNK N   1      42.039  44.300  44.478  0.00  0.00     0.040 A 
HETATM   23  C   UNK N   1      41.218  44.970  45.389  0.00  0.00     0.011 A 
BRANCH  20  24
HETATM   24  O   UNK N   1      43.300  41.531  46.522  0.00  0.00    -0.353 OA
HETATM   25  C   UNK N   1      42.801  40.245  46.594  0.00  0.00     0.210 C 
ENDBRANCH  20  24
BRANCH  21  26
HETATM   26  O   UNK N   1      43.518  42.527  43.951  0.00  0.00    -0.358 OA
HETATM   27  H   UNK N   1      44.453  42.753  43.844  0.00  0.00     0.218 HD
ENDBRANCH  21  26
ENDBRANCH   1  18
TORSDOF 10
ENDMDL
MODEL 2
REMARK VINA RESULT:      -7.1      2.331      4.092
REMARK  10 active torsions:
REMARK  status: ('A' for Active; 'I' for Inactive)
REMARK    1  A    between atoms: O_1  and  C_2 
REMARK    2  A    between atoms: C_3  and  O_4 
REMARK    3  A    between atoms: C_8  and  C_10 
REMARK    4  A    between atoms: C_10  and  O_11 
REMARK    5  A    between atoms: C_10  and  C_13 
REMARK    6  A    between atoms: C_13  and  C_14 
REMARK    7  A    between atoms: C_13  and  C_17 
REMARK    8  A    between atoms: C_14  and  O_15 
REMARK    9  A    between atoms: C_19  and  O_20 
REMARK   10  A    between atoms: C_22  and  O_23 
ROOT
HETATM    1  C   UNK N   1      40.246  45.034  47.734  0.00  0.00     0.075 C 
ENDROOT
BRANCH   1   2
HETATM    2  C   UNK N   1      41.490  44.323  48.329  0.00  0.00     0.161 C 
BRANCH   2   3
HETATM    3  C   UNK N   1      41.588  44.525  49.830  0.00  0.00    -0.026 A 
HETATM    4  C   UNK N   1      42.200  45.674  50.347  0.00  0.00     0.012 A 
HETATM    5  C   UNK N   1      42.296  45.861  51.725  0.00  0.00     0.040 A 
HETATM    6  C   UNK N   1      41.781  44.908  52.613  0.00  0.00     0.099 A 
HETATM    7  C   UNK N   1      41.160  43.746  52.111  0.00  0.00     0.101 A 
HETATM    8  C   UNK N   1      41.072  43.558  50.718  0.00  0.00     0.049 A 
BRANCH   6   9
HETATM    9  O   UNK N   1      41.892  45.125  53.938  0.00  0.00    -0.358 OA
HETATM   10  H   UNK N   1      41.263  44.761  54.579  0.00  0.00     0.218 HD
ENDBRANCH   6   9
BRANCH   7  11
HETATM   11  O   UNK N   1      40.663  42.833  52.996  0.00  0.00    -0.353 OA
HETATM   12  C   UNK N   1      39.333  42.684  53.334  0.00  0.00     0.210 C 
ENDBRANCH   7  11
ENDBRANCH   2   3
BRANCH   2  13
HETATM   13  O   UNK N   1      41.412  42.944  48.065  0.00  0.00    -0.390 OA
HETATM   14  H   UNK N   1      42.160  42.725  47.448  0.00  0.00     0.210 HD
ENDBRANCH   2  13
ENDBRANCH   1   2
BRANCH   1  15
HETATM   15  C   UNK N   1      39.157  45.295  48.801  0.00  0.00     0.176 C 
BRANCH  15  16
HETATM   16  O   UNK N   1      38.079  44.418  48.624  0.00  0.00    -0.400 OA
HETATM   17  H   UNK N   1      38.381  43.743  47.960  0.00  0.00     0.209 HD
ENDBRANCH  15  16
ENDBRANCH   1  15
BRANCH   1  18
HETATM   18  C   UNK N   1      40.663  46.295  46.979  0.00  0.00    -0.046 A 
HETATM   19  C   UNK N   1      39.665  47.114  46.418  0.00  0.00     0.047 A 
HETATM   20  C   UNK N   1      40.002  48.269  45.685  0.00  0.00     0.101 A 
HETATM   21  C   UNK N   1      41.359  48.619  45.538  0.00  0.00     0.099 A 
HETATM   22  C   UNK N   1      42.352  47.806  46.096  0.00  0.00     0.040 A 
HETATM   23  C   UNK N   1      42.014  46.646  46.798  0.00  0.00     0.011 A 
BRANCH  20  24
HETATM   24  O   UNK N   1      39.053  49.050  45.096  0.00  0.00    -0.353 OA
HETATM   25  C   UNK N   1      38.637  48.955  43.782  0.00  0.00     0.210 C 
ENDBRANCH  20  24
BRANCH  21  26
HETATM   26  O   UNK N   1      41.724  49.724  44.857  0.00  0.00    -0.358 OA
HETATM   27  H   UNK N   1      42.390  50.343  45.191  0.00  0.00     0.218 HD
ENDBRANCH  21  26
ENDBRANCH   1  18
TORSDOF 10
ENDMDL
MODEL 3
REMARK VINA RESULT:      -6.9      2.106      6.744
REMARK  10 active torsions:
REMARK  status: ('A' for Active; 'I' for Inactive)
REMARK    1  A    between atoms: O_1  and  C_2 
REMARK    2  A    between atoms: C_3  and  O_4 
REMARK    3  A    between atoms: C_8  and  C_10 
REMARK    4  A    between atoms: C_10  and  O_11 
REMARK    5  A    between atoms: C_10  and  C_13 
REMARK    6  A    between atoms: C_13  and  C_14 
REMARK    7  A    between atoms: C_13  and  C_17 
REMARK    8  A    between atoms: C_14  and  O_15 
REMARK    9  A    between atoms: C_19  and  O_20 
REMARK   10  A    between atoms: C_22  and  O_23 
ROOT
HETATM    1  C   UNK N   1      40.215  44.347  48.604  0.00  0.00     0.075 C 
ENDROOT
BRANCH   1   2
HETATM    2  C   UNK N   1      39.283  45.528  48.224  0.00  0.00     0.161 C 
BRANCH   2   3
HETATM    3  C   UNK N   1      39.997  46.550  47.358  0.00  0.00    -0.026 A 
HETATM    4  C   UNK N   1      41.256  47.033  47.735  0.00  0.00     0.012 A 
HETATM    5  C   UNK N   1      41.914  47.975  46.946  0.00  0.00     0.040 A 
HETATM    6  C   UNK N   1      41.329  48.451  45.765  0.00  0.00     0.099 A 
HETATM    7  C   UNK N   1      40.062  47.976  45.369  0.00  0.00     0.101 A 
HETATM    8  C   UNK N   1      39.400  47.028  46.173  0.00  0.00     0.049 A 
BRANCH   6   9
HETATM    9  O   UNK N   1      41.996  49.361  45.028  0.00  0.00    -0.358 OA
HETATM   10  H   UNK N   1      42.906  49.626  45.228  0.00  0.00     0.218 HD
ENDBRANCH   6   9
BRANCH   7  11
HETATM   11  O   UNK N   1      39.514  48.451  44.213  0.00  0.00    -0.353 OA
HETATM   12  C   UNK N   1      38.737  49.586  44.099  0.00  0.00     0.210 C 
ENDBRANCH   7  11
ENDBRANCH   2   3
BRANCH   2  13
HETATM   13  O   UNK N   1      38.171  45.038  47.515  0.00  0.00    -0.390 OA
HETATM   14  H   UNK N   1      38.516  44.652  46.667  0.00  0.00     0.210 HD
ENDBRANCH   2  13
ENDBRANCH   1   2
BRANCH   1  15
HETATM   15  C   UNK N   1      41.337  44.129  47.562  0.00  0.00     0.176 C 
BRANCH  15  16
HETATM   16  O   UNK N   1      42.112  43.014  47.905  0.00  0.00    -0.400 OA
HETATM   17  H   UNK N   1      43.006  43.165  47.499  0.00  0.00     0.209 HD
ENDBRANCH  15  16
ENDBRANCH   1  15
BRANCH   1  18
HETATM   18  C   UNK N   1      40.741  44.521  50.027  0.00  0.00    -0.046 A 
HETATM   19  C   UNK N   1      40.217  43.708  51.052  0.00  0.00     0.047 A 
HETATM   20  C   UNK N   1      40.646  43.855  52.385  0.00  0.00     0.101 A 
HETATM   21  C   UNK N   1      41.635  44.812  52.688  0.00  0.00     0.099 A 
HETATM   22  C   UNK N   1      42.158  45.619  51.671  0.00  0.00     0.040 A 
HETATM   23  C   UNK N   1      41.707  45.490  50.355  0.00  0.00     0.011 A 
BRANCH  20  24
HETATM   24  O   UNK N   1      40.119  43.109  53.397  0.00  0.00    -0.353 OA
HETATM   25  C   UNK N   1      38.965  42.354  53.319  0.00  0.00     0.210 C 
ENDBRANCH  20  24
BRANCH  21  26
HETATM   26  O   UNK N   1      42.085  44.973  53.949  0.00  0.00    -0.358 OA
HETATM   27  H   UNK N   1      41.880  45.759  54.476  0.00  0.00     0.218 HD
ENDBRANCH  21  26
ENDBRANCH   1  18
TORSDOF 10
ENDMDL
MODEL 4
REMARK VINA RESULT:      -6.9      1.002      5.944
REMARK  10 active torsions:
REMARK  status: ('A' for Active; 'I' for Inactive)
REMARK    1  A    between atoms: O_1  and  C_2 
REMARK    2  A    between atoms: C_3  and  O_4 
REMARK    3  A    between atoms: C_8  and  C_10 
REMARK    4  A    between atoms: C_10  and  O_11 
REMARK    5  A    between atoms: C_10  and  C_13 
REMARK    6  A    between atoms: C_13  and  C_14 
REMARK    7  A    between atoms: C_13  and  C_17 
REMARK    8  A    between atoms: C_14  and  O_15 
REMARK    9  A    between atoms: C_19  and  O_20 
REMARK   10  A    between atoms: C_22  and  O_23 
ROOT
HETATM    1  C   UNK N   1      40.001  46.041  47.984  0.00  0.00     0.075 C 
ENDROOT
BRANCH   1   2
HETATM    2  C   UNK N   1      41.090  46.393  46.935  0.00  0.00     0.161 C 
BRANCH   2   3
HETATM    3  C   UNK N   1      41.606  45.156  46.224  0.00  0.00    -0.026 A 
HETATM    4  C   UNK N   1      41.790  45.167  44.835  0.00  0.00     0.012 A 
HETATM    5  C   UNK N   1      42.258  44.032  44.177  0.00  0.00     0.040 A 
HETATM    6  C   UNK N   1      42.556  42.864  44.892  0.00  0.00     0.099 A 
HETATM    7  C   UNK N   1      42.378  42.833  46.290  0.00  0.00     0.101 A 
HETATM    8  C   UNK N   1      41.898  43.982  46.949  0.00  0.00     0.049 A 
BRANCH   6   9
HETATM    9  O   UNK N   1      43.008  41.786  44.221  0.00  0.00    -0.358 OA
HETATM   10  H   UNK N   1      43.588  41.127  44.628  0.00  0.00     0.218 HD
ENDBRANCH   6   9
BRANCH   7  11
HETATM   11  O   UNK N   1      42.678  41.685  46.965  0.00  0.00    -0.353 OA
HETATM   12  C   UNK N   1      43.033  40.482  46.388  0.00  0.00     0.210 C 
ENDBRANCH   7  11
ENDBRANCH   2   3
BRANCH   2  13
HETATM   13  O   UNK N   1      40.551  47.270  45.977  0.00  0.00    -0.390 OA
HETATM   14  H   UNK N   1      39.575  47.087  45.934  0.00  0.00     0.210 HD
ENDBRANCH   2  13
ENDBRANCH   1   2
BRANCH   1  15
HETATM   15  C   UNK N   1      38.974  45.021  47.439  0.00  0.00     0.176 C 
BRANCH  15  16
HETATM   16  O   UNK N   1      38.170  45.614  46.457  0.00  0.00    -0.400 OA
HETATM   17  H   UNK N   1      37.275  45.193  46.545  0.00  0.00     0.209 HD
ENDBRANCH  15  16
ENDBRANCH   1  15
BRANCH   1  18
HETATM   18  C   UNK N   1      40.648  45.601  49.295  0.00  0.00    -0.046 A 
HETATM   19  C   UNK N   1      40.046  44.566  50.038  0.00  0.00     0.047 A 
HETATM   20  C   UNK N   1      40.587  44.149  51.270  0.00  0.00     0.101 A 
HETATM   21  C   UNK N   1      41.764  44.760  51.747  0.00  0.00     0.099 A 
HETATM   22  C   UNK N   1      42.364  45.787  51.009  0.00  0.00     0.040 A 
HETATM   23  C   UNK N   1      41.807  46.218  49.802  0.00  0.00     0.011 A 
BRANCH  20  24
HETATM   24  O   UNK N   1      39.995  43.181  52.025  0.00  0.00    -0.353 OA
HETATM   25  C   UNK N   1      39.660  43.297  53.360  0.00  0.00     0.210 C 
ENDBRANCH  20  24
BRANCH  21  26
HETATM   26  O   UNK N   1      42.323  44.379  52.914  0.00  0.00    -0.358 OA
HETATM   27  H   UNK N   1      43.249  44.562  53.130  0.00  0.00     0.218 HD
ENDBRANCH  21  26
ENDBRANCH   1  18
TORSDOF 10
ENDMDL
MODEL 5
REMARK VINA RESULT:      -6.8      3.652      7.565
REMARK  10 active torsions:
REMARK  status: ('A' for Active; 'I' for Inactive)
REMARK    1  A    between atoms: O_1  and  C_2 
REMARK    2  A    between atoms: C_3  and  O_4 
REMARK    3  A    between atoms: C_8  and  C_10 
REMARK    4  A    between atoms: C_10  and  O_11 
REMARK    5  A    between atoms: C_10  and  C_13 
REMARK    6  A    between atoms: C_13  and  C_14 
REMARK    7  A    between atoms: C_13  and  C_17 
REMARK    8  A    between atoms: C_14  and  O_15 
REMARK    9  A    between atoms: C_19  and  O_20 
REMARK   10  A    between atoms: C_22  and  O_23 
ROOT
HETATM    1  C   UNK N   1      40.407  46.765  46.144  0.00  0.00     0.075 C 
ENDROOT
BRANCH   1   2
HETATM    2  C   UNK N   1      40.210  48.283  46.400  0.00  0.00     0.161 C 
BRANCH   2   3
HETATM    3  C   UNK N   1      39.857  49.026  45.125  0.00  0.00    -0.026 A 
HETATM    4  C   UNK N   1      40.581  50.165  44.750  0.00  0.00     0.012 A 
HETATM    5  C   UNK N   1      40.258  50.853  43.583  0.00  0.00     0.040 A 
HETATM    6  C   UNK N   1      39.207  50.417  42.764  0.00  0.00     0.099 A 
HETATM    7  C   UNK N   1      38.467  49.273  43.124  0.00  0.00     0.101 A 
HETATM    8  C   UNK N   1      38.794  48.584  44.308  0.00  0.00     0.049 A 
BRANCH   6   9
HETATM    9  O   UNK N   1      38.925  51.109  41.642  0.00  0.00    -0.358 OA
HETATM   10  H   UNK N   1      38.474  51.965  41.660  0.00  0.00     0.218 HD
ENDBRANCH   6   9
BRANCH   7  11
HETATM   11  O   UNK N   1      37.451  48.865  42.309  0.00  0.00    -0.353 OA
HETATM   12  C   UNK N   1      36.415  48.028  42.673  0.00  0.00     0.210 C 
ENDBRANCH   7  11
ENDBRANCH   2   3
BRANCH   2  13
HETATM   13  O   UNK N   1      39.172  48.470  47.331  0.00  0.00    -0.390 OA
HETATM   14  H   UNK N   1      38.639  49.248  47.017  0.00  0.00     0.210 HD
ENDBRANCH   2  13
ENDBRANCH   1   2
BRANCH   1  15
HETATM   15  C   UNK N   1      41.759  46.459  45.459  0.00  0.00     0.176 C 
BRANCH  15  16
HETATM   16  O   UNK N   1      41.625  45.385  44.569  0.00  0.00    -0.400 OA
HETATM   17  H   UNK N   1      41.382  45.784  43.692  0.00  0.00     0.209 HD
ENDBRANCH  15  16
ENDBRANCH   1  15
BRANCH   1  18
HETATM   18  C   UNK N   1      40.194  45.975  47.434  0.00  0.00    -0.046 A 
HETATM   19  C   UNK N   1      41.252  45.884  48.359  0.00  0.00     0.047 A 
HETATM   20  C   UNK N   1      41.114  45.139  49.546  0.00  0.00     0.101 A 
HETATM   21  C   UNK N   1      39.888  44.502  49.821  0.00  0.00     0.099 A 
HETATM   22  C   UNK N   1      38.835  44.594  48.903  0.00  0.00     0.040 A 
HETATM   23  C   UNK N   1      38.986  45.309  47.713  0.00  0.00     0.011 A 
BRANCH  20  24
HETATM   24  O   UNK N   1      42.142  45.001  50.432  0.00  0.00    -0.353 OA
HETATM   25  C   UNK N   1      42.283  45.704  51.613  0.00  0.00     0.210 C 
ENDBRANCH  20  24
BRANCH  21  26
HETATM   26  O   UNK N   1      39.710  43.793  50.954  0.00  0.00    -0.358 OA
HETATM   27  H   UNK N   1      40.436  43.596  51.563  0.00  0.00     0.218 HD
ENDBRANCH  21  26
ENDBRANCH   1  18
TORSDOF 10
ENDMDL
MODEL 6
REMARK VINA RESULT:      -6.6      3.534      6.180
REMARK  10 active torsions:
REMARK  status: ('A' for Active; 'I' for Inactive)
REMARK    1  A    between atoms: O_1  and  C_2 
REMARK    2  A    between atoms: C_3  and  O_4 
REMARK    3  A    between atoms: C_8  and  C_10 
REMARK    4  A    between atoms: C_10  and  O_11 
REMARK    5  A    between atoms: C_10  and  C_13 
REMARK    6  A    between atoms: C_13  and  C_14 
REMARK    7  A    between atoms: C_13  and  C_17 
REMARK    8  A    between atoms: C_14  and  O_15 
REMARK    9  A    between atoms: C_19  and  O_20 
REMARK   10  A    between atoms: C_22  and  O_23 
ROOT
HETATM    1  C   UNK N   1      40.330  48.000  46.426  0.00  0.00     0.075 C 
ENDROOT
BRANCH   1   2
HETATM    2  C   UNK N   1      39.545  46.662  46.374  0.00  0.00     0.161 C 
BRANCH   2   3
HETATM    3  C   UNK N   1      40.468  45.465  46.513  0.00  0.00    -0.026 A 
HETATM    4  C   UNK N   1      41.043  44.885  45.375  0.00  0.00     0.012 A 
HETATM    5  C   UNK N   1      41.887  43.782  45.496  0.00  0.00     0.040 A 
HETATM    6  C   UNK N   1      42.175  43.239  46.755  0.00  0.00     0.099 A 
HETATM    7  C   UNK N   1      41.606  43.809  47.912  0.00  0.00     0.101 A 
HETATM    8  C   UNK N   1      40.749  44.920  47.783  0.00  0.00     0.049 A 
BRANCH   6   9
HETATM    9  O   UNK N   1      42.996  42.173  46.832  0.00  0.00    -0.358 OA
HETATM   10  H   UNK N   1      42.730  41.342  47.251  0.00  0.00     0.218 HD
ENDBRANCH   6   9
BRANCH   7  11
HETATM   11  O   UNK N   1      41.904  43.265  49.127  0.00  0.00    -0.353 OA
HETATM   12  C   UNK N   1      41.257  43.546  50.314  0.00  0.00     0.210 C 
ENDBRANCH   7  11
ENDBRANCH   2   3
BRANCH   2  13
HETATM   13  O   UNK N   1      38.606  46.629  47.420  0.00  0.00    -0.390 OA
HETATM   14  H   UNK N   1      37.961  47.366  47.253  0.00  0.00     0.210 HD
ENDBRANCH   2  13
ENDBRANCH   1   2
BRANCH   1  15
HETATM   15  C   UNK N   1      41.852  47.778  46.590  0.00  0.00     0.176 C 
BRANCH  15  16
HETATM   16  O   UNK N   1      42.264  48.146  47.878  0.00  0.00    -0.400 OA
HETATM   17  H   UNK N   1      41.521  47.892  48.486  0.00  0.00     0.209 HD
ENDBRANCH  15  16
ENDBRANCH   1  15
BRANCH   1  18
HETATM   18  C   UNK N   1      39.975  48.873  45.225  0.00  0.00    -0.046 A 
HETATM   19  C   UNK N   1      38.906  48.484  44.393  0.00  0.00     0.047 A 
HETATM   20  C   UNK N   1      38.563  49.239  43.255  0.00  0.00     0.101 A 
HETATM   21  C   UNK N   1      39.284  50.414  42.964  0.00  0.00     0.099 A 
HETATM   22  C   UNK N   1      40.346  50.802  43.790  0.00  0.00     0.040 A 
HETATM   23  C   UNK N   1      40.701  50.034  44.902  0.00  0.00     0.011 A 
BRANCH  20  24
HETATM   24  O   UNK N   1      37.561  48.855  42.413  0.00  0.00    -0.353 OA
HETATM   25  C   UNK N   1      36.472  48.081  42.762  0.00  0.00     0.210 C 
ENDBRANCH  20  24
BRANCH  21  26
HETATM   26  O   UNK N   1      38.978  51.173  41.892  0.00  0.00    -0.358 OA
HETATM   27  H   UNK N   1      38.361  50.878  41.206  0.00  0.00     0.218 HD
ENDBRANCH  21  26
ENDBRANCH   1  18
TORSDOF 10
ENDMDL
MODEL 7
REMARK VINA RESULT:      -6.1      3.635      5.705
REMARK  10 active torsions:
REMARK  status: ('A' for Active; 'I' for Inactive)
REMARK    1  A    between atoms: O_1  and  C_2 
REMARK    2  A    between atoms: C_3  and  O_4 
REMARK    3  A    between atoms: C_8  and  C_10 
REMARK    4  A    between atoms: C_10  and  O_11 
REMARK    5  A    between atoms: C_10  and  C_13 
REMARK    6  A    between atoms: C_13  and  C_14 
REMARK    7  A    between atoms: C_13  and  C_17 
REMARK    8  A    between atoms: C_14  and  O_15 
REMARK    9  A    between atoms: C_19  and  O_20 
REMARK   10  A    between atoms: C_22  and  O_23 
ROOT
HETATM    1  C   UNK N   1      39.796  47.054  45.804  0.00  0.00     0.075 C 
ENDROOT
BRANCH   1   2
HETATM    2  C   UNK N   1      41.255  46.551  45.970  0.00  0.00     0.161 C 
BRANCH   2   3
HETATM    3  C   UNK N   1      41.619  46.359  47.431  0.00  0.00    -0.026 A 
HETATM    4  C   UNK N   1      42.232  47.395  48.146  0.00  0.00     0.012 A 
HETATM    5  C   UNK N   1      42.573  47.222  49.486  0.00  0.00     0.040 A 
HETATM    6  C   UNK N   1      42.306  46.012  50.140  0.00  0.00     0.099 A 
HETATM    7  C   UNK N   1      41.689  44.957  49.437  0.00  0.00     0.101 A 
HETATM    8  C   UNK N   1      41.352  45.136  48.081  0.00  0.00     0.049 A 
BRANCH   6   9
HETATM    9  O   UNK N   1      42.649  45.882  51.436  0.00  0.00    -0.358 OA
HETATM   10  H   UNK N   1      43.572  45.830  51.727  0.00  0.00     0.218 HD
ENDBRANCH   6   9
BRANCH   7  11
HETATM   11  O   UNK N   1      41.435  43.789  50.096  0.00  0.00    -0.353 OA
HETATM   12  C   UNK N   1      40.260  43.472  50.748  0.00  0.00     0.210 C 
ENDBRANCH   7  11
ENDBRANCH   2   3
BRANCH   2  13
HETATM   13  O   UNK N   1      41.406  45.322  45.304  0.00  0.00    -0.390 OA
HETATM   14  H   UNK N   1      41.370  44.611  45.997  0.00  0.00     0.210 HD
ENDBRANCH   2  13
ENDBRANCH   1   2
BRANCH   1  15
HETATM   15  C   UNK N   1      39.050  47.141  47.157  0.00  0.00     0.176 C 
BRANCH  15  16
HETATM   16  O   UNK N   1      38.174  46.058  47.303  0.00  0.00    -0.400 OA
HETATM   17  H   UNK N   1      38.715  45.317  47.684  0.00  0.00     0.209 HD
ENDBRANCH  15  16
ENDBRANCH   1  15
BRANCH   1  18
HETATM   18  C   UNK N   1      39.769  48.362  45.017  0.00  0.00    -0.046 A 
HETATM   19  C   UNK N   1      38.665  48.635  44.187  0.00  0.00     0.047 A 
HETATM   20  C   UNK N   1      38.611  49.813  43.416  0.00  0.00     0.101 A 
HETATM   21  C   UNK N   1      39.668  50.741  43.503  0.00  0.00     0.099 A 
HETATM   22  C   UNK N   1      40.766  50.471  44.329  0.00  0.00     0.040 A 
HETATM   23  C   UNK N   1      40.828  49.288  45.069  0.00  0.00     0.011 A 
BRANCH  20  24
HETATM   24  O   UNK N   1      37.573  50.074  42.572  0.00  0.00    -0.353 OA
HETATM   25  C   UNK N   1      36.233  49.954  42.888  0.00  0.00     0.210 C 
ENDBRANCH  20  24
BRANCH  21  26
HETATM   26  O   UNK N   1      39.648  51.888  42.794  0.00  0.00    -0.358 OA
HETATM   27  H   UNK N   1      39.891  51.923  41.857  0.00  0.00     0.218 HD
ENDBRANCH  21  26
ENDBRANCH   1  18
TORSDOF 10
ENDMDL
MODEL 8
REMARK VINA RESULT:      -6.1      4.050      8.015
REMARK  10 active torsions:
REMARK  status: ('A' for Active; 'I' for Inactive)
REMARK    1  A    between atoms: O_1  and  C_2 
REMARK    2  A    between atoms: C_3  and  O_4 
REMARK    3  A    between atoms: C_8  and  C_10 
REMARK    4  A    between atoms: C_10  and  O_11 
REMARK    5  A    between atoms: C_10  and  C_13 
REMARK    6  A    between atoms: C_13  and  C_14 
REMARK    7  A    between atoms: C_13  and  C_17 
REMARK    8  A    between atoms: C_14  and  O_15 
REMARK    9  A    between atoms: C_19  and  O_20 
REMARK   10  A    between atoms: C_22  and  O_23 
ROOT
HETATM    1  C   UNK N   1      40.430  47.199  46.207  0.00  0.00     0.075 C 
ENDROOT
BRANCH   1   2
HETATM    2  C   UNK N   1      39.995  48.688  46.176  0.00  0.00     0.161 C 
BRANCH   2   3
HETATM    3  C   UNK N   1      39.397  49.070  44.834  0.00  0.00    -0.026 A 
HETATM    4  C   UNK N   1      38.353  48.313  44.288  0.00  0.00     0.012 A 
HETATM    5  C   UNK N   1      37.804  48.656  43.055  0.00  0.00     0.040 A 
HETATM    6  C   UNK N   1      38.283  49.764  42.343  0.00  0.00     0.099 A 
HETATM    7  C   UNK N   1      39.333  50.539  42.877  0.00  0.00     0.101 A 
HETATM    8  C   UNK N   1      39.888  50.183  44.121  0.00  0.00     0.049 A 
BRANCH   6   9
HETATM    9  O   UNK N   1      37.726  50.066  41.154  0.00  0.00    -0.358 OA
HETATM   10  H   UNK N   1      37.390  49.387  40.550  0.00  0.00     0.218 HD
ENDBRANCH   6   9
BRANCH   7  11
HETATM   11  O   UNK N   1      39.781  51.616  42.167  0.00  0.00    -0.353 OA
HETATM   12  C   UNK N   1      40.141  52.837  42.701  0.00  0.00     0.210 C 
ENDBRANCH   7  11
ENDBRANCH   2   3
BRANCH   2  13
HETATM   13  O   UNK N   1      39.035  48.918  47.177  0.00  0.00    -0.390 OA
HETATM   14  H   UNK N   1      38.466  48.104  47.224  0.00  0.00     0.210 HD
ENDBRANCH   2  13
ENDBRANCH   1   2
BRANCH   1  15
HETATM   15  C   UNK N   1      41.373  46.841  45.035  0.00  0.00     0.176 C 
BRANCH  15  16
HETATM   16  O   UNK N   1      41.308  45.469  44.756  0.00  0.00    -0.400 OA
HETATM   17  H   UNK N   1      42.176  45.234  44.334  0.00  0.00     0.209 HD
ENDBRANCH  15  16
ENDBRANCH   1  15
BRANCH   1  18
HETATM   18  C   UNK N   1      41.008  46.841  47.575  0.00  0.00    -0.046 A 
HETATM   19  C   UNK N   1      40.466  45.747  48.278  0.00  0.00     0.047 A 
HETATM   20  C   UNK N   1      40.943  45.400  49.557  0.00  0.00     0.101 A 
HETATM   21  C   UNK N   1      41.997  46.144  50.123  0.00  0.00     0.099 A 
HETATM   22  C   UNK N   1      42.537  47.230  49.425  0.00  0.00     0.040 A 
HETATM   23  C   UNK N   1      42.040  47.589  48.169  0.00  0.00     0.011 A 
BRANCH  20  24
HETATM   24  O   UNK N   1      40.402  44.373  50.272  0.00  0.00    -0.353 OA
HETATM   25  C   UNK N   1      40.312  43.061  49.850  0.00  0.00     0.210 C 
ENDBRANCH  20  24
BRANCH  21  26
HETATM   26  O   UNK N   1      42.494  45.834  51.339  0.00  0.00    -0.358 OA
HETATM   27  H   UNK N   1      43.291  46.252  51.695  0.00  0.00     0.218 HD
ENDBRANCH  21  26
ENDBRANCH   1  18
TORSDOF 10
ENDMDL
MODEL 9
REMARK VINA RESULT:      -5.8      3.806      7.677
REMARK  10 active torsions:
REMARK  status: ('A' for Active; 'I' for Inactive)
REMARK    1  A    between atoms: O_1  and  C_2 
REMARK    2  A    between atoms: C_3  and  O_4 
REMARK    3  A    between atoms: C_8  and  C_10 
REMARK    4  A    between atoms: C_10  and  O_11 
REMARK    5  A    between atoms: C_10  and  C_13 
REMARK    6  A    between atoms: C_13  and  C_14 
REMARK    7  A    between atoms: C_13  and  C_17 
REMARK    8  A    between atoms: C_14  and  O_15 
REMARK    9  A    between atoms: C_19  and  O_20 
REMARK   10  A    between atoms: C_22  and  O_23 
ROOT
HETATM    1  C   UNK N   1      40.884  47.475  46.319  0.00  0.00     0.075 C 
ENDROOT
BRANCH   1   2
HETATM    2  C   UNK N   1      40.115  48.821  46.393  0.00  0.00     0.161 C 
BRANCH   2   3
HETATM    3  C   UNK N   1      39.674  49.291  45.019  0.00  0.00    -0.026 A 
HETATM    4  C   UNK N   1      40.309  50.382  44.411  0.00  0.00     0.012 A 
HETATM    5  C   UNK N   1      39.905  50.821  43.152  0.00  0.00     0.040 A 
HETATM    6  C   UNK N   1      38.862  50.178  42.473  0.00  0.00     0.099 A 
HETATM    7  C   UNK N   1      38.211  49.078  43.067  0.00  0.00     0.101 A 
HETATM    8  C   UNK N   1      38.620  48.642  44.343  0.00  0.00     0.049 A 
BRANCH   6   9
HETATM    9  O   UNK N   1      38.500  50.631  41.256  0.00  0.00    -0.358 OA
HETATM   10  H   UNK N   1      38.739  50.170  40.439  0.00  0.00     0.218 HD
ENDBRANCH   6   9
BRANCH   7  11
HETATM   11  O   UNK N   1      37.200  48.465  42.385  0.00  0.00    -0.353 OA
HETATM   12  C   UNK N   1      36.191  47.710  42.949  0.00  0.00     0.210 C 
ENDBRANCH   7  11
ENDBRANCH   2   3
BRANCH   2  13
HETATM   13  O   UNK N   1      38.975  48.665  47.201  0.00  0.00    -0.390 OA
HETATM   14  H   UNK N   1      38.531  49.553  47.249  0.00  0.00     0.210 HD
ENDBRANCH   2  13
ENDBRANCH   1   2
BRANCH   1  15
HETATM   15  C   UNK N   1      42.057  47.527  45.312  0.00  0.00     0.176 C 
BRANCH  15  16
HETATM   16  O   UNK N   1      42.883  48.625  45.580  0.00  0.00    -0.400 OA
HETATM   17  H   UNK N   1      43.331  48.848  44.722  0.00  0.00     0.209 HD
ENDBRANCH  15  16
ENDBRANCH   1  15
BRANCH   1  18
HETATM   18  C   UNK N   1      41.310  47.028  47.716  0.00  0.00    -0.046 A 
HETATM   19  C   UNK N   1      40.659  45.927  48.307  0.00  0.00     0.047 A 
HETATM   20  C   UNK N   1      40.995  45.499  49.606  0.00  0.00     0.101 A 
HETATM   21  C   UNK N   1      42.016  46.168  50.309  0.00  0.00     0.099 A 
HETATM   22  C   UNK N   1      42.665  47.261  49.722  0.00  0.00     0.040 A 
HETATM   23  C   UNK N   1      42.309  47.700  48.445  0.00  0.00     0.011 A 
BRANCH  20  24
HETATM   24  O   UNK N   1      40.345  44.465  50.213  0.00  0.00    -0.353 OA
HETATM   25  C   UNK N   1      39.719  43.420  49.563  0.00  0.00     0.210 C 
ENDBRANCH  20  24
BRANCH  21  26
HETATM   26  O   UNK N   1      42.379  45.780  51.549  0.00  0.00    -0.358 OA
HETATM   27  H   UNK N   1      43.279  45.895  51.886  0.00  0.00     0.218 HD
ENDBRANCH  21  26
ENDBRANCH   1  18
TORSDOF 10
ENDMDL
