MODEL 1
REMARK VINA RESULT:      -7.6      0.000      0.000
REMARK  11 active torsions:
REMARK  status: ('A' for Active; 'I' for Inactive)
REMARK    1  A    between atoms: C_2  and  O_3 
REMARK    2  A    between atoms: C_2  and  C_28 
REMARK    3  A    between atoms: O_3  and  C_4 
REMARK    4  A    between atoms: C_8  and  C_13 
REMARK    5  A    between atoms: C_9  and  O_10 
REMARK    6  A    between atoms: C_15  and  O_16 
REMARK    7  A    between atoms: C_18  and  O_19 
REMARK    8  A    between atoms: C_24  and  O_26 
REMARK    9  A    between atoms: C_30  and  O_31 
REMARK   10  A    between atoms: C_33  and  O_34 
REMARK   11  A    between atoms: C_36  and  O_38 
ROOT
HETATM    1  C   UNK N   1      41.787  44.434  47.197  0.00  0.00     0.091 A 
HETATM    2  C   UNK N   1      41.269  45.585  46.587  0.00  0.00     0.012 A 
HETATM    3  C   UNK N   1      41.242  45.673  45.184  0.00  0.00     0.081 A 
HETATM    4  O   UNK N   1      40.719  46.767  44.580  0.00  0.00    -0.338 OA
HETATM    5  C   UNK N   1      39.933  47.693  45.254  0.00  0.00     0.191 C 
HETATM    6  C   UNK N   1      40.577  48.023  46.609  0.00  0.00     0.156 C 
HETATM    7  C   UNK N   1      40.731  46.726  47.427  0.00  0.00     0.079 C 
HETATM    8  C   UNK N   1      41.755  44.629  44.407  0.00  0.00     0.074 A 
HETATM    9  C   UNK N   1      42.275  43.483  45.021  0.00  0.00     0.071 A 
HETATM   10  C   UNK N   1      42.285  43.385  46.420  0.00  0.00     0.074 A 
ENDROOT
BRANCH   1  11
HETATM   11  O   UNK N   1      41.842  44.374  48.540  0.00  0.00    -0.274 OA
BRANCH  11  12
HETATM   12  C   UNK N   1      40.729  44.098  49.267  0.00  0.00     0.298 C 
HETATM   13  O   UNK N   1      39.699  43.745  48.708  0.00  0.00    -0.259 OA
BRANCH  12  14
HETATM   14  C   UNK N   1      40.810  44.111  50.740  0.00  0.00     0.045 A 
HETATM   15  C   UNK N   1      40.015  43.240  51.500  0.00  0.00     0.057 A 
HETATM   16  C   UNK N   1      40.123  43.221  52.895  0.00  0.00     0.102 A 
HETATM   17  C   UNK N   1      41.033  44.080  53.541  0.00  0.00     0.132 A 
HETATM   18  C   UNK N   1      41.831  44.953  52.778  0.00  0.00     0.102 A 
HETATM   19  C   UNK N   1      41.716  44.963  51.386  0.00  0.00     0.057 A 
BRANCH  16  20
HETATM   20  O   UNK N   1      39.361  42.373  53.618  0.00  0.00    -0.358 OA
HETATM   21  H   UNK N   1      39.731  41.570  54.016  0.00  0.00     0.218 HD
ENDBRANCH  16  20
BRANCH  17  22
HETATM   22  O   UNK N   1      41.151  44.071  54.886  0.00  0.00    -0.356 OA
HETATM   23  H   UNK N   1      40.413  44.292  55.471  0.00  0.00     0.218 HD
ENDBRANCH  17  22
BRANCH  18  24
HETATM   24  O   UNK N   1      42.717  45.783  53.366  0.00  0.00    -0.358 OA
HETATM   25  H   UNK N   1      42.952  45.714  54.301  0.00  0.00     0.218 HD
ENDBRANCH  18  24
ENDBRANCH  12  14
ENDBRANCH  11  12
ENDBRANCH   1  11
BRANCH   9  26
HETATM   26  O   UNK N   1      42.766  42.483  44.261  0.00  0.00    -0.361 OA
HETATM   27  H   UNK N   1      43.473  42.637  43.617  0.00  0.00     0.217 HD
ENDBRANCH   9  26
BRANCH   6  28
HETATM   28  O   UNK N   1      39.801  48.954  47.319  0.00  0.00    -0.392 OA
HETATM   29  H   UNK N   1      40.386  49.733  47.514  0.00  0.00     0.210 HD
ENDBRANCH   6  28
BRANCH   5  30
HETATM   30  C   UNK N   1      39.762  48.930  44.403  0.00  0.00    -0.024 A 
HETATM   31  C   UNK N   1      38.898  48.906  43.298  0.00  0.00     0.049 A 
HETATM   32  C   UNK N   1      38.741  50.034  42.485  0.00  0.00     0.099 A 
HETATM   33  C   UNK N   1      39.469  51.216  42.782  0.00  0.00     0.098 A 
HETATM   34  C   UNK N   1      40.315  51.240  43.896  0.00  0.00     0.040 A 
HETATM   35  C   UNK N   1      40.463  50.111  44.701  0.00  0.00     0.013 A 
BRANCH  32  36
HETATM   36  O   UNK N   1      37.891  49.952  41.437  0.00  0.00    -0.358 OA
HETATM   37  H   UNK N   1      36.935  49.877  41.520  0.00  0.00     0.218 HD
ENDBRANCH  32  36
BRANCH  33  38
HETATM   38  O   UNK N   1      39.384  52.330  42.023  0.00  0.00    -0.358 OA
HETATM   39  H   UNK N   1      39.189  53.207  42.370  0.00  0.00     0.218 HD
ENDBRANCH  33  38
ENDBRANCH   5  30
TORSDOF 11
ENDMDL
MODEL 2
REMARK VINA RESULT:      -6.7     13.269     15.918
REMARK  11 active torsions:
REMARK  status: ('A' for Active; 'I' for Inactive)
REMARK    1  A    between atoms: C_2  and  O_3 
REMARK    2  A    between atoms: C_2  and  C_28 
REMARK    3  A    between atoms: O_3  and  C_4 
REMARK    4  A    between atoms: C_8  and  C_13 
REMARK    5  A    between atoms: C_9  and  O_10 
REMARK    6  A    between atoms: C_15  and  O_16 
REMARK    7  A    between atoms: C_18  and  O_19 
REMARK    8  A    between atoms: C_24  and  O_26 
REMARK    9  A    between atoms: C_30  and  O_31 
REMARK   10  A    between atoms: C_33  and  O_34 
REMARK   11  A    between atoms: C_36  and  O_38 
ROOT
HETATM    1  C   UNK N   1      29.312  42.322  59.676  0.00  0.00     0.091 A 
HETATM    2  C   UNK N   1      29.157  42.220  58.286  0.00  0.00     0.012 A 
HETATM    3  C   UNK N   1      28.580  43.286  57.574  0.00  0.00     0.081 A 
HETATM    4  O   UNK N   1      28.448  43.214  56.228  0.00  0.00    -0.338 OA
HETATM    5  C   UNK N   1      29.116  42.272  55.458  0.00  0.00     0.191 C 
HETATM    6  C   UNK N   1      29.016  40.895  56.131  0.00  0.00     0.156 C 
HETATM    7  C   UNK N   1      29.613  40.978  57.549  0.00  0.00     0.079 C 
HETATM    8  C   UNK N   1      28.140  44.427  58.256  0.00  0.00     0.074 A 
HETATM    9  C   UNK N   1      28.294  44.522  59.644  0.00  0.00     0.071 A 
HETATM   10  C   UNK N   1      28.886  43.468  60.354  0.00  0.00     0.074 A 
ENDROOT
BRANCH   1  11
HETATM   11  O   UNK N   1      29.832  41.282  60.354  0.00  0.00    -0.274 OA
BRANCH  11  12
HETATM   12  C   UNK N   1      30.651  41.488  61.416  0.00  0.00     0.298 C 
HETATM   13  O   UNK N   1      30.319  41.112  62.533  0.00  0.00    -0.259 OA
BRANCH  12  14
HETATM   14  C   UNK N   1      31.992  42.059  61.192  0.00  0.00     0.045 A 
HETATM   15  C   UNK N   1      32.759  41.654  60.089  0.00  0.00     0.057 A 
HETATM   16  C   UNK N   1      34.013  42.228  59.850  0.00  0.00     0.102 A 
HETATM   17  C   UNK N   1      34.509  43.217  60.721  0.00  0.00     0.132 A 
HETATM   18  C   UNK N   1      33.739  43.625  61.827  0.00  0.00     0.102 A 
HETATM   19  C   UNK N   1      32.488  43.046  62.055  0.00  0.00     0.057 A 
BRANCH  16  20
HETATM   20  O   UNK N   1      34.740  41.838  58.782  0.00  0.00    -0.358 OA
HETATM   21  H   UNK N   1      34.434  41.137  58.187  0.00  0.00     0.218 HD
ENDBRANCH  16  20
BRANCH  17  22
HETATM   22  O   UNK N   1      35.716  43.783  60.503  0.00  0.00    -0.356 OA
HETATM   23  H   UNK N   1      35.986  44.104  59.632  0.00  0.00     0.218 HD
ENDBRANCH  17  22
BRANCH  18  24
HETATM   24  O   UNK N   1      34.183  44.575  62.675  0.00  0.00    -0.358 OA
HETATM   25  H   UNK N   1      33.670  44.870  63.440  0.00  0.00     0.218 HD
ENDBRANCH  18  24
ENDBRANCH  12  14
ENDBRANCH  11  12
ENDBRANCH   1  11
BRANCH   9  26
HETATM   26  O   UNK N   1      27.867  45.626  60.288  0.00  0.00    -0.361 OA
HETATM   27  H   UNK N   1      27.245  46.245  59.876  0.00  0.00     0.217 HD
ENDBRANCH   9  26
BRANCH   6  28
HETATM   28  O   UNK N   1      29.689  39.918  55.378  0.00  0.00    -0.392 OA
HETATM   29  H   UNK N   1      29.414  40.041  54.431  0.00  0.00     0.210 HD
ENDBRANCH   6  28
BRANCH   5  30
HETATM   30  C   UNK N   1      28.538  42.253  54.062  0.00  0.00    -0.024 A 
HETATM   31  C   UNK N   1      29.387  42.107  52.954  0.00  0.00     0.049 A 
HETATM   32  C   UNK N   1      28.873  42.108  51.653  0.00  0.00     0.099 A 
HETATM   33  C   UNK N   1      27.476  42.260  51.452  0.00  0.00     0.098 A 
HETATM   34  C   UNK N   1      26.633  42.386  52.562  0.00  0.00     0.040 A 
HETATM   35  C   UNK N   1      27.154  42.382  53.855  0.00  0.00     0.013 A 
BRANCH  32  36
HETATM   36  O   UNK N   1      29.739  41.960  50.625  0.00  0.00    -0.358 OA
HETATM   37  H   UNK N   1      30.321  42.657  50.303  0.00  0.00     0.218 HD
ENDBRANCH  32  36
BRANCH  33  38
HETATM   38  O   UNK N   1      26.920  42.296  50.222  0.00  0.00    -0.358 OA
HETATM   39  H   UNK N   1      25.971  42.252  50.055  0.00  0.00     0.218 HD
ENDBRANCH  33  38
ENDBRANCH   5  30
TORSDOF 11
ENDMDL
MODEL 3
REMARK VINA RESULT:      -6.5     13.379     15.982
REMARK  11 active torsions:
REMARK  status: ('A' for Active; 'I' for Inactive)
REMARK    1  A    between atoms: C_2  and  O_3 
REMARK    2  A    between atoms: C_2  and  C_28 
REMARK    3  A    between atoms: O_3  and  C_4 
REMARK    4  A    between atoms: C_8  and  C_13 
REMARK    5  A    between atoms: C_9  and  O_10 
REMARK    6  A    between atoms: C_15  and  O_16 
REMARK    7  A    between atoms: C_18  and  O_19 
REMARK    8  A    between atoms: C_24  and  O_26 
REMARK    9  A    between atoms: C_30  and  O_31 
REMARK   10  A    between atoms: C_33  and  O_34 
REMARK   11  A    between atoms: C_36  and  O_38 
ROOT
HETATM    1  C   UNK N   1      30.761  43.715  59.453  0.00  0.00     0.091 A 
HETATM    2  C   UNK N   1      30.183  43.224  58.274  0.00  0.00     0.012 A 
HETATM    3  C   UNK N   1      31.008  42.689  57.269  0.00  0.00     0.081 A 
HETATM    4  O   UNK N   1      30.462  42.185  56.136  0.00  0.00    -0.338 OA
HETATM    5  C   UNK N   1      29.110  41.891  56.021  0.00  0.00     0.191 C 
HETATM    6  C   UNK N   1      28.283  43.046  56.608  0.00  0.00     0.156 C 
HETATM    7  C   UNK N   1      28.681  43.258  58.081  0.00  0.00     0.079 C 
HETATM    8  C   UNK N   1      32.397  42.673  57.438  0.00  0.00     0.074 A 
HETATM    9  C   UNK N   1      32.970  43.169  58.615  0.00  0.00     0.071 A 
HETATM   10  C   UNK N   1      32.148  43.686  59.626  0.00  0.00     0.074 A 
ENDROOT
BRANCH   1  11
HETATM   11  O   UNK N   1      29.968  44.259  60.394  0.00  0.00    -0.274 OA
BRANCH  11  12
HETATM   12  C   UNK N   1      29.913  45.605  60.560  0.00  0.00     0.298 C 
HETATM   13  O   UNK N   1      30.352  46.119  61.580  0.00  0.00    -0.259 OA
BRANCH  12  14
HETATM   14  C   UNK N   1      29.431  46.448  59.450  0.00  0.00     0.045 A 
HETATM   15  C   UNK N   1      30.340  47.022  58.550  0.00  0.00     0.057 A 
HETATM   16  C   UNK N   1      29.882  47.786  57.470  0.00  0.00     0.102 A 
HETATM   17  C   UNK N   1      28.499  47.981  57.287  0.00  0.00     0.132 A 
HETATM   18  C   UNK N   1      27.586  47.405  58.190  0.00  0.00     0.102 A 
HETATM   19  C   UNK N   1      28.055  46.643  59.263  0.00  0.00     0.057 A 
BRANCH  16  20
HETATM   20  O   UNK N   1      30.764  48.326  56.604  0.00  0.00    -0.358 OA
HETATM   21  H   UNK N   1      30.868  49.285  56.516  0.00  0.00     0.218 HD
ENDBRANCH  16  20
BRANCH  17  22
HETATM   22  O   UNK N   1      28.040  48.713  56.249  0.00  0.00    -0.356 OA
HETATM   23  H   UNK N   1      27.671  48.306  55.453  0.00  0.00     0.218 HD
ENDBRANCH  17  22
BRANCH  18  24
HETATM   24  O   UNK N   1      26.255  47.568  58.038  0.00  0.00    -0.358 OA
HETATM   25  H   UNK N   1      25.846  48.438  57.941  0.00  0.00     0.218 HD
ENDBRANCH  18  24
ENDBRANCH  12  14
ENDBRANCH  11  12
ENDBRANCH   1  11
BRANCH   9  26
HETATM   26  O   UNK N   1      34.310  43.148  58.765  0.00  0.00    -0.361 OA
HETATM   27  H   UNK N   1      34.725  43.292  59.628  0.00  0.00     0.217 HD
ENDBRANCH   9  26
BRANCH   6  28
HETATM   28  O   UNK N   1      26.907  42.776  56.512  0.00  0.00    -0.392 OA
HETATM   29  H   UNK N   1      26.753  41.893  56.940  0.00  0.00     0.210 HD
ENDBRANCH   6  28
BRANCH   5  30
HETATM   30  C   UNK N   1      28.765  41.641  54.571  0.00  0.00    -0.024 A 
HETATM   31  C   UNK N   1      29.168  42.557  53.588  0.00  0.00     0.049 A 
HETATM   32  C   UNK N   1      28.841  42.355  52.242  0.00  0.00     0.099 A 
HETATM   33  C   UNK N   1      28.091  41.208  51.870  0.00  0.00     0.098 A 
HETATM   34  C   UNK N   1      27.709  40.289  52.853  0.00  0.00     0.040 A 
HETATM   35  C   UNK N   1      28.041  40.499  54.190  0.00  0.00     0.013 A 
BRANCH  32  36
HETATM   36  O   UNK N   1      29.259  43.269  51.339  0.00  0.00    -0.358 OA
HETATM   37  H   UNK N   1      29.630  43.050  50.478  0.00  0.00     0.218 HD
ENDBRANCH  32  36
BRANCH  33  38
HETATM   38  O   UNK N   1      27.720  40.968  50.593  0.00  0.00    -0.358 OA
HETATM   39  H   UNK N   1      27.906  41.559  49.856  0.00  0.00     0.218 HD
ENDBRANCH  33  38
ENDBRANCH   5  30
TORSDOF 11
ENDMDL
MODEL 4
REMARK VINA RESULT:      -6.5     14.363     17.799
REMARK  11 active torsions:
REMARK  status: ('A' for Active; 'I' for Inactive)
REMARK    1  A    between atoms: C_2  and  O_3 
REMARK    2  A    between atoms: C_2  and  C_28 
REMARK    3  A    between atoms: O_3  and  C_4 
REMARK    4  A    between atoms: C_8  and  C_13 
REMARK    5  A    between atoms: C_9  and  O_10 
REMARK    6  A    between atoms: C_15  and  O_16 
REMARK    7  A    between atoms: C_18  and  O_19 
REMARK    8  A    between atoms: C_24  and  O_26 
REMARK    9  A    between atoms: C_30  and  O_31 
REMARK   10  A    between atoms: C_33  and  O_34 
REMARK   11  A    between atoms: C_36  and  O_38 
ROOT
HETATM    1  C   UNK N   1      31.378  42.642  62.104  0.00  0.00     0.091 A 
HETATM    2  C   UNK N   1      32.636  43.250  62.221  0.00  0.00     0.012 A 
HETATM    3  C   UNK N   1      32.940  43.999  63.371  0.00  0.00     0.081 A 
HETATM    4  O   UNK N   1      34.161  44.569  63.510  0.00  0.00    -0.338 OA
HETATM    5  C   UNK N   1      35.247  44.219  62.720  0.00  0.00     0.191 C 
HETATM    6  C   UNK N   1      34.805  44.131  61.251  0.00  0.00     0.156 C 
HETATM    7  C   UNK N   1      33.669  43.098  61.123  0.00  0.00     0.079 C 
HETATM    8  C   UNK N   1      31.980  44.156  64.378  0.00  0.00     0.074 A 
HETATM    9  C   UNK N   1      30.724  43.551  64.255  0.00  0.00     0.071 A 
HETATM   10  C   UNK N   1      30.426  42.788  63.117  0.00  0.00     0.074 A 
ENDROOT
BRANCH   1  11
HETATM   11  O   UNK N   1      31.083  41.958  60.984  0.00  0.00    -0.274 OA
BRANCH  11  12
HETATM   12  C   UNK N   1      30.075  42.363  60.171  0.00  0.00     0.298 C 
HETATM   13  O   UNK N   1      29.022  41.741  60.136  0.00  0.00    -0.259 OA
BRANCH  12  14
HETATM   14  C   UNK N   1      30.217  43.626  59.422  0.00  0.00     0.045 A 
HETATM   15  C   UNK N   1      29.378  44.714  59.703  0.00  0.00     0.057 A 
HETATM   16  C   UNK N   1      29.540  45.927  59.024  0.00  0.00     0.102 A 
HETATM   17  C   UNK N   1      30.552  46.058  58.054  0.00  0.00     0.132 A 
HETATM   18  C   UNK N   1      31.396  44.966  57.773  0.00  0.00     0.102 A 
HETATM   19  C   UNK N   1      31.225  43.761  58.457  0.00  0.00     0.057 A 
BRANCH  16  20
HETATM   20  O   UNK N   1      28.733  46.972  59.307  0.00  0.00    -0.358 OA
HETATM   21  H   UNK N   1      28.942  47.598  60.016  0.00  0.00     0.218 HD
ENDBRANCH  16  20
BRANCH  17  22
HETATM   22  O   UNK N   1      30.725  47.223  57.392  0.00  0.00    -0.356 OA
HETATM   23  H   UNK N   1      31.602  47.577  57.191  0.00  0.00     0.218 HD
ENDBRANCH  17  22
BRANCH  18  24
HETATM   24  O   UNK N   1      32.380  45.062  56.854  0.00  0.00    -0.358 OA
HETATM   25  H   UNK N   1      33.156  45.624  56.981  0.00  0.00     0.218 HD
ENDBRANCH  18  24
ENDBRANCH  12  14
ENDBRANCH  11  12
ENDBRANCH   1  11
BRANCH   9  26
HETATM   26  O   UNK N   1      29.809  43.710  65.232  0.00  0.00    -0.361 OA
HETATM   27  H   UNK N   1      29.126  43.043  65.401  0.00  0.00     0.217 HD
ENDBRANCH   9  26
BRANCH   6  28
HETATM   28  O   UNK N   1      35.882  43.772  60.424  0.00  0.00    -0.392 OA
HETATM   29  H   UNK N   1      36.712  44.075  60.879  0.00  0.00     0.210 HD
ENDBRANCH   6  28
BRANCH   5  30
HETATM   30  C   UNK N   1      36.358  45.225  62.907  0.00  0.00    -0.024 A 
HETATM   31  C   UNK N   1      37.583  44.821  63.461  0.00  0.00     0.049 A 
HETATM   32  C   UNK N   1      38.617  45.742  63.663  0.00  0.00     0.099 A 
HETATM   33  C   UNK N   1      38.422  47.102  63.304  0.00  0.00     0.098 A 
HETATM   34  C   UNK N   1      37.206  47.494  62.735  0.00  0.00     0.040 A 
HETATM   35  C   UNK N   1      36.183  46.569  62.537  0.00  0.00     0.013 A 
BRANCH  32  36
HETATM   36  O   UNK N   1      39.775  45.294  64.196  0.00  0.00    -0.358 OA
HETATM   37  H   UNK N   1      39.986  45.325  65.136  0.00  0.00     0.218 HD
ENDBRANCH  32  36
BRANCH  33  38
HETATM   38  O   UNK N   1      39.370  48.045  63.497  0.00  0.00    -0.358 OA
HETATM   39  H   UNK N   1      39.527  48.489  64.338  0.00  0.00     0.218 HD
ENDBRANCH  33  38
ENDBRANCH   5  30
TORSDOF 11
ENDMDL
MODEL 5
REMARK VINA RESULT:      -6.5     13.471     16.315
REMARK  11 active torsions:
REMARK  status: ('A' for Active; 'I' for Inactive)
REMARK    1  A    between atoms: C_2  and  O_3 
REMARK    2  A    between atoms: C_2  and  C_28 
REMARK    3  A    between atoms: O_3  and  C_4 
REMARK    4  A    between atoms: C_8  and  C_13 
REMARK    5  A    between atoms: C_9  and  O_10 
REMARK    6  A    between atoms: C_15  and  O_16 
REMARK    7  A    between atoms: C_18  and  O_19 
REMARK    8  A    between atoms: C_24  and  O_26 
REMARK    9  A    between atoms: C_30  and  O_31 
REMARK   10  A    between atoms: C_33  and  O_34 
REMARK   11  A    between atoms: C_36  and  O_38 
ROOT
HETATM    1  C   UNK N   1      29.708  43.108  57.456  0.00  0.00     0.091 A 
HETATM    2  C   UNK N   1      29.436  44.474  57.612  0.00  0.00     0.012 A 
HETATM    3  C   UNK N   1      30.497  45.373  57.816  0.00  0.00     0.081 A 
HETATM    4  O   UNK N   1      30.252  46.699  57.941  0.00  0.00    -0.338 OA
HETATM    5  C   UNK N   1      29.039  47.275  57.588  0.00  0.00     0.191 C 
HETATM    6  C   UNK N   1      27.886  46.413  58.124  0.00  0.00     0.156 C 
HETATM    7  C   UNK N   1      28.011  44.987  57.555  0.00  0.00     0.079 C 
HETATM    8  C   UNK N   1      31.812  44.899  57.888  0.00  0.00     0.074 A 
HETATM    9  C   UNK N   1      32.078  43.533  57.735  0.00  0.00     0.071 A 
HETATM   10  C   UNK N   1      31.023  42.637  57.514  0.00  0.00     0.074 A 
ENDROOT
BRANCH   1  11
HETATM   11  O   UNK N   1      28.683  42.250  57.298  0.00  0.00    -0.274 OA
BRANCH  11  12
HETATM   12  C   UNK N   1      28.610  41.453  56.202  0.00  0.00     0.298 C 
HETATM   13  O   UNK N   1      28.663  40.236  56.319  0.00  0.00    -0.259 OA
BRANCH  12  14
HETATM   14  C   UNK N   1      28.345  42.062  54.885  0.00  0.00     0.045 A 
HETATM   15  C   UNK N   1      29.247  41.882  53.827  0.00  0.00     0.057 A 
HETATM   16  C   UNK N   1      28.975  42.422  52.564  0.00  0.00     0.102 A 
HETATM   17  C   UNK N   1      27.790  43.152  52.354  0.00  0.00     0.132 A 
HETATM   18  C   UNK N   1      26.883  43.332  53.417  0.00  0.00     0.102 A 
HETATM   19  C   UNK N   1      27.164  42.787  54.672  0.00  0.00     0.057 A 
BRANCH  16  20
HETATM   20  O   UNK N   1      29.845  42.235  51.549  0.00  0.00    -0.358 OA
HETATM   21  H   UNK N   1      29.964  41.368  51.134  0.00  0.00     0.218 HD
ENDBRANCH  16  20
BRANCH  17  22
HETATM   22  O   UNK N   1      27.510  43.677  51.142  0.00  0.00    -0.356 OA
HETATM   23  H   UNK N   1      28.097  43.563  50.382  0.00  0.00     0.218 HD
ENDBRANCH  17  22
BRANCH  18  24
HETATM   24  O   UNK N   1      25.735  44.020  53.246  0.00  0.00    -0.358 OA
HETATM   25  H   UNK N   1      25.185  43.926  52.456  0.00  0.00     0.218 HD
ENDBRANCH  18  24
ENDBRANCH  12  14
ENDBRANCH  11  12
ENDBRANCH   1  11
BRANCH   9  26
HETATM   26  O   UNK N   1      33.350  43.090  57.807  0.00  0.00    -0.361 OA
HETATM   27  H   UNK N   1      33.953  43.392  58.502  0.00  0.00     0.217 HD
ENDBRANCH   9  26
BRANCH   6  28
HETATM   28  O   UNK N   1      26.642  46.966  57.777  0.00  0.00    -0.392 OA
HETATM   29  H   UNK N   1      26.815  47.660  57.087  0.00  0.00     0.210 HD
ENDBRANCH   6  28
BRANCH   5  30
HETATM   30  C   UNK N   1      28.972  48.688  58.120  0.00  0.00    -0.024 A 
HETATM   31  C   UNK N   1      29.233  48.938  59.476  0.00  0.00     0.049 A 
HETATM   32  C   UNK N   1      29.156  50.235  59.993  0.00  0.00     0.099 A 
HETATM   33  C   UNK N   1      28.806  51.311  59.135  0.00  0.00     0.098 A 
HETATM   34  C   UNK N   1      28.566  51.058  57.780  0.00  0.00     0.040 A 
HETATM   35  C   UNK N   1      28.647  49.761  57.274  0.00  0.00     0.013 A 
BRANCH  32  36
HETATM   36  O   UNK N   1      29.422  50.416  61.306  0.00  0.00    -0.358 OA
HETATM   37  H   UNK N   1      28.953  51.037  61.874  0.00  0.00     0.218 HD
ENDBRANCH  32  36
BRANCH  33  38
HETATM   38  O   UNK N   1      28.688  52.582  59.576  0.00  0.00    -0.358 OA
HETATM   39  H   UNK N   1      28.517  52.822  60.494  0.00  0.00     0.218 HD
ENDBRANCH  33  38
ENDBRANCH   5  30
TORSDOF 11
ENDMDL
MODEL 6
REMARK VINA RESULT:      -6.4     13.720     15.728
REMARK  11 active torsions:
REMARK  status: ('A' for Active; 'I' for Inactive)
REMARK    1  A    between atoms: C_2  and  O_3 
REMARK    2  A    between atoms: C_2  and  C_28 
REMARK    3  A    between atoms: O_3  and  C_4 
REMARK    4  A    between atoms: C_8  and  C_13 
REMARK    5  A    between atoms: C_9  and  O_10 
REMARK    6  A    between atoms: C_15  and  O_16 
REMARK    7  A    between atoms: C_18  and  O_19 
REMARK    8  A    between atoms: C_24  and  O_26 
REMARK    9  A    between atoms: C_30  and  O_31 
REMARK   10  A    between atoms: C_33  and  O_34 
REMARK   11  A    between atoms: C_36  and  O_38 
ROOT
HETATM    1  C   UNK N   1      29.519  42.260  59.543  0.00  0.00     0.091 A 
HETATM    2  C   UNK N   1      29.503  43.639  59.290  0.00  0.00     0.012 A 
HETATM    3  C   UNK N   1      29.338  44.100  57.973  0.00  0.00     0.081 A 
HETATM    4  O   UNK N   1      29.294  45.430  57.717  0.00  0.00    -0.338 OA
HETATM    5  C   UNK N   1      29.107  46.380  58.711  0.00  0.00     0.191 C 
HETATM    6  C   UNK N   1      30.000  46.044  59.916  0.00  0.00     0.156 C 
HETATM    7  C   UNK N   1      29.655  44.632  60.425  0.00  0.00     0.079 C 
HETATM    8  C   UNK N   1      29.217  43.185  56.921  0.00  0.00     0.074 A 
HETATM    9  C   UNK N   1      29.237  41.809  57.178  0.00  0.00     0.071 A 
HETATM   10  C   UNK N   1      29.382  41.347  58.494  0.00  0.00     0.074 A 
ENDROOT
BRANCH   1  11
HETATM   11  O   UNK N   1      29.714  41.828  60.802  0.00  0.00    -0.274 OA
BRANCH  11  12
HETATM   12  C   UNK N   1      30.860  41.187  61.145  0.00  0.00     0.298 C 
HETATM   13  O   UNK N   1      30.830  40.018  61.504  0.00  0.00    -0.259 OA
BRANCH  12  14
HETATM   14  C   UNK N   1      32.152  41.877  60.963  0.00  0.00     0.045 A 
HETATM   15  C   UNK N   1      32.917  41.655  59.809  0.00  0.00     0.057 A 
HETATM   16  C   UNK N   1      34.121  42.342  59.615  0.00  0.00     0.102 A 
HETATM   17  C   UNK N   1      34.568  43.260  60.584  0.00  0.00     0.132 A 
HETATM   18  C   UNK N   1      33.799  43.484  61.743  0.00  0.00     0.102 A 
HETATM   19  C   UNK N   1      32.599  42.794  61.925  0.00  0.00     0.057 A 
BRANCH  16  20
HETATM   20  O   UNK N   1      34.846  42.129  58.497  0.00  0.00    -0.358 OA
HETATM   21  H   UNK N   1      34.424  41.945  57.645  0.00  0.00     0.218 HD
ENDBRANCH  16  20
BRANCH  17  22
HETATM   22  O   UNK N   1      35.726  43.934  60.412  0.00  0.00    -0.356 OA
HETATM   23  H   UNK N   1      36.181  43.970  59.559  0.00  0.00     0.218 HD
ENDBRANCH  17  22
BRANCH  18  24
HETATM   24  O   UNK N   1      34.197  44.363  62.686  0.00  0.00    -0.358 OA
HETATM   25  H   UNK N   1      35.099  44.708  62.727  0.00  0.00     0.218 HD
ENDBRANCH  18  24
ENDBRANCH  12  14
ENDBRANCH  11  12
ENDBRANCH   1  11
BRANCH   9  26
HETATM   26  O   UNK N   1      29.119  40.938  56.156  0.00  0.00    -0.361 OA
HETATM   27  H   UNK N   1      29.846  40.785  55.534  0.00  0.00     0.217 HD
ENDBRANCH   9  26
BRANCH   6  28
HETATM   28  O   UNK N   1      29.828  46.986  60.944  0.00  0.00    -0.392 OA
HETATM   29  H   UNK N   1      29.736  47.876  60.512  0.00  0.00     0.210 HD
ENDBRANCH   6  28
BRANCH   5  30
HETATM   30  C   UNK N   1      29.406  47.756  58.163  0.00  0.00    -0.024 A 
HETATM   31  C   UNK N   1      30.275  47.901  57.071  0.00  0.00     0.049 A 
HETATM   32  C   UNK N   1      30.582  49.167  56.562  0.00  0.00     0.099 A 
HETATM   33  C   UNK N   1      30.006  50.320  57.160  0.00  0.00     0.098 A 
HETATM   34  C   UNK N   1      29.126  50.167  58.236  0.00  0.00     0.040 A 
HETATM   35  C   UNK N   1      28.826  48.901  58.735  0.00  0.00     0.013 A 
BRANCH  32  36
HETATM   36  O   UNK N   1      31.423  49.244  55.506  0.00  0.00    -0.358 OA
HETATM   37  H   UNK N   1      31.187  48.994  54.607  0.00  0.00     0.218 HD
ENDBRANCH  32  36
BRANCH  33  38
HETATM   38  O   UNK N   1      30.282  51.572  56.734  0.00  0.00    -0.358 OA
HETATM   39  H   UNK N   1      30.881  51.776  56.007  0.00  0.00     0.218 HD
ENDBRANCH  33  38
ENDBRANCH   5  30
TORSDOF 11
ENDMDL
MODEL 7
REMARK VINA RESULT:      -6.2      8.523     14.636
REMARK  11 active torsions:
REMARK  status: ('A' for Active; 'I' for Inactive)
REMARK    1  A    between atoms: C_2  and  O_3 
REMARK    2  A    between atoms: C_2  and  C_28 
REMARK    3  A    between atoms: O_3  and  C_4 
REMARK    4  A    between atoms: C_8  and  C_13 
REMARK    5  A    between atoms: C_9  and  O_10 
REMARK    6  A    between atoms: C_15  and  O_16 
REMARK    7  A    between atoms: C_18  and  O_19 
REMARK    8  A    between atoms: C_24  and  O_26 
REMARK    9  A    between atoms: C_30  and  O_31 
REMARK   10  A    between atoms: C_33  and  O_34 
REMARK   11  A    between atoms: C_36  and  O_38 
ROOT
HETATM    1  C   UNK N   1      31.444  54.938  43.926  0.00  0.00     0.091 A 
HETATM    2  C   UNK N   1      32.063  53.687  43.788  0.00  0.00     0.012 A 
HETATM    3  C   UNK N   1      33.394  53.523  44.210  0.00  0.00     0.081 A 
HETATM    4  O   UNK N   1      33.997  52.314  44.109  0.00  0.00    -0.338 OA
HETATM    5  C   UNK N   1      33.291  51.140  43.884  0.00  0.00     0.191 C 
HETATM    6  C   UNK N   1      32.251  51.371  42.778  0.00  0.00     0.156 C 
HETATM    7  C   UNK N   1      31.308  52.514  43.198  0.00  0.00     0.079 C 
HETATM    8  C   UNK N   1      34.100  54.610  44.738  0.00  0.00     0.074 A 
HETATM    9  C   UNK N   1      33.479  55.858  44.870  0.00  0.00     0.071 A 
HETATM   10  C   UNK N   1      32.146  56.019  44.467  0.00  0.00     0.074 A 
ENDROOT
BRANCH   1  11
HETATM   11  O   UNK N   1      30.182  55.094  43.486  0.00  0.00    -0.274 OA
BRANCH  11  12
HETATM   12  C   UNK N   1      29.928  55.288  42.167  0.00  0.00     0.298 C 
HETATM   13  O   UNK N   1      30.698  55.947  41.480  0.00  0.00    -0.259 OA
BRANCH  12  14
HETATM   14  C   UNK N   1      28.783  54.597  41.545  0.00  0.00     0.045 A 
HETATM   15  C   UNK N   1      28.970  53.380  40.873  0.00  0.00     0.057 A 
HETATM   16  C   UNK N   1      27.878  52.701  40.321  0.00  0.00     0.102 A 
HETATM   17  C   UNK N   1      26.583  53.241  40.440  0.00  0.00     0.132 A 
HETATM   18  C   UNK N   1      26.395  54.462  41.115  0.00  0.00     0.102 A 
HETATM   19  C   UNK N   1      27.492  55.130  41.663  0.00  0.00     0.057 A 
BRANCH  16  20
HETATM   20  O   UNK N   1      28.066  51.526  39.684  0.00  0.00    -0.358 OA
HETATM   21  H   UNK N   1      28.249  50.708  40.170  0.00  0.00     0.218 HD
ENDBRANCH  16  20
BRANCH  17  22
HETATM   22  O   UNK N   1      25.518  52.597  39.916  0.00  0.00    -0.356 OA
HETATM   23  H   UNK N   1      25.613  51.872  39.283  0.00  0.00     0.218 HD
ENDBRANCH  17  22
BRANCH  18  24
HETATM   24  O   UNK N   1      25.166  55.003  41.252  0.00  0.00    -0.358 OA
HETATM   25  H   UNK N   1      24.490  54.617  41.826  0.00  0.00     0.218 HD
ENDBRANCH  18  24
ENDBRANCH  12  14
ENDBRANCH  11  12
ENDBRANCH   1  11
BRANCH   9  26
HETATM   26  O   UNK N   1      34.170  56.897  45.380  0.00  0.00    -0.361 OA
HETATM   27  H   UNK N   1      33.850  57.808  45.298  0.00  0.00     0.217 HD
ENDBRANCH   9  26
BRANCH   6  28
HETATM   28  O   UNK N   1      31.514  50.201  42.530  0.00  0.00    -0.392 OA
HETATM   29  H   UNK N   1      31.603  49.625  43.336  0.00  0.00     0.210 HD
ENDBRANCH   6  28
BRANCH   5  30
HETATM   30  C   UNK N   1      34.251  50.031  43.523  0.00  0.00    -0.024 A 
HETATM   31  C   UNK N   1      35.579  50.335  43.187  0.00  0.00     0.049 A 
HETATM   32  C   UNK N   1      36.478  49.325  42.829  0.00  0.00     0.099 A 
HETATM   33  C   UNK N   1      36.039  47.975  42.804  0.00  0.00     0.098 A 
HETATM   34  C   UNK N   1      34.719  47.676  43.159  0.00  0.00     0.040 A 
HETATM   35  C   UNK N   1      33.832  48.690  43.516  0.00  0.00     0.013 A 
BRANCH  32  36
HETATM   36  O   UNK N   1      37.745  49.679  42.518  0.00  0.00    -0.358 OA
HETATM   37  H   UNK N   1      38.087  49.734  41.619  0.00  0.00     0.218 HD
ENDBRANCH  32  36
BRANCH  33  38
HETATM   38  O   UNK N   1      36.848  46.956  42.442  0.00  0.00    -0.358 OA
HETATM   39  H   UNK N   1      37.776  46.887  42.694  0.00  0.00     0.218 HD
ENDBRANCH  33  38
ENDBRANCH   5  30
TORSDOF 11
ENDMDL
MODEL 8
REMARK VINA RESULT:      -6.2     13.171     15.824
REMARK  11 active torsions:
REMARK  status: ('A' for Active; 'I' for Inactive)
REMARK    1  A    between atoms: C_2  and  O_3 
REMARK    2  A    between atoms: C_2  and  C_28 
REMARK    3  A    between atoms: O_3  and  C_4 
REMARK    4  A    between atoms: C_8  and  C_13 
REMARK    5  A    between atoms: C_9  and  O_10 
REMARK    6  A    between atoms: C_15  and  O_16 
REMARK    7  A    between atoms: C_18  and  O_19 
REMARK    8  A    between atoms: C_24  and  O_26 
REMARK    9  A    between atoms: C_30  and  O_31 
REMARK   10  A    between atoms: C_33  and  O_34 
REMARK   11  A    between atoms: C_36  and  O_38 
ROOT
HETATM    1  C   UNK N   1      50.855  50.106  60.164  0.00  0.00     0.091 A 
HETATM    2  C   UNK N   1      51.112  51.058  59.167  0.00  0.00     0.012 A 
HETATM    3  C   UNK N   1      50.173  52.075  58.922  0.00  0.00     0.081 A 
HETATM    4  O   UNK N   1      50.420  53.017  57.980  0.00  0.00    -0.338 OA
HETATM    5  C   UNK N   1      51.681  53.223  57.436  0.00  0.00     0.191 C 
HETATM    6  C   UNK N   1      52.317  51.867  57.090  0.00  0.00     0.156 C 
HETATM    7  C   UNK N   1      52.395  51.003  58.363  0.00  0.00     0.079 C 
HETATM    8  C   UNK N   1      48.979  52.116  59.650  0.00  0.00     0.074 A 
HETATM    9  C   UNK N   1      48.725  51.161  60.642  0.00  0.00     0.071 A 
HETATM   10  C   UNK N   1      49.669  50.157  60.902  0.00  0.00     0.074 A 
ENDROOT
BRANCH   1  11
HETATM   11  O   UNK N   1      51.743  49.116  60.368  0.00  0.00    -0.274 OA
BRANCH  11  12
HETATM   12  C   UNK N   1      51.444  47.837  60.026  0.00  0.00     0.298 C 
HETATM   13  O   UNK N   1      51.344  46.974  60.888  0.00  0.00    -0.259 OA
BRANCH  12  14
HETATM   14  C   UNK N   1      51.121  47.524  58.621  0.00  0.00     0.045 A 
HETATM   15  C   UNK N   1      49.788  47.349  58.222  0.00  0.00     0.057 A 
HETATM   16  C   UNK N   1      49.477  47.096  56.881  0.00  0.00     0.102 A 
HETATM   17  C   UNK N   1      50.508  47.016  55.925  0.00  0.00     0.132 A 
HETATM   18  C   UNK N   1      51.846  47.193  56.325  0.00  0.00     0.102 A 
HETATM   19  C   UNK N   1      52.144  47.446  57.666  0.00  0.00     0.057 A 
BRANCH  16  20
HETATM   20  O   UNK N   1      48.190  46.938  56.506  0.00  0.00    -0.358 OA
HETATM   21  H   UNK N   1      47.729  47.607  55.978  0.00  0.00     0.218 HD
ENDBRANCH  16  20
BRANCH  17  22
HETATM   22  O   UNK N   1      50.225  46.775  54.627  0.00  0.00    -0.356 OA
HETATM   23  H   UNK N   1      49.759  47.416  54.073  0.00  0.00     0.218 HD
ENDBRANCH  17  22
BRANCH  18  24
HETATM   24  O   UNK N   1      52.856  47.129  55.432  0.00  0.00    -0.358 OA
HETATM   25  H   UNK N   1      53.776  47.000  55.697  0.00  0.00     0.218 HD
ENDBRANCH  18  24
ENDBRANCH  12  14
ENDBRANCH  11  12
ENDBRANCH   1  11
BRANCH   9  26
HETATM   26  O   UNK N   1      47.571  51.212  61.337  0.00  0.00    -0.361 OA
HETATM   27  H   UNK N   1      47.410  50.631  62.096  0.00  0.00     0.217 HD
ENDBRANCH   9  26
BRANCH   6  28
HETATM   28  O   UNK N   1      53.599  52.041  56.542  0.00  0.00    -0.392 OA
HETATM   29  H   UNK N   1      54.026  52.791  57.034  0.00  0.00     0.210 HD
ENDBRANCH   6  28
BRANCH   5  30
HETATM   30  C   UNK N   1      51.572  54.113  56.221  0.00  0.00    -0.024 A 
HETATM   31  C   UNK N   1      51.062  53.599  55.020  0.00  0.00     0.049 A 
HETATM   32  C   UNK N   1      50.972  54.401  53.877  0.00  0.00     0.099 A 
HETATM   33  C   UNK N   1      51.405  55.752  53.935  0.00  0.00     0.098 A 
HETATM   34  C   UNK N   1      51.895  56.264  55.141  0.00  0.00     0.040 A 
HETATM   35  C   UNK N   1      51.979  55.457  56.274  0.00  0.00     0.013 A 
BRANCH  32  36
HETATM   36  O   UNK N   1      50.469  53.851  52.749  0.00  0.00    -0.358 OA
HETATM   37  H   UNK N   1      49.583  53.478  52.677  0.00  0.00     0.218 HD
ENDBRANCH  32  36
BRANCH  33  38
HETATM   38  O   UNK N   1      51.370  56.571  52.861  0.00  0.00    -0.358 OA
HETATM   39  H   UNK N   1      51.913  57.362  52.767  0.00  0.00     0.218 HD
ENDBRANCH  33  38
ENDBRANCH   5  30
TORSDOF 11
ENDMDL
MODEL 9
REMARK VINA RESULT:      -6.1     14.654     16.932
REMARK  11 active torsions:
REMARK  status: ('A' for Active; 'I' for Inactive)
REMARK    1  A    between atoms: C_2  and  O_3 
REMARK    2  A    between atoms: C_2  and  C_28 
REMARK    3  A    between atoms: O_3  and  C_4 
REMARK    4  A    between atoms: C_8  and  C_13 
REMARK    5  A    between atoms: C_9  and  O_10 
REMARK    6  A    between atoms: C_15  and  O_16 
REMARK    7  A    between atoms: C_18  and  O_19 
REMARK    8  A    between atoms: C_24  and  O_26 
REMARK    9  A    between atoms: C_30  and  O_31 
REMARK   10  A    between atoms: C_33  and  O_34 
REMARK   11  A    between atoms: C_36  and  O_38 
ROOT
HETATM    1  C   UNK N   1      30.671  43.780  59.075  0.00  0.00     0.091 A 
HETATM    2  C   UNK N   1      30.141  42.888  58.132  0.00  0.00     0.012 A 
HETATM    3  C   UNK N   1      30.098  41.514  58.426  0.00  0.00     0.081 A 
HETATM    4  O   UNK N   1      29.564  40.644  57.536  0.00  0.00    -0.338 OA
HETATM    5  C   UNK N   1      28.782  41.051  56.463  0.00  0.00     0.191 C 
HETATM    6  C   UNK N   1      29.440  42.259  55.779  0.00  0.00     0.156 C 
HETATM    7  C   UNK N   1      29.609  43.395  56.807  0.00  0.00     0.079 C 
HETATM    8  C   UNK N   1      30.606  41.042  59.641  0.00  0.00     0.074 A 
HETATM    9  C   UNK N   1      31.138  41.936  60.578  0.00  0.00     0.071 A 
HETATM   10  C   UNK N   1      31.165  43.309  60.295  0.00  0.00     0.074 A 
ENDROOT
BRANCH   1  11
HETATM   11  O   UNK N   1      30.742  45.089  58.770  0.00  0.00    -0.274 OA
BRANCH  11  12
HETATM   12  C   UNK N   1      29.800  45.956  59.219  0.00  0.00     0.298 C 
HETATM   13  O   UNK N   1      28.984  45.601  60.060  0.00  0.00    -0.259 OA
BRANCH  12  14
HETATM   14  C   UNK N   1      29.845  47.362  58.774  0.00  0.00     0.045 A 
HETATM   15  C   UNK N   1      30.237  47.678  57.466  0.00  0.00     0.057 A 
HETATM   16  C   UNK N   1      30.238  49.008  57.029  0.00  0.00     0.102 A 
HETATM   17  C   UNK N   1      29.843  50.035  57.908  0.00  0.00     0.132 A 
HETATM   18  C   UNK N   1      29.448  49.717  59.222  0.00  0.00     0.102 A 
HETATM   19  C   UNK N   1      29.450  48.387  59.646  0.00  0.00     0.057 A 
BRANCH  16  20
HETATM   20  O   UNK N   1      30.608  49.303  55.765  0.00  0.00    -0.358 OA
HETATM   21  H   UNK N   1      31.387  48.898  55.356  0.00  0.00     0.218 HD
ENDBRANCH  16  20
BRANCH  17  22
HETATM   22  O   UNK N   1      29.835  51.323  57.502  0.00  0.00    -0.356 OA
HETATM   23  H   UNK N   1      30.607  51.742  57.096  0.00  0.00     0.218 HD
ENDBRANCH  17  22
BRANCH  18  24
HETATM   24  O   UNK N   1      29.058  50.678  60.085  0.00  0.00    -0.358 OA
HETATM   25  H   UNK N   1      29.600  50.951  60.837  0.00  0.00     0.218 HD
ENDBRANCH  18  24
ENDBRANCH  12  14
ENDBRANCH  11  12
ENDBRANCH   1  11
BRANCH   9  26
HETATM   26  O   UNK N   1      31.624  41.468  61.745  0.00  0.00    -0.361 OA
HETATM   27  H   UNK N   1      32.216  40.702  61.777  0.00  0.00     0.217 HD
ENDBRANCH   9  26
BRANCH   6  28
HETATM   28  O   UNK N   1      28.669  42.701  54.691  0.00  0.00    -0.392 OA
HETATM   29  H   UNK N   1      27.865  42.118  54.649  0.00  0.00     0.210 HD
ENDBRANCH   6  28
BRANCH   5  30
HETATM   30  C   UNK N   1      28.596  39.900  55.502  0.00  0.00    -0.024 A 
HETATM   31  C   UNK N   1      29.582  38.907  55.401  0.00  0.00     0.049 A 
HETATM   32  C   UNK N   1      29.440  37.845  54.502  0.00  0.00     0.099 A 
HETATM   33  C   UNK N   1      28.282  37.773  53.682  0.00  0.00     0.098 A 
HETATM   34  C   UNK N   1      27.294  38.755  53.802  0.00  0.00     0.040 A 
HETATM   35  C   UNK N   1      27.445  39.810  54.702  0.00  0.00     0.013 A 
BRANCH  32  36
HETATM   36  O   UNK N   1      30.421  36.916  54.450  0.00  0.00    -0.358 OA
HETATM   37  H   UNK N   1      30.322  36.006  54.751  0.00  0.00     0.218 HD
ENDBRANCH  32  36
BRANCH  33  38
HETATM   38  O   UNK N   1      28.096  36.789  52.776  0.00  0.00    -0.358 OA
HETATM   39  H   UNK N   1      28.515  36.766  51.908  0.00  0.00     0.218 HD
ENDBRANCH  33  38
ENDBRANCH   5  30
TORSDOF 11
ENDMDL
