MODEL 1
REMARK VINA RESULT:      -6.0      0.000      0.000
REMARK  15 active torsions:
REMARK  status: ('A' for Active; 'I' for Inactive)
REMARK    1  A    between atoms: C_2  and  O_3 
REMARK    2  A    between atoms: O_3  and  C_4 
REMARK    3  A    between atoms: C_4  and  C_5 
REMARK    4  A    between atoms: C_6  and  C_21 
REMARK    5  A    between atoms: C_9  and  C_10 
REMARK    6  A    between atoms: C_10  and  C_11 
REMARK    7  A    between atoms: C_13  and  O_14 
REMARK    8  A    between atoms: C_16  and  O_17 
REMARK    9  A    between atoms: C_23  and  O_24 
REMARK   10  A    between atoms: C_26  and  O_27 
REMARK   11  A    between atoms: C_31  and  O_32 
REMARK   12  A    between atoms: C_34  and  O_35 
REMARK   13  A    between atoms: C_37  and  O_38 
REMARK   14  A    between atoms: C_40  and  C_41 
REMARK   15  A    between atoms: C_41  and  O_42 
ROOT
HETATM    1  C   UNK N   1      30.068  42.977  57.297  0.00  0.00     0.049 C 
HETATM    2  C   UNK N   1      28.715  42.464  56.765  0.00  0.00     0.161 C 
HETATM    3  O   UNK N   1      27.688  43.278  57.316  0.00  0.00    -0.380 OA
HETATM    4  C   UNK N   1      28.308  44.350  57.996  0.00  0.00     0.174 C 
HETATM    5  C   UNK N   1      29.735  44.451  57.482  0.00  0.00     0.022 C 
ENDROOT
BRANCH   1   6
HETATM    6  C   UNK N   1      30.473  42.228  58.587  0.00  0.00     0.179 C 
BRANCH   6   7
HETATM    7  O   UNK N   1      31.840  41.900  58.484  0.00  0.00    -0.358 OA
BRANCH   7   8
HETATM    8  C   UNK N   1      32.519  42.026  59.713  0.00  0.00     0.291 C 
HETATM    9  O   UNK N   1      31.696  42.700  60.654  0.00  0.00    -0.348 OA
HETATM   10  C   UNK N   1      32.339  42.785  61.915  0.00  0.00     0.179 C 
HETATM   11  C   UNK N   1      33.570  43.716  61.798  0.00  0.00     0.180 C 
HETATM   12  C   UNK N   1      34.532  43.140  60.742  0.00  0.00     0.183 C 
HETATM   13  C   UNK N   1      33.782  42.872  59.429  0.00  0.00     0.204 C 
BRANCH  10  14
HETATM   14  C   UNK N   1      31.332  43.319  62.941  0.00  0.00     0.198 C 
BRANCH  14  15
HETATM   15  O   UNK N   1      31.662  42.874  64.230  0.00  0.00    -0.398 OA
HETATM   16  H   UNK N   1      32.650  42.779  64.260  0.00  0.00     0.209 HD
ENDBRANCH  14  15
ENDBRANCH  10  14
BRANCH  11  17
HETATM   17  O   UNK N   1      34.225  43.871  63.033  0.00  0.00    -0.390 OA
HETATM   18  H   UNK N   1      34.758  43.049  63.197  0.00  0.00     0.210 HD
ENDBRANCH  11  17
BRANCH  12  19
HETATM   19  O   UNK N   1      35.629  43.995  60.533  0.00  0.00    -0.390 OA
HETATM   20  H   UNK N   1      36.236  43.902  61.316  0.00  0.00     0.210 HD
ENDBRANCH  12  19
BRANCH  13  21
HETATM   21  O   UNK N   1      34.642  42.206  58.538  0.00  0.00    -0.388 OA
HETATM   22  H   UNK N   1      34.840  41.315  58.928  0.00  0.00     0.210 HD
ENDBRANCH  13  21
ENDBRANCH   7   8
ENDBRANCH   6   7
ENDBRANCH   1   6
BRANCH   2  23
HETATM   23  C   UNK N   1      28.660  42.444  55.246  0.00  0.00    -0.026 A 
HETATM   24  C   UNK N   1      27.473  42.711  54.539  0.00  0.00     0.049 A 
HETATM   25  C   UNK N   1      27.444  42.638  53.129  0.00  0.00     0.101 A 
HETATM   26  C   UNK N   1      28.621  42.298  52.431  0.00  0.00     0.099 A 
HETATM   27  C   UNK N   1      29.799  42.036  53.136  0.00  0.00     0.040 A 
HETATM   28  C   UNK N   1      29.819  42.105  54.528  0.00  0.00     0.012 A 
BRANCH  25  29
HETATM   29  O   UNK N   1      26.307  42.879  52.421  0.00  0.00    -0.353 OA
HETATM   30  C   UNK N   1      25.734  44.121  52.237  0.00  0.00     0.210 C 
ENDBRANCH  25  29
BRANCH  26  31
HETATM   31  O   UNK N   1      28.635  42.212  51.085  0.00  0.00    -0.358 OA
HETATM   32  H   UNK N   1      29.385  42.513  50.552  0.00  0.00     0.218 HD
ENDBRANCH  26  31
ENDBRANCH   2  23
BRANCH   5  33
HETATM   33  C   UNK N   1      30.681  45.270  58.392  0.00  0.00     0.045 C 
BRANCH  33  34
HETATM   34  C   UNK N   1      30.301  46.723  58.500  0.00  0.00    -0.055 A 
HETATM   35  C   UNK N   1      30.353  47.547  57.369  0.00  0.00     0.046 A 
HETATM   36  C   UNK N   1      30.030  48.918  57.468  0.00  0.00     0.101 A 
HETATM   37  C   UNK N   1      29.656  49.450  58.719  0.00  0.00     0.099 A 
HETATM   38  C   UNK N   1      29.608  48.621  59.845  0.00  0.00     0.040 A 
HETATM   39  C   UNK N   1      29.931  47.267  59.739  0.00  0.00     0.010 A 
BRANCH  36  40
HETATM   40  O   UNK N   1      30.079  49.743  56.387  0.00  0.00    -0.353 OA
HETATM   41  C   UNK N   1      31.236  50.226  55.810  0.00  0.00     0.210 C 
ENDBRANCH  36  40
BRANCH  37  42
HETATM   42  O   UNK N   1      29.343  50.756  58.857  0.00  0.00    -0.358 OA
HETATM   43  H   UNK N   1      28.780  51.224  58.224  0.00  0.00     0.218 HD
ENDBRANCH  37  42
ENDBRANCH  33  34
ENDBRANCH   5  33
TORSDOF 15
ENDMDL
MODEL 2
REMARK VINA RESULT:      -5.9      2.758      6.891
REMARK  15 active torsions:
REMARK  status: ('A' for Active; 'I' for Inactive)
REMARK    1  A    between atoms: C_2  and  O_3 
REMARK    2  A    between atoms: O_3  and  C_4 
REMARK    3  A    between atoms: C_4  and  C_5 
REMARK    4  A    between atoms: C_6  and  C_21 
REMARK    5  A    between atoms: C_9  and  C_10 
REMARK    6  A    between atoms: C_10  and  C_11 
REMARK    7  A    between atoms: C_13  and  O_14 
REMARK    8  A    between atoms: C_16  and  O_17 
REMARK    9  A    between atoms: C_23  and  O_24 
REMARK   10  A    between atoms: C_26  and  O_27 
REMARK   11  A    between atoms: C_31  and  O_32 
REMARK   12  A    between atoms: C_34  and  O_35 
REMARK   13  A    between atoms: C_37  and  O_38 
REMARK   14  A    between atoms: C_40  and  C_41 
REMARK   15  A    between atoms: C_41  and  O_42 
ROOT
HETATM    1  C   UNK N   1      30.637  45.690  61.593  0.00  0.00     0.049 C 
HETATM    2  C   UNK N   1      29.424  46.555  61.199  0.00  0.00     0.161 C 
HETATM    3  O   UNK N   1      29.111  47.402  62.297  0.00  0.00    -0.380 OA
HETATM    4  C   UNK N   1      30.135  47.252  63.260  0.00  0.00     0.174 C 
HETATM    5  C   UNK N   1      31.335  46.640  62.557  0.00  0.00     0.022 C 
ENDROOT
BRANCH   1   6
HETATM    6  C   UNK N   1      30.179  44.348  62.210  0.00  0.00     0.179 C 
BRANCH   6   7
HETATM    7  O   UNK N   1      30.964  43.324  61.643  0.00  0.00    -0.358 OA
BRANCH   7   8
HETATM    8  C   UNK N   1      31.411  43.641  60.345  0.00  0.00     0.291 C 
HETATM    9  O   UNK N   1      30.476  43.173  59.384  0.00  0.00    -0.348 OA
HETATM   10  C   UNK N   1      30.877  43.534  58.073  0.00  0.00     0.179 C 
HETATM   11  C   UNK N   1      32.169  42.766  57.705  0.00  0.00     0.180 C 
HETATM   12  C   UNK N   1      33.269  43.125  58.722  0.00  0.00     0.183 C 
HETATM   13  C   UNK N   1      32.759  42.909  60.155  0.00  0.00     0.204 C 
BRANCH  10  14
HETATM   14  C   UNK N   1      29.736  43.201  57.103  0.00  0.00     0.198 C 
BRANCH  14  15
HETATM   15  O   UNK N   1      29.952  41.951  56.502  0.00  0.00    -0.398 OA
HETATM   16  H   UNK N   1      30.176  41.315  57.230  0.00  0.00     0.209 HD
ENDBRANCH  14  15
ENDBRANCH  10  14
BRANCH  11  17
HETATM   17  O   UNK N   1      32.593  43.054  56.395  0.00  0.00    -0.390 OA
HETATM   18  H   UNK N   1      32.629  44.042  56.301  0.00  0.00     0.210 HD
ENDBRANCH  11  17
BRANCH  12  19
HETATM   19  O   UNK N   1      34.442  42.385  58.486  0.00  0.00    -0.390 OA
HETATM   20  H   UNK N   1      34.987  42.414  59.317  0.00  0.00     0.210 HD
ENDBRANCH  12  19
BRANCH  13  21
HETATM   21  O   UNK N   1      33.721  43.389  61.060  0.00  0.00    -0.388 OA
HETATM   22  H   UNK N   1      33.256  43.571  61.918  0.00  0.00     0.210 HD
ENDBRANCH  13  21
ENDBRANCH   7   8
ENDBRANCH   6   7
ENDBRANCH   1   6
BRANCH   2  23
HETATM   23  C   UNK N   1      29.671  47.355  59.929  0.00  0.00    -0.026 A 
HETATM   24  C   UNK N   1      29.381  48.729  59.844  0.00  0.00     0.049 A 
HETATM   25  C   UNK N   1      29.578  49.431  58.635  0.00  0.00     0.101 A 
HETATM   26  C   UNK N   1      30.073  48.743  57.509  0.00  0.00     0.099 A 
HETATM   27  C   UNK N   1      30.363  47.379  57.598  0.00  0.00     0.040 A 
HETATM   28  C   UNK N   1      30.161  46.690  58.793  0.00  0.00     0.012 A 
BRANCH  25  29
HETATM   29  O   UNK N   1      29.294  50.758  58.522  0.00  0.00    -0.353 OA
HETATM   30  C   UNK N   1      28.352  51.435  59.268  0.00  0.00     0.210 C 
ENDBRANCH  25  29
BRANCH  26  31
HETATM   31  O   UNK N   1      30.270  49.376  56.334  0.00  0.00    -0.358 OA
HETATM   32  H   UNK N   1      30.476  48.901  55.516  0.00  0.00     0.218 HD
ENDBRANCH  26  31
ENDBRANCH   2  23
BRANCH   5  33
HETATM   33  C   UNK N   1      32.381  46.018  63.512  0.00  0.00     0.045 C 
BRANCH  33  34
HETATM   34  C   UNK N   1      33.754  46.621  63.372  0.00  0.00    -0.055 A 
HETATM   35  C   UNK N   1      34.860  45.797  63.129  0.00  0.00     0.046 A 
HETATM   36  C   UNK N   1      36.155  46.349  63.029  0.00  0.00     0.101 A 
HETATM   37  C   UNK N   1      36.325  47.741  63.179  0.00  0.00     0.099 A 
HETATM   38  C   UNK N   1      35.215  48.558  63.425  0.00  0.00     0.040 A 
HETATM   39  C   UNK N   1      33.939  48.003  63.524  0.00  0.00     0.010 A 
BRANCH  36  40
HETATM   40  O   UNK N   1      37.248  45.571  62.800  0.00  0.00    -0.353 OA
HETATM   41  C   UNK N   1      37.962  44.902  63.772  0.00  0.00     0.210 C 
ENDBRANCH  36  40
BRANCH  37  42
HETATM   42  O   UNK N   1      37.547  48.308  63.094  0.00  0.00    -0.358 OA
HETATM   43  H   UNK N   1      37.944  48.796  63.829  0.00  0.00     0.218 HD
ENDBRANCH  37  42
ENDBRANCH  33  34
ENDBRANCH   5  33
TORSDOF 15
ENDMDL
MODEL 3
REMARK VINA RESULT:      -5.7     18.035     22.219
REMARK  15 active torsions:
REMARK  status: ('A' for Active; 'I' for Inactive)
REMARK    1  A    between atoms: C_2  and  O_3 
REMARK    2  A    between atoms: O_3  and  C_4 
REMARK    3  A    between atoms: C_4  and  C_5 
REMARK    4  A    between atoms: C_6  and  C_21 
REMARK    5  A    between atoms: C_9  and  C_10 
REMARK    6  A    between atoms: C_10  and  C_11 
REMARK    7  A    between atoms: C_13  and  O_14 
REMARK    8  A    between atoms: C_16  and  O_17 
REMARK    9  A    between atoms: C_23  and  O_24 
REMARK   10  A    between atoms: C_26  and  O_27 
REMARK   11  A    between atoms: C_31  and  O_32 
REMARK   12  A    between atoms: C_34  and  O_35 
REMARK   13  A    between atoms: C_37  and  O_38 
REMARK   14  A    between atoms: C_40  and  C_41 
REMARK   15  A    between atoms: C_41  and  O_42 
ROOT
HETATM    1  C   UNK N   1      50.779  52.110  58.348  0.00  0.00     0.049 C 
HETATM    2  C   UNK N   1      52.266  51.708  58.288  0.00  0.00     0.161 C 
HETATM    3  O   UNK N   1      52.843  51.961  59.563  0.00  0.00    -0.380 OA
HETATM    4  C   UNK N   1      51.796  52.316  60.444  0.00  0.00     0.174 C 
HETATM    5  C   UNK N   1      50.494  51.843  59.820  0.00  0.00     0.022 C 
ENDROOT
BRANCH   1   6
HETATM    6  C   UNK N   1      50.587  53.576  57.897  0.00  0.00     0.179 C 
BRANCH   6   7
HETATM    7  O   UNK N   1      51.787  54.001  57.291  0.00  0.00    -0.358 OA
BRANCH   7   8
HETATM    8  C   UNK N   1      51.562  54.800  56.151  0.00  0.00     0.291 C 
HETATM    9  O   UNK N   1      50.448  55.652  56.370  0.00  0.00    -0.348 OA
HETATM   10  C   UNK N   1      50.241  56.506  55.257  0.00  0.00     0.179 C 
HETATM   11  C   UNK N   1      49.799  55.660  54.040  0.00  0.00     0.180 C 
HETATM   12  C   UNK N   1      50.896  54.625  53.727  0.00  0.00     0.183 C 
HETATM   13  C   UNK N   1      51.251  53.827  54.990  0.00  0.00     0.204 C 
BRANCH  10  14
HETATM   14  C   UNK N   1      49.175  57.545  55.630  0.00  0.00     0.198 C 
BRANCH  14  15
HETATM   15  O   UNK N   1      47.947  57.224  55.033  0.00  0.00    -0.398 OA
HETATM   16  H   UNK N   1      47.276  57.167  55.763  0.00  0.00     0.209 HD
ENDBRANCH  14  15
ENDBRANCH  10  14
BRANCH  11  17
HETATM   17  O   UNK N   1      49.538  56.461  52.914  0.00  0.00    -0.390 OA
HETATM   18  H   UNK N   1      50.174  56.193  52.200  0.00  0.00     0.210 HD
ENDBRANCH  11  17
BRANCH  12  19
HETATM   19  O   UNK N   1      50.506  53.770  52.681  0.00  0.00    -0.390 OA
HETATM   20  H   UNK N   1      49.952  54.302  52.049  0.00  0.00     0.210 HD
ENDBRANCH  12  19
BRANCH  13  21
HETATM   21  O   UNK N   1      52.356  53.003  54.716  0.00  0.00    -0.388 OA
HETATM   22  H   UNK N   1      52.005  52.108  54.470  0.00  0.00     0.210 HD
ENDBRANCH  13  21
ENDBRANCH   7   8
ENDBRANCH   6   7
ENDBRANCH   1   6
BRANCH   2  23
HETATM   23  C   UNK N   1      52.458  50.260  57.864  0.00  0.00    -0.026 A 
HETATM   24  C   UNK N   1      51.689  49.674  56.842  0.00  0.00     0.049 A 
HETATM   25  C   UNK N   1      51.860  48.313  56.505  0.00  0.00     0.101 A 
HETATM   26  C   UNK N   1      52.814  47.543  57.201  0.00  0.00     0.099 A 
HETATM   27  C   UNK N   1      53.578  48.130  58.214  0.00  0.00     0.040 A 
HETATM   28  C   UNK N   1      53.401  49.472  58.545  0.00  0.00     0.012 A 
BRANCH  25  29
HETATM   29  O   UNK N   1      51.121  47.717  55.529  0.00  0.00    -0.353 OA
HETATM   30  C   UNK N   1      49.968  46.990  55.739  0.00  0.00     0.210 C 
ENDBRANCH  25  29
BRANCH  26  31
HETATM   31  O   UNK N   1      53.004  46.239  56.914  0.00  0.00    -0.358 OA
HETATM   32  H   UNK N   1      53.884  45.838  56.876  0.00  0.00     0.218 HD
ENDBRANCH  26  31
ENDBRANCH   2  23
BRANCH   5  33
HETATM   33  C   UNK N   1      49.228  52.504  60.415  0.00  0.00     0.045 C 
BRANCH  33  34
HETATM   34  C   UNK N   1      48.080  51.547  60.595  0.00  0.00    -0.055 A 
HETATM   35  C   UNK N   1      48.235  50.195  60.263  0.00  0.00     0.046 A 
HETATM   36  C   UNK N   1      47.155  49.297  60.397  0.00  0.00     0.101 A 
HETATM   37  C   UNK N   1      45.915  49.775  60.868  0.00  0.00     0.099 A 
HETATM   38  C   UNK N   1      45.766  51.128  61.195  0.00  0.00     0.040 A 
HETATM   39  C   UNK N   1      46.839  52.009  61.058  0.00  0.00     0.010 A 
BRANCH  36  40
HETATM   40  O   UNK N   1      47.276  47.980  60.076  0.00  0.00    -0.353 OA
HETATM   41  C   UNK N   1      47.211  47.468  58.796  0.00  0.00     0.210 C 
ENDBRANCH  36  40
BRANCH  37  42
HETATM   42  O   UNK N   1      44.856  48.950  61.008  0.00  0.00    -0.358 OA
HETATM   43  H   UNK N   1      44.295  48.956  61.796  0.00  0.00     0.218 HD
ENDBRANCH  37  42
ENDBRANCH  33  34
ENDBRANCH   5  33
TORSDOF 15
ENDMDL
MODEL 4
REMARK VINA RESULT:      -5.7     13.124     15.351
REMARK  15 active torsions:
REMARK  status: ('A' for Active; 'I' for Inactive)
REMARK    1  A    between atoms: C_2  and  O_3 
REMARK    2  A    between atoms: O_3  and  C_4 
REMARK    3  A    between atoms: C_4  and  C_5 
REMARK    4  A    between atoms: C_6  and  C_21 
REMARK    5  A    between atoms: C_9  and  C_10 
REMARK    6  A    between atoms: C_10  and  C_11 
REMARK    7  A    between atoms: C_13  and  O_14 
REMARK    8  A    between atoms: C_16  and  O_17 
REMARK    9  A    between atoms: C_23  and  O_24 
REMARK   10  A    between atoms: C_26  and  O_27 
REMARK   11  A    between atoms: C_31  and  O_32 
REMARK   12  A    between atoms: C_34  and  O_35 
REMARK   13  A    between atoms: C_37  and  O_38 
REMARK   14  A    between atoms: C_40  and  C_41 
REMARK   15  A    between atoms: C_41  and  O_42 
ROOT
HETATM    1  C   UNK N   1      41.019  46.102  47.374  0.00  0.00     0.049 C 
HETATM    2  C   UNK N   1      40.493  44.681  47.090  0.00  0.00     0.161 C 
HETATM    3  O   UNK N   1      39.213  44.799  46.483  0.00  0.00    -0.380 OA
HETATM    4  C   UNK N   1      38.990  46.168  46.213  0.00  0.00     0.174 C 
HETATM    5  C   UNK N   1      40.340  46.865  46.245  0.00  0.00     0.022 C 
ENDROOT
BRANCH   1   6
HETATM    6  C   UNK N   1      40.631  46.557  48.800  0.00  0.00     0.179 C 
BRANCH   6   7
HETATM    7  O   UNK N   1      39.868  45.528  49.388  0.00  0.00    -0.358 OA
BRANCH   7   8
HETATM    8  C   UNK N   1      40.602  44.785  50.335  0.00  0.00     0.291 C 
HETATM    9  O   UNK N   1      39.715  44.168  51.258  0.00  0.00    -0.348 OA
HETATM   10  C   UNK N   1      40.431  43.369  52.185  0.00  0.00     0.179 C 
HETATM   11  C   UNK N   1      41.293  44.283  53.088  0.00  0.00     0.180 C 
HETATM   12  C   UNK N   1      42.268  45.081  52.202  0.00  0.00     0.183 C 
HETATM   13  C   UNK N   1      41.502  45.798  51.080  0.00  0.00     0.204 C 
BRANCH  10  14
HETATM   14  C   UNK N   1      39.423  42.560  53.011  0.00  0.00     0.198 C 
BRANCH  14  15
HETATM   15  O   UNK N   1      39.224  43.158  54.265  0.00  0.00    -0.398 OA
HETATM   16  H   UNK N   1      38.348  42.837  54.604  0.00  0.00     0.209 HD
ENDBRANCH  14  15
ENDBRANCH  10  14
BRANCH  11  17
HETATM   17  O   UNK N   1      41.995  43.545  54.058  0.00  0.00    -0.390 OA
HETATM   18  H   UNK N   1      42.386  42.751  53.607  0.00  0.00     0.210 HD
ENDBRANCH  11  17
BRANCH  12  19
HETATM   19  O   UNK N   1      43.018  45.995  52.966  0.00  0.00    -0.390 OA
HETATM   20  H   UNK N   1      43.597  46.505  52.340  0.00  0.00     0.210 HD
ENDBRANCH  12  19
BRANCH  13  21
HETATM   21  O   UNK N   1      42.426  46.388  50.200  0.00  0.00    -0.388 OA
HETATM   22  H   UNK N   1      42.048  46.320  49.285  0.00  0.00     0.210 HD
ENDBRANCH  13  21
ENDBRANCH   7   8
ENDBRANCH   6   7
ENDBRANCH   1   6
BRANCH   2  23
HETATM   23  C   UNK N   1      41.449  43.872  46.228  0.00  0.00    -0.026 A 
HETATM   24  C   UNK N   1      41.930  42.612  46.628  0.00  0.00     0.049 A 
HETATM   25  C   UNK N   1      42.854  41.907  45.825  0.00  0.00     0.101 A 
HETATM   26  C   UNK N   1      43.291  42.478  44.611  0.00  0.00     0.099 A 
HETATM   27  C   UNK N   1      42.809  43.729  44.216  0.00  0.00     0.040 A 
HETATM   28  C   UNK N   1      41.901  44.421  45.016  0.00  0.00     0.012 A 
BRANCH  25  29
HETATM   29  O   UNK N   1      43.345  40.692  46.194  0.00  0.00    -0.353 OA
HETATM   30  C   UNK N   1      42.631  39.716  46.858  0.00  0.00     0.210 C 
ENDBRANCH  25  29
BRANCH  26  31
HETATM   31  O   UNK N   1      44.177  41.840  43.819  0.00  0.00    -0.358 OA
HETATM   32  H   UNK N   1      44.685  41.073  44.118  0.00  0.00     0.218 HD
ENDBRANCH  26  31
ENDBRANCH   2  23
BRANCH   5  33
HETATM   33  C   UNK N   1      40.257  48.402  46.394  0.00  0.00     0.045 C 
BRANCH  33  34
HETATM   34  C   UNK N   1      39.873  49.109  45.121  0.00  0.00    -0.055 A 
HETATM   35  C   UNK N   1      38.803  48.635  44.351  0.00  0.00     0.046 A 
HETATM   36  C   UNK N   1      38.457  49.270  43.139  0.00  0.00     0.101 A 
HETATM   37  C   UNK N   1      39.201  50.389  42.710  0.00  0.00     0.099 A 
HETATM   38  C   UNK N   1      40.270  50.855  43.483  0.00  0.00     0.040 A 
HETATM   39  C   UNK N   1      40.607  50.220  44.679  0.00  0.00     0.010 A 
BRANCH  36  40
HETATM   40  O   UNK N   1      37.427  48.827  42.368  0.00  0.00    -0.353 OA
HETATM   41  C   UNK N   1      36.431  47.971  42.793  0.00  0.00     0.210 C 
ENDBRANCH  36  40
BRANCH  37  42
HETATM   42  O   UNK N   1      38.905  51.023  41.556  0.00  0.00    -0.358 OA
HETATM   43  H   UNK N   1      38.399  50.601  40.847  0.00  0.00     0.218 HD
ENDBRANCH  37  42
ENDBRANCH  33  34
ENDBRANCH   5  33
TORSDOF 15
ENDMDL
MODEL 5
REMARK VINA RESULT:      -5.7     16.696     20.611
REMARK  15 active torsions:
REMARK  status: ('A' for Active; 'I' for Inactive)
REMARK    1  A    between atoms: C_2  and  O_3 
REMARK    2  A    between atoms: O_3  and  C_4 
REMARK    3  A    between atoms: C_4  and  C_5 
REMARK    4  A    between atoms: C_6  and  C_21 
REMARK    5  A    between atoms: C_9  and  C_10 
REMARK    6  A    between atoms: C_10  and  C_11 
REMARK    7  A    between atoms: C_13  and  O_14 
REMARK    8  A    between atoms: C_16  and  O_17 
REMARK    9  A    between atoms: C_23  and  O_24 
REMARK   10  A    between atoms: C_26  and  O_27 
REMARK   11  A    between atoms: C_31  and  O_32 
REMARK   12  A    between atoms: C_34  and  O_35 
REMARK   13  A    between atoms: C_37  and  O_38 
REMARK   14  A    between atoms: C_40  and  C_41 
REMARK   15  A    between atoms: C_41  and  O_42 
ROOT
HETATM    1  C   UNK N   1      49.918  49.559  60.034  0.00  0.00     0.049 C 
HETATM    2  C   UNK N   1      49.205  49.766  61.386  0.00  0.00     0.161 C 
HETATM    3  O   UNK N   1      49.749  50.929  61.997  0.00  0.00    -0.380 OA
HETATM    4  C   UNK N   1      50.605  51.546  61.057  0.00  0.00     0.174 C 
HETATM    5  C   UNK N   1      50.243  51.005  59.685  0.00  0.00     0.022 C 
ENDROOT
BRANCH   1   6
HETATM    6  C   UNK N   1      51.144  48.630  60.195  0.00  0.00     0.179 C 
BRANCH   6   7
HETATM    7  O   UNK N   1      50.861  47.424  59.523  0.00  0.00    -0.358 OA
BRANCH   7   8
HETATM    8  C   UNK N   1      50.587  47.620  58.155  0.00  0.00     0.291 C 
HETATM    9  O   UNK N   1      49.440  46.870  57.779  0.00  0.00    -0.348 OA
HETATM   10  C   UNK N   1      49.112  47.100  56.419  0.00  0.00     0.179 C 
HETATM   11  C   UNK N   1      50.224  46.510  55.519  0.00  0.00     0.180 C 
HETATM   12  C   UNK N   1      51.562  47.188  55.871  0.00  0.00     0.183 C 
HETATM   13  C   UNK N   1      51.821  47.100  57.383  0.00  0.00     0.204 C 
BRANCH  10  14
HETATM   14  C   UNK N   1      47.755  46.447  56.127  0.00  0.00     0.198 C 
BRANCH  14  15
HETATM   15  O   UNK N   1      47.618  45.254  56.854  0.00  0.00    -0.398 OA
HETATM   16  H   UNK N   1      48.221  44.588  56.432  0.00  0.00     0.209 HD
ENDBRANCH  14  15
ENDBRANCH  10  14
BRANCH  11  17
HETATM   17  O   UNK N   1      49.931  46.672  54.153  0.00  0.00    -0.390 OA
HETATM   18  H   UNK N   1      49.818  45.767  53.760  0.00  0.00     0.210 HD
ENDBRANCH  11  17
BRANCH  12  19
HETATM   19  O   UNK N   1      52.625  46.625  55.142  0.00  0.00    -0.390 OA
HETATM   20  H   UNK N   1      53.004  45.885  55.687  0.00  0.00     0.210 HD
ENDBRANCH  12  19
BRANCH  13  21
HETATM   21  O   UNK N   1      52.963  47.857  57.696  0.00  0.00    -0.388 OA
HETATM   22  H   UNK N   1      52.666  48.626  58.249  0.00  0.00     0.210 HD
ENDBRANCH  13  21
ENDBRANCH   7   8
ENDBRANCH   6   7
ENDBRANCH   1   6
BRANCH   2  23
HETATM   23  C   UNK N   1      47.696  49.867  61.234  0.00  0.00    -0.026 A 
HETATM   24  C   UNK N   1      46.939  50.827  61.931  0.00  0.00     0.049 A 
HETATM   25  C   UNK N   1      45.533  50.863  61.804  0.00  0.00     0.101 A 
HETATM   26  C   UNK N   1      44.890  49.928  60.967  0.00  0.00     0.099 A 
HETATM   27  C   UNK N   1      45.646  48.978  60.275  0.00  0.00     0.040 A 
HETATM   28  C   UNK N   1      47.032  48.944  60.409  0.00  0.00     0.012 A 
BRANCH  25  29
HETATM   29  O   UNK N   1      44.775  51.773  62.476  0.00  0.00    -0.353 OA
HETATM   30  C   UNK N   1      44.916  53.143  62.389  0.00  0.00     0.210 C 
ENDBRANCH  25  29
BRANCH  26  31
HETATM   31  O   UNK N   1      43.549  49.925  60.823  0.00  0.00    -0.358 OA
HETATM   32  H   UNK N   1      43.102  49.430  60.122  0.00  0.00     0.218 HD
ENDBRANCH  26  31
ENDBRANCH   2  23
BRANCH   5  33
HETATM   33  C   UNK N   1      51.328  51.233  58.606  0.00  0.00     0.045 C 
BRANCH  33  34
HETATM   34  C   UNK N   1      50.900  52.178  57.515  0.00  0.00    -0.055 A 
HETATM   35  C   UNK N   1      51.615  52.232  56.312  0.00  0.00     0.046 A 
HETATM   36  C   UNK N   1      51.241  53.138  55.297  0.00  0.00     0.101 A 
HETATM   37  C   UNK N   1      50.139  53.992  55.507  0.00  0.00     0.099 A 
HETATM   38  C   UNK N   1      49.430  53.935  56.713  0.00  0.00     0.040 A 
HETATM   39  C   UNK N   1      49.808  53.037  57.711  0.00  0.00     0.010 A 
BRANCH  36  40
HETATM   40  O   UNK N   1      51.923  53.216  54.122  0.00  0.00    -0.353 OA
HETATM   41  C   UNK N   1      53.285  53.402  54.007  0.00  0.00     0.210 C 
ENDBRANCH  36  40
BRANCH  37  42
HETATM   42  O   UNK N   1      49.750  54.875  54.563  0.00  0.00    -0.358 OA
HETATM   43  H   UNK N   1      50.357  55.218  53.893  0.00  0.00     0.218 HD
ENDBRANCH  37  42
ENDBRANCH  33  34
ENDBRANCH   5  33
TORSDOF 15
ENDMDL
MODEL 6
REMARK VINA RESULT:      -5.6     17.997     22.121
REMARK  15 active torsions:
REMARK  status: ('A' for Active; 'I' for Inactive)
REMARK    1  A    between atoms: C_2  and  O_3 
REMARK    2  A    between atoms: O_3  and  C_4 
REMARK    3  A    between atoms: C_4  and  C_5 
REMARK    4  A    between atoms: C_6  and  C_21 
REMARK    5  A    between atoms: C_9  and  C_10 
REMARK    6  A    between atoms: C_10  and  C_11 
REMARK    7  A    between atoms: C_13  and  O_14 
REMARK    8  A    between atoms: C_16  and  O_17 
REMARK    9  A    between atoms: C_23  and  O_24 
REMARK   10  A    between atoms: C_26  and  O_27 
REMARK   11  A    between atoms: C_31  and  O_32 
REMARK   12  A    between atoms: C_34  and  O_35 
REMARK   13  A    between atoms: C_37  and  O_38 
REMARK   14  A    between atoms: C_40  and  C_41 
REMARK   15  A    between atoms: C_41  and  O_42 
ROOT
HETATM    1  C   UNK N   1      50.747  52.075  58.270  0.00  0.00     0.049 C 
HETATM    2  C   UNK N   1      52.237  51.693  58.174  0.00  0.00     0.161 C 
HETATM    3  O   UNK N   1      52.844  51.967  59.430  0.00  0.00    -0.380 OA
HETATM    4  C   UNK N   1      51.817  52.316  60.336  0.00  0.00     0.174 C 
HETATM    5  C   UNK N   1      50.505  51.820  59.752  0.00  0.00     0.022 C 
ENDROOT
BRANCH   1   6
HETATM    6  C   UNK N   1      50.522  53.535  57.811  0.00  0.00     0.179 C 
BRANCH   6   7
HETATM    7  O   UNK N   1      51.722  53.993  57.230  0.00  0.00    -0.358 OA
BRANCH   7   8
HETATM    8  C   UNK N   1      51.499  54.806  56.101  0.00  0.00     0.291 C 
HETATM    9  O   UNK N   1      50.393  55.665  56.334  0.00  0.00    -0.348 OA
HETATM   10  C   UNK N   1      50.188  56.533  55.232  0.00  0.00     0.179 C 
HETATM   11  C   UNK N   1      49.733  55.704  54.007  0.00  0.00     0.180 C 
HETATM   12  C   UNK N   1      50.820  54.664  53.678  0.00  0.00     0.183 C 
HETATM   13  C   UNK N   1      51.174  53.849  54.931  0.00  0.00     0.204 C 
BRANCH  10  14
HETATM   14  C   UNK N   1      49.133  57.577  55.622  0.00  0.00     0.198 C 
BRANCH  14  15
HETATM   15  O   UNK N   1      47.881  57.232  55.089  0.00  0.00    -0.398 OA
HETATM   16  H   UNK N   1      47.980  57.222  54.101  0.00  0.00     0.209 HD
ENDBRANCH  14  15
ENDBRANCH  10  14
BRANCH  11  17
HETATM   17  O   UNK N   1      49.473  56.520  52.892  0.00  0.00    -0.390 OA
HETATM   18  H   UNK N   1      48.854  56.025  52.294  0.00  0.00     0.210 HD
ENDBRANCH  11  17
BRANCH  12  19
HETATM   19  O   UNK N   1      50.417  53.823  52.624  0.00  0.00    -0.390 OA
HETATM   20  H   UNK N   1      49.436  53.686  52.709  0.00  0.00     0.210 HD
ENDBRANCH  12  19
BRANCH  13  21
HETATM   21  O   UNK N   1      52.271  53.019  54.642  0.00  0.00    -0.388 OA
HETATM   22  H   UNK N   1      52.359  52.373  55.391  0.00  0.00     0.210 HD
ENDBRANCH  13  21
ENDBRANCH   7   8
ENDBRANCH   6   7
ENDBRANCH   1   6
BRANCH   2  23
HETATM   23  C   UNK N   1      52.437  50.244  57.759  0.00  0.00    -0.026 A 
HETATM   24  C   UNK N   1      51.648  49.637  56.765  0.00  0.00     0.049 A 
HETATM   25  C   UNK N   1      51.829  48.276  56.436  0.00  0.00     0.101 A 
HETATM   26  C   UNK N   1      52.814  47.526  57.112  0.00  0.00     0.099 A 
HETATM   27  C   UNK N   1      53.597  48.134  58.097  0.00  0.00     0.040 A 
HETATM   28  C   UNK N   1      53.410  49.477  58.420  0.00  0.00     0.012 A 
BRANCH  25  29
HETATM   29  O   UNK N   1      51.071  47.660  55.487  0.00  0.00    -0.353 OA
HETATM   30  C   UNK N   1      49.887  46.994  55.727  0.00  0.00     0.210 C 
ENDBRANCH  25  29
BRANCH  26  31
HETATM   31  O   UNK N   1      53.015  46.222  56.832  0.00  0.00    -0.358 OA
HETATM   32  H   UNK N   1      53.185  45.563  57.520  0.00  0.00     0.218 HD
ENDBRANCH  26  31
ENDBRANCH   2  23
BRANCH   5  33
HETATM   33  C   UNK N   1      49.247  52.469  60.374  0.00  0.00     0.045 C 
BRANCH  33  34
HETATM   34  C   UNK N   1      48.093  51.514  60.527  0.00  0.00    -0.055 A 
HETATM   35  C   UNK N   1      46.821  51.998  60.858  0.00  0.00     0.046 A 
HETATM   36  C   UNK N   1      45.740  51.108  61.036  0.00  0.00     0.101 A 
HETATM   37  C   UNK N   1      45.954  49.723  60.879  0.00  0.00     0.099 A 
HETATM   38  C   UNK N   1      47.229  49.246  60.551  0.00  0.00     0.040 A 
HETATM   39  C   UNK N   1      48.292  50.133  60.379  0.00  0.00     0.010 A 
BRANCH  36  40
HETATM   40  O   UNK N   1      44.495  51.551  61.363  0.00  0.00    -0.353 OA
HETATM   41  C   UNK N   1      44.102  51.945  62.626  0.00  0.00     0.210 C 
ENDBRANCH  36  40
BRANCH  37  42
HETATM   42  O   UNK N   1      44.949  48.838  61.043  0.00  0.00    -0.358 OA
HETATM   43  H   UNK N   1      44.074  49.100  61.364  0.00  0.00     0.218 HD
ENDBRANCH  37  42
ENDBRANCH  33  34
ENDBRANCH   5  33
TORSDOF 15
ENDMDL
MODEL 7
REMARK VINA RESULT:      -5.5     16.232     20.297
REMARK  15 active torsions:
REMARK  status: ('A' for Active; 'I' for Inactive)
REMARK    1  A    between atoms: C_2  and  O_3 
REMARK    2  A    between atoms: O_3  and  C_4 
REMARK    3  A    between atoms: C_4  and  C_5 
REMARK    4  A    between atoms: C_6  and  C_21 
REMARK    5  A    between atoms: C_9  and  C_10 
REMARK    6  A    between atoms: C_10  and  C_11 
REMARK    7  A    between atoms: C_13  and  O_14 
REMARK    8  A    between atoms: C_16  and  O_17 
REMARK    9  A    between atoms: C_23  and  O_24 
REMARK   10  A    between atoms: C_26  and  O_27 
REMARK   11  A    between atoms: C_31  and  O_32 
REMARK   12  A    between atoms: C_34  and  O_35 
REMARK   13  A    between atoms: C_37  and  O_38 
REMARK   14  A    between atoms: C_40  and  C_41 
REMARK   15  A    between atoms: C_41  and  O_42 
ROOT
HETATM    1  C   UNK N   1      49.810  49.787  61.144  0.00  0.00     0.049 C 
HETATM    2  C   UNK N   1      48.861  49.835  62.358  0.00  0.00     0.161 C 
HETATM    3  O   UNK N   1      49.184  50.987  63.125  0.00  0.00    -0.380 OA
HETATM    4  C   UNK N   1      50.128  51.740  62.391  0.00  0.00     0.174 C 
HETATM    5  C   UNK N   1      50.057  51.277  60.945  0.00  0.00     0.022 C 
ENDROOT
BRANCH   1   6
HETATM    6  C   UNK N   1      51.070  48.949  61.463  0.00  0.00     0.179 C 
BRANCH   6   7
HETATM    7  O   UNK N   1      51.012  47.773  60.687  0.00  0.00    -0.358 OA
BRANCH   7   8
HETATM    8  C   UNK N   1      50.613  48.022  59.358  0.00  0.00     0.291 C 
HETATM    9  O   UNK N   1      49.583  47.118  58.985  0.00  0.00    -0.348 OA
HETATM   10  C   UNK N   1      49.127  47.390  57.670  0.00  0.00     0.179 C 
HETATM   11  C   UNK N   1      50.256  47.068  56.662  0.00  0.00     0.180 C 
HETATM   12  C   UNK N   1      51.484  47.936  56.995  0.00  0.00     0.183 C 
HETATM   13  C   UNK N   1      51.860  47.780  58.476  0.00  0.00     0.204 C 
BRANCH  10  14
HETATM   14  C   UNK N   1      47.880  46.538  57.401  0.00  0.00     0.198 C 
BRANCH  14  15
HETATM   15  O   UNK N   1      47.178  47.033  56.291  0.00  0.00    -0.398 OA
HETATM   16  H   UNK N   1      47.300  46.379  55.555  0.00  0.00     0.209 HD
ENDBRANCH  14  15
ENDBRANCH  10  14
BRANCH  11  17
HETATM   17  O   UNK N   1      49.845  47.280  55.334  0.00  0.00    -0.390 OA
HETATM   18  H   UNK N   1      50.306  48.095  55.002  0.00  0.00     0.210 HD
ENDBRANCH  11  17
BRANCH  12  19
HETATM   19  O   UNK N   1      52.572  47.620  56.161  0.00  0.00    -0.390 OA
HETATM   20  H   UNK N   1      52.492  46.660  55.915  0.00  0.00     0.210 HD
ENDBRANCH  12  19
BRANCH  13  21
HETATM   21  O   UNK N   1      52.879  48.696  58.788  0.00  0.00    -0.388 OA
HETATM   22  H   UNK N   1      53.148  48.530  59.730  0.00  0.00     0.210 HD
ENDBRANCH  13  21
ENDBRANCH   7   8
ENDBRANCH   6   7
ENDBRANCH   1   6
BRANCH   2  23
HETATM   23  C   UNK N   1      47.397  49.827  61.949  0.00  0.00    -0.026 A 
HETATM   24  C   UNK N   1      46.380  50.285  62.806  0.00  0.00     0.049 A 
HETATM   25  C   UNK N   1      45.025  50.221  62.413  0.00  0.00     0.101 A 
HETATM   26  C   UNK N   1      44.697  49.694  61.147  0.00  0.00     0.099 A 
HETATM   27  C   UNK N   1      45.710  49.242  60.297  0.00  0.00     0.040 A 
HETATM   28  C   UNK N   1      47.045  49.305  60.693  0.00  0.00     0.012 A 
BRANCH  25  29
HETATM   29  O   UNK N   1      44.020  50.645  63.229  0.00  0.00    -0.353 OA
HETATM   30  C   UNK N   1      43.704  50.093  64.452  0.00  0.00     0.210 C 
ENDBRANCH  25  29
BRANCH  26  31
HETATM   31  O   UNK N   1      43.415  49.609  60.736  0.00  0.00    -0.358 OA
HETATM   32  H   UNK N   1      42.765  50.303  60.916  0.00  0.00     0.218 HD
ENDBRANCH  26  31
ENDBRANCH   2  23
BRANCH   5  33
HETATM   33  C   UNK N   1      51.285  51.671  60.091  0.00  0.00     0.045 C 
BRANCH  33  34
HETATM   34  C   UNK N   1      50.922  52.245  58.748  0.00  0.00    -0.055 A 
HETATM   35  C   UNK N   1      50.075  53.357  58.666  0.00  0.00     0.046 A 
HETATM   36  C   UNK N   1      49.702  53.882  57.410  0.00  0.00     0.101 A 
HETATM   37  C   UNK N   1      50.190  53.273  56.236  0.00  0.00     0.099 A 
HETATM   38  C   UNK N   1      51.034  52.160  56.325  0.00  0.00     0.040 A 
HETATM   39  C   UNK N   1      51.396  51.647  57.570  0.00  0.00     0.010 A 
BRANCH  36  40
HETATM   40  O   UNK N   1      48.875  54.958  57.302  0.00  0.00    -0.353 OA
HETATM   41  C   UNK N   1      47.586  55.019  57.790  0.00  0.00     0.210 C 
ENDBRANCH  36  40
BRANCH  37  42
HETATM   42  O   UNK N   1      49.855  53.742  55.015  0.00  0.00    -0.358 OA
HETATM   43  H   UNK N   1      50.026  53.244  54.203  0.00  0.00     0.218 HD
ENDBRANCH  37  42
ENDBRANCH  33  34
ENDBRANCH   5  33
TORSDOF 15
ENDMDL
MODEL 8
REMARK VINA RESULT:      -5.5     13.588     17.587
REMARK  15 active torsions:
REMARK  status: ('A' for Active; 'I' for Inactive)
REMARK    1  A    between atoms: C_2  and  O_3 
REMARK    2  A    between atoms: O_3  and  C_4 
REMARK    3  A    between atoms: C_4  and  C_5 
REMARK    4  A    between atoms: C_6  and  C_21 
REMARK    5  A    between atoms: C_9  and  C_10 
REMARK    6  A    between atoms: C_10  and  C_11 
REMARK    7  A    between atoms: C_13  and  O_14 
REMARK    8  A    between atoms: C_16  and  O_17 
REMARK    9  A    between atoms: C_23  and  O_24 
REMARK   10  A    between atoms: C_26  and  O_27 
REMARK   11  A    between atoms: C_31  and  O_32 
REMARK   12  A    between atoms: C_34  and  O_35 
REMARK   13  A    between atoms: C_37  and  O_38 
REMARK   14  A    between atoms: C_40  and  C_41 
REMARK   15  A    between atoms: C_41  and  O_42 
ROOT
HETATM    1  C   UNK N   1      40.737  46.003  46.897  0.00  0.00     0.049 C 
HETATM    2  C   UNK N   1      39.991  46.458  48.167  0.00  0.00     0.161 C 
HETATM    3  O   UNK N   1      38.644  46.014  48.070  0.00  0.00    -0.380 OA
HETATM    4  C   UNK N   1      38.549  45.178  46.935  0.00  0.00     0.174 C 
HETATM    5  C   UNK N   1      39.957  44.736  46.575  0.00  0.00     0.022 C 
ENDROOT
BRANCH   1   6
HETATM    6  C   UNK N   1      40.687  47.100  45.807  0.00  0.00     0.179 C 
BRANCH   6   7
HETATM    7  O   UNK N   1      40.024  48.218  46.352  0.00  0.00    -0.358 OA
BRANCH   7   8
HETATM    8  C   UNK N   1      39.221  48.884  45.404  0.00  0.00     0.291 C 
HETATM    9  O   UNK N   1      38.459  47.939  44.667  0.00  0.00    -0.348 OA
HETATM   10  C   UNK N   1      37.600  48.593  43.747  0.00  0.00     0.179 C 
HETATM   11  C   UNK N   1      38.453  49.281  42.654  0.00  0.00     0.180 C 
HETATM   12  C   UNK N   1      39.396  50.298  43.325  0.00  0.00     0.183 C 
HETATM   13  C   UNK N   1      40.191  49.623  44.453  0.00  0.00     0.204 C 
BRANCH  10  14
HETATM   14  C   UNK N   1      36.652  47.551  43.139  0.00  0.00     0.198 C 
BRANCH  14  15
HETATM   15  O   UNK N   1      35.411  48.133  42.839  0.00  0.00    -0.398 OA
HETATM   16  H   UNK N   1      34.868  48.101  43.669  0.00  0.00     0.209 HD
ENDBRANCH  14  15
ENDBRANCH  10  14
BRANCH  11  17
HETATM   17  O   UNK N   1      37.650  49.913  41.687  0.00  0.00    -0.390 OA
HETATM   18  H   UNK N   1      37.283  50.741  42.095  0.00  0.00     0.210 HD
ENDBRANCH  11  17
BRANCH  12  19
HETATM   19  O   UNK N   1      40.257  50.891  42.384  0.00  0.00    -0.390 OA
HETATM   20  H   UNK N   1      41.190  50.695  42.666  0.00  0.00     0.210 HD
ENDBRANCH  12  19
BRANCH  13  21
HETATM   21  O   UNK N   1      40.923  50.601  45.146  0.00  0.00    -0.388 OA
HETATM   22  H   UNK N   1      40.482  51.475  44.980  0.00  0.00     0.210 HD
ENDBRANCH  13  21
ENDBRANCH   7   8
ENDBRANCH   6   7
ENDBRANCH   1   6
BRANCH   2  23
HETATM   23  C   UNK N   1      40.656  45.957  49.439  0.00  0.00    -0.026 A 
HETATM   24  C   UNK N   1      40.088  44.938  50.226  0.00  0.00     0.049 A 
HETATM   25  C   UNK N   1      40.707  44.528  51.427  0.00  0.00     0.101 A 
HETATM   26  C   UNK N   1      41.907  45.148  51.833  0.00  0.00     0.099 A 
HETATM   27  C   UNK N   1      42.469  46.158  51.047  0.00  0.00     0.040 A 
HETATM   28  C   UNK N   1      41.851  46.561  49.865  0.00  0.00     0.012 A 
BRANCH  25  29
HETATM   29  O   UNK N   1      40.173  43.553  52.214  0.00  0.00    -0.353 OA
HETATM   30  C   UNK N   1      39.880  43.688  53.555  0.00  0.00     0.210 C 
ENDBRANCH  25  29
BRANCH  26  31
HETATM   31  O   UNK N   1      42.527  44.790  52.976  0.00  0.00    -0.358 OA
HETATM   32  H   UNK N   1      42.057  44.700  53.817  0.00  0.00     0.218 HD
ENDBRANCH  26  31
ENDBRANCH   2  23
BRANCH   5  33
HETATM   33  C   UNK N   1      40.099  44.177  45.139  0.00  0.00     0.045 C 
BRANCH  33  34
HETATM   34  C   UNK N   1      41.419  43.498  44.888  0.00  0.00    -0.055 A 
HETATM   35  C   UNK N   1      41.774  42.360  45.622  0.00  0.00     0.046 A 
HETATM   36  C   UNK N   1      43.023  41.736  45.417  0.00  0.00     0.101 A 
HETATM   37  C   UNK N   1      43.913  42.273  44.464  0.00  0.00     0.099 A 
HETATM   38  C   UNK N   1      43.553  43.413  43.735  0.00  0.00     0.040 A 
HETATM   39  C   UNK N   1      42.317  44.024  43.946  0.00  0.00     0.010 A 
BRANCH  36  40
HETATM   40  O   UNK N   1      43.396  40.633  46.121  0.00  0.00    -0.353 OA
HETATM   41  C   UNK N   1      42.555  39.878  46.913  0.00  0.00     0.210 C 
ENDBRANCH  36  40
BRANCH  37  42
HETATM   42  O   UNK N   1      45.119  41.709  44.239  0.00  0.00    -0.358 OA
HETATM   43  H   UNK N   1      45.825  42.167  43.762  0.00  0.00     0.218 HD
ENDBRANCH  37  42
ENDBRANCH  33  34
ENDBRANCH   5  33
TORSDOF 15
ENDMDL
MODEL 9
REMARK VINA RESULT:      -5.4     16.922     20.834
REMARK  15 active torsions:
REMARK  status: ('A' for Active; 'I' for Inactive)
REMARK    1  A    between atoms: C_2  and  O_3 
REMARK    2  A    between atoms: O_3  and  C_4 
REMARK    3  A    between atoms: C_4  and  C_5 
REMARK    4  A    between atoms: C_6  and  C_21 
REMARK    5  A    between atoms: C_9  and  C_10 
REMARK    6  A    between atoms: C_10  and  C_11 
REMARK    7  A    between atoms: C_13  and  O_14 
REMARK    8  A    between atoms: C_16  and  O_17 
REMARK    9  A    between atoms: C_23  and  O_24 
REMARK   10  A    between atoms: C_26  and  O_27 
REMARK   11  A    between atoms: C_31  and  O_32 
REMARK   12  A    between atoms: C_34  and  O_35 
REMARK   13  A    between atoms: C_37  and  O_38 
REMARK   14  A    between atoms: C_40  and  C_41 
REMARK   15  A    between atoms: C_41  and  O_42 
ROOT
HETATM    1  C   UNK N   1      47.120  55.057  59.385  0.00  0.00     0.049 C 
HETATM    2  C   UNK N   1      47.995  53.916  59.941  0.00  0.00     0.161 C 
HETATM    3  O   UNK N   1      48.902  54.475  60.882  0.00  0.00    -0.380 OA
HETATM    4  C   UNK N   1      48.538  55.826  61.078  0.00  0.00     0.174 C 
HETATM    5  C   UNK N   1      47.109  55.989  60.589  0.00  0.00     0.022 C 
ENDROOT
BRANCH   1   6
HETATM    6  C   UNK N   1      47.741  55.651  58.100  0.00  0.00     0.179 C 
BRANCH   6   7
HETATM    7  O   UNK N   1      48.716  54.745  57.634  0.00  0.00    -0.358 OA
BRANCH   7   8
HETATM    8  C   UNK N   1      49.473  55.268  56.567  0.00  0.00     0.291 C 
HETATM    9  O   UNK N   1      48.660  56.115  55.766  0.00  0.00    -0.348 OA
HETATM   10  C   UNK N   1      49.418  56.698  54.720  0.00  0.00     0.179 C 
HETATM   11  C   UNK N   1      49.853  55.593  53.728  0.00  0.00     0.180 C 
HETATM   12  C   UNK N   1      50.696  54.548  54.484  0.00  0.00     0.183 C 
HETATM   13  C   UNK N   1      49.941  54.056  55.728  0.00  0.00     0.204 C 
BRANCH  10  14
HETATM   14  C   UNK N   1      48.556  57.761  54.026  0.00  0.00     0.198 C 
BRANCH  14  15
HETATM   15  O   UNK N   1      49.358  58.621  53.261  0.00  0.00    -0.398 OA
HETATM   16  H   UNK N   1      50.257  58.631  53.683  0.00  0.00     0.209 HD
ENDBRANCH  14  15
ENDBRANCH  10  14
BRANCH  11  17
HETATM   17  O   UNK N   1      50.576  56.121  52.643  0.00  0.00    -0.390 OA
HETATM   18  H   UNK N   1      49.934  56.611  52.064  0.00  0.00     0.210 HD
ENDBRANCH  11  17
BRANCH  12  19
HETATM   19  O   UNK N   1      51.045  53.473  53.646  0.00  0.00    -0.390 OA
HETATM   20  H   UNK N   1      51.991  53.236  53.840  0.00  0.00     0.210 HD
ENDBRANCH  12  19
BRANCH  13  21
HETATM   21  O   UNK N   1      50.791  53.226  56.480  0.00  0.00    -0.388 OA
HETATM   22  H   UNK N   1      51.525  53.794  56.831  0.00  0.00     0.210 HD
ENDBRANCH  13  21
ENDBRANCH   7   8
ENDBRANCH   6   7
ENDBRANCH   1   6
BRANCH   2  23
HETATM   23  C   UNK N   1      47.168  52.798  60.556  0.00  0.00    -0.026 A 
HETATM   24  C   UNK N   1      47.762  51.656  61.123  0.00  0.00     0.049 A 
HETATM   25  C   UNK N   1      46.963  50.614  61.644  0.00  0.00     0.101 A 
HETATM   26  C   UNK N   1      45.559  50.730  61.594  0.00  0.00     0.099 A 
HETATM   27  C   UNK N   1      44.973  51.867  61.033  0.00  0.00     0.040 A 
HETATM   28  C   UNK N   1      45.767  52.889  60.516  0.00  0.00     0.012 A 
BRANCH  25  29
HETATM   29  O   UNK N   1      47.511  49.492  62.187  0.00  0.00    -0.353 OA
HETATM   30  C   UNK N   1      48.515  49.477  63.133  0.00  0.00     0.210 C 
ENDBRANCH  25  29
BRANCH  26  31
HETATM   31  O   UNK N   1      44.760  49.755  62.076  0.00  0.00    -0.358 OA
HETATM   32  H   UNK N   1      43.840  49.649  61.793  0.00  0.00     0.218 HD
ENDBRANCH  26  31
ENDBRANCH   2  23
BRANCH   5  33
HETATM   33  C   UNK N   1      46.689  57.456  60.329  0.00  0.00     0.045 C 
BRANCH  33  34
HETATM   34  C   UNK N   1      45.234  57.610  59.977  0.00  0.00    -0.055 A 
HETATM   35  C   UNK N   1      44.246  57.197  60.880  0.00  0.00     0.046 A 
HETATM   36  C   UNK N   1      42.879  57.307  60.545  0.00  0.00     0.101 A 
HETATM   37  C   UNK N   1      42.517  57.837  59.290  0.00  0.00     0.099 A 
HETATM   38  C   UNK N   1      43.510  58.245  58.391  0.00  0.00     0.040 A 
HETATM   39  C   UNK N   1      44.859  58.131  58.730  0.00  0.00     0.010 A 
BRANCH  36  40
HETATM   40  O   UNK N   1      41.899  56.907  61.400  0.00  0.00    -0.353 OA
HETATM   41  C   UNK N   1      42.094  56.560  62.722  0.00  0.00     0.210 C 
ENDBRANCH  36  40
BRANCH  37  42
HETATM   42  O   UNK N   1      41.222  57.956  58.929  0.00  0.00    -0.358 OA
HETATM   43  H   UNK N   1      40.950  58.088  58.010  0.00  0.00     0.218 HD
ENDBRANCH  37  42
ENDBRANCH  33  34
ENDBRANCH   5  33
TORSDOF 15
ENDMDL
