MODEL 1
REMARK VINA RESULT:      -6.3      0.000      0.000
REMARK  13 active torsions:
REMARK  status: ('A' for Active; 'I' for Inactive)
REMARK    1  A    between atoms: C_2  and  O_3 
REMARK    2  A    between atoms: O_3  and  C_4 
REMARK    3  A    between atoms: C_5  and  O_6 
REMARK    4  A    between atoms: C_9  and  C_10 
REMARK    5  A    between atoms: C_14  and  O_15 
REMARK    6  A    between atoms: C_19  and  C_20 
REMARK    7  A    between atoms: C_22  and  O_23 
REMARK    8  A    between atoms: C_25  and  O_26 
REMARK    9  A    between atoms: C_32  and  O_33 
REMARK   10  A    between atoms: C_35  and  O_36 
REMARK   11  A    between atoms: C_38  and  O_39 
REMARK   12  A    between atoms: C_41  and  C_42 
REMARK   13  A    between atoms: C_42  and  O_43 
ROOT
HETATM    1  C   UNK N   1      28.228  41.895  53.897  0.00  0.00     0.105 A 
HETATM    2  C   UNK N   1      27.756  42.205  55.177  0.00  0.00     0.102 A 
HETATM    3  C   UNK N   1      28.654  42.426  56.227  0.00  0.00     0.049 A 
HETATM    4  C   UNK N   1      30.041  42.375  56.008  0.00  0.00    -0.024 A 
HETATM    5  C   UNK N   1      30.513  42.111  54.707  0.00  0.00     0.013 A 
HETATM    6  C   UNK N   1      29.617  41.865  53.664  0.00  0.00     0.040 A 
ENDROOT
BRANCH   4   7
HETATM    7  C   UNK N   1      30.997  42.539  57.185  0.00  0.00     0.191 C 
HETATM    8  O   UNK N   1      32.204  43.205  56.780  0.00  0.00    -0.377 OA
HETATM    9  C   UNK N   1      32.201  44.505  57.385  0.00  0.00     0.179 C 
HETATM   10  C   UNK N   1      30.786  44.704  57.874  0.00  0.00     0.082 C 
HETATM   11  C   UNK N   1      30.486  43.368  58.375  0.00  0.00     0.117 C 
HETATM   12  C   UNK N   1      30.291  45.540  59.045  0.00  0.00     0.163 C 
HETATM   13  C   UNK N   1      29.048  43.624  58.791  0.00  0.00     0.210 C 
HETATM   14  O   UNK N   1      29.086  44.884  59.463  0.00  0.00    -0.378 OA
BRANCH  11  15
HETATM   15  O   UNK N   1      31.218  43.059  59.558  0.00  0.00    -0.384 OA
HETATM   16  H   UNK N   1      31.800  42.265  59.429  0.00  0.00     0.210 HD
ENDBRANCH  11  15
BRANCH  12  17
HETATM   17  C   UNK N   1      30.079  46.993  58.687  0.00  0.00    -0.026 A 
HETATM   18  C   UNK N   1      29.595  47.903  59.642  0.00  0.00     0.049 A 
HETATM   19  C   UNK N   1      29.415  49.261  59.314  0.00  0.00     0.101 A 
HETATM   20  C   UNK N   1      29.727  49.703  58.014  0.00  0.00     0.099 A 
HETATM   21  C   UNK N   1      30.209  48.794  57.065  0.00  0.00     0.040 A 
HETATM   22  C   UNK N   1      30.385  47.449  57.397  0.00  0.00     0.012 A 
BRANCH  19  23
HETATM   23  O   UNK N   1      28.947  50.158  60.227  0.00  0.00    -0.353 OA
HETATM   24  C   UNK N   1      27.625  50.289  60.603  0.00  0.00     0.210 C 
ENDBRANCH  19  23
BRANCH  20  25
HETATM   25  O   UNK N   1      29.572  50.996  57.661  0.00  0.00    -0.358 OA
HETATM   26  H   UNK N   1      30.103  51.706  58.051  0.00  0.00     0.218 HD
ENDBRANCH  20  25
ENDBRANCH  12  17
ENDBRANCH   4   7
BRANCH   2  27
HETATM   27  O   UNK N   1      26.425  42.253  55.405  0.00  0.00    -0.353 OA
HETATM   28  C   UNK N   1      25.913  42.920  56.496  0.00  0.00     0.210 C 
ENDBRANCH   2  27
BRANCH   1  29
HETATM   29  O   UNK N   1      27.323  41.595  52.929  0.00  0.00    -0.315 OA
BRANCH  29  30
HETATM   30  C   UNK N   1      26.831  42.488  51.996  0.00  0.00     0.298 C 
HETATM   31  O   UNK N   1      25.622  43.068  52.460  0.00  0.00    -0.348 OA
HETATM   32  C   UNK N   1      25.187  44.076  51.555  0.00  0.00     0.179 C 
HETATM   33  C   UNK N   1      24.822  43.451  50.183  0.00  0.00     0.180 C 
HETATM   34  C   UNK N   1      26.046  42.703  49.621  0.00  0.00     0.183 C 
HETATM   35  C   UNK N   1      26.578  41.727  50.681  0.00  0.00     0.205 C 
BRANCH  32  36
HETATM   36  C   UNK N   1      23.974  44.791  52.162  0.00  0.00     0.198 C 
BRANCH  36  37
HETATM   37  O   UNK N   1      24.133  46.176  52.030  0.00  0.00    -0.398 OA
HETATM   38  H   UNK N   1      23.375  46.486  51.470  0.00  0.00     0.209 HD
ENDBRANCH  36  37
ENDBRANCH  32  36
BRANCH  33  39
HETATM   39  O   UNK N   1      24.430  44.465  49.292  0.00  0.00    -0.390 OA
HETATM   40  H   UNK N   1      24.049  44.022  48.492  0.00  0.00     0.210 HD
ENDBRANCH  33  39
BRANCH  34  41
HETATM   41  O   UNK N   1      25.706  41.984  48.463  0.00  0.00    -0.390 OA
HETATM   42  H   UNK N   1      26.472  42.057  47.838  0.00  0.00     0.210 HD
ENDBRANCH  34  41
BRANCH  35  43
HETATM   43  O   UNK N   1      27.750  41.092  50.230  0.00  0.00    -0.388 OA
HETATM   44  H   UNK N   1      28.524  41.543  50.661  0.00  0.00     0.210 HD
ENDBRANCH  35  43
ENDBRANCH  29  30
ENDBRANCH   1  29
TORSDOF 13
ENDMDL
MODEL 2
REMARK VINA RESULT:      -6.3      1.444      9.086
REMARK  13 active torsions:
REMARK  status: ('A' for Active; 'I' for Inactive)
REMARK    1  A    between atoms: C_2  and  O_3 
REMARK    2  A    between atoms: O_3  and  C_4 
REMARK    3  A    between atoms: C_5  and  O_6 
REMARK    4  A    between atoms: C_9  and  C_10 
REMARK    5  A    between atoms: C_14  and  O_15 
REMARK    6  A    between atoms: C_19  and  C_20 
REMARK    7  A    between atoms: C_22  and  O_23 
REMARK    8  A    between atoms: C_25  and  O_26 
REMARK    9  A    between atoms: C_32  and  O_33 
REMARK   10  A    between atoms: C_35  and  O_36 
REMARK   11  A    between atoms: C_38  and  O_39 
REMARK   12  A    between atoms: C_41  and  C_42 
REMARK   13  A    between atoms: C_42  and  O_43 
ROOT
HETATM    1  C   UNK N   1      29.762  44.913  57.843  0.00  0.00     0.105 A 
HETATM    2  C   UNK N   1      30.733  44.009  57.396  0.00  0.00     0.102 A 
HETATM    3  C   UNK N   1      30.352  42.797  56.810  0.00  0.00     0.049 A 
HETATM    4  C   UNK N   1      28.994  42.484  56.627  0.00  0.00    -0.024 A 
HETATM    5  C   UNK N   1      28.021  43.418  57.033  0.00  0.00     0.013 A 
HETATM    6  C   UNK N   1      28.400  44.616  57.643  0.00  0.00     0.040 A 
ENDROOT
BRANCH   4   7
HETATM    7  C   UNK N   1      28.604  41.123  56.059  0.00  0.00     0.191 C 
HETATM    8  O   UNK N   1      27.222  40.831  56.322  0.00  0.00    -0.377 OA
HETATM    9  C   UNK N   1      26.528  40.875  55.069  0.00  0.00     0.179 C 
HETATM   10  C   UNK N   1      27.488  41.544  54.115  0.00  0.00     0.082 C 
HETATM   11  C   UNK N   1      28.748  40.946  54.539  0.00  0.00     0.117 C 
HETATM   12  C   UNK N   1      27.610  41.372  52.608  0.00  0.00     0.163 C 
HETATM   13  C   UNK N   1      29.663  41.699  53.588  0.00  0.00     0.210 C 
HETATM   14  O   UNK N   1      28.988  41.657  52.330  0.00  0.00    -0.378 OA
BRANCH  11  15
HETATM   15  O   UNK N   1      28.830  39.564  54.196  0.00  0.00    -0.384 OA
HETATM   16  H   UNK N   1      28.151  39.318  53.515  0.00  0.00     0.210 HD
ENDBRANCH  11  15
BRANCH  12  17
HETATM   17  C   UNK N   1      26.657  42.252  51.832  0.00  0.00    -0.026 A 
HETATM   18  C   UNK N   1      26.347  41.965  50.492  0.00  0.00     0.049 A 
HETATM   19  C   UNK N   1      25.445  42.774  49.774  0.00  0.00     0.101 A 
HETATM   20  C   UNK N   1      24.851  43.879  50.414  0.00  0.00     0.099 A 
HETATM   21  C   UNK N   1      25.161  44.162  51.750  0.00  0.00     0.040 A 
HETATM   22  C   UNK N   1      26.057  43.356  52.455  0.00  0.00     0.012 A 
BRANCH  19  23
HETATM   23  O   UNK N   1      25.131  42.512  48.474  0.00  0.00    -0.353 OA
HETATM   24  C   UNK N   1      25.165  41.262  47.888  0.00  0.00     0.210 C 
ENDBRANCH  19  23
BRANCH  20  25
HETATM   25  O   UNK N   1      23.978  44.676  49.763  0.00  0.00    -0.358 OA
HETATM   26  H   UNK N   1      23.022  44.620  49.903  0.00  0.00     0.218 HD
ENDBRANCH  20  25
ENDBRANCH  12  17
ENDBRANCH   4   7
BRANCH   2  27
HETATM   27  O   UNK N   1      32.042  44.293  57.570  0.00  0.00    -0.353 OA
HETATM   28  C   UNK N   1      32.872  43.433  58.254  0.00  0.00     0.210 C 
ENDBRANCH   2  27
BRANCH   1  29
HETATM   29  O   UNK N   1      30.174  46.034  58.492  0.00  0.00    -0.315 OA
BRANCH  29  30
HETATM   30  C   UNK N   1      29.748  47.319  58.209  0.00  0.00     0.298 C 
HETATM   31  O   UNK N   1      30.623  47.931  57.275  0.00  0.00    -0.348 OA
HETATM   32  C   UNK N   1      30.112  49.202  56.893  0.00  0.00     0.179 C 
HETATM   33  C   UNK N   1      30.096  50.167  58.108  0.00  0.00     0.180 C 
HETATM   34  C   UNK N   1      29.246  49.553  59.236  0.00  0.00     0.183 C 
HETATM   35  C   UNK N   1      29.732  48.124  59.521  0.00  0.00     0.205 C 
BRANCH  32  36
HETATM   36  C   UNK N   1      30.989  49.766  55.768  0.00  0.00     0.198 C 
BRANCH  36  37
HETATM   37  O   UNK N   1      32.003  50.560  56.317  0.00  0.00    -0.398 OA
HETATM   38  H   UNK N   1      31.782  50.661  57.279  0.00  0.00     0.209 HD
ENDBRANCH  36  37
ENDBRANCH  32  36
BRANCH  33  39
HETATM   39  O   UNK N   1      29.555  51.406  57.720  0.00  0.00    -0.390 OA
HETATM   40  H   UNK N   1      29.065  51.259  56.871  0.00  0.00     0.210 HD
ENDBRANCH  33  39
BRANCH  34  41
HETATM   41  O   UNK N   1      29.345  50.317  60.411  0.00  0.00    -0.390 OA
HETATM   42  H   UNK N   1      29.269  51.270  60.148  0.00  0.00     0.210 HD
ENDBRANCH  34  41
BRANCH  35  43
HETATM   43  O   UNK N   1      28.917  47.504  60.487  0.00  0.00    -0.388 OA
HETATM   44  H   UNK N   1      29.449  47.422  61.323  0.00  0.00     0.210 HD
ENDBRANCH  35  43
ENDBRANCH  29  30
ENDBRANCH   1  29
TORSDOF 13
ENDMDL
MODEL 3
REMARK VINA RESULT:      -6.2      1.635      2.348
REMARK  13 active torsions:
REMARK  status: ('A' for Active; 'I' for Inactive)
REMARK    1  A    between atoms: C_2  and  O_3 
REMARK    2  A    between atoms: O_3  and  C_4 
REMARK    3  A    between atoms: C_5  and  O_6 
REMARK    4  A    between atoms: C_9  and  C_10 
REMARK    5  A    between atoms: C_14  and  O_15 
REMARK    6  A    between atoms: C_19  and  C_20 
REMARK    7  A    between atoms: C_22  and  O_23 
REMARK    8  A    between atoms: C_25  and  O_26 
REMARK    9  A    between atoms: C_32  and  O_33 
REMARK   10  A    between atoms: C_35  and  O_36 
REMARK   11  A    between atoms: C_38  and  O_39 
REMARK   12  A    between atoms: C_41  and  C_42 
REMARK   13  A    between atoms: C_42  and  O_43 
ROOT
HETATM    1  C   UNK N   1      27.642  42.005  55.325  0.00  0.00     0.105 A 
HETATM    2  C   UNK N   1      28.983  41.605  55.382  0.00  0.00     0.102 A 
HETATM    3  C   UNK N   1      29.839  42.140  56.350  0.00  0.00     0.049 A 
HETATM    4  C   UNK N   1      29.363  43.059  57.301  0.00  0.00    -0.024 A 
HETATM    5  C   UNK N   1      28.002  43.422  57.271  0.00  0.00     0.013 A 
HETATM    6  C   UNK N   1      27.152  42.908  56.288  0.00  0.00     0.040 A 
ENDROOT
BRANCH   4   7
HETATM    7  C   UNK N   1      30.334  43.688  58.294  0.00  0.00     0.191 C 
HETATM    8  O   UNK N   1      31.602  43.958  57.674  0.00  0.00    -0.377 OA
HETATM    9  C   UNK N   1      31.735  45.381  57.569  0.00  0.00     0.179 C 
HETATM   10  C   UNK N   1      30.350  45.923  57.833  0.00  0.00     0.082 C 
HETATM   11  C   UNK N   1      29.916  45.035  58.905  0.00  0.00     0.117 C 
HETATM   12  C   UNK N   1      29.949  47.265  58.425  0.00  0.00     0.163 C 
HETATM   13  C   UNK N   1      28.513  45.593  59.076  0.00  0.00     0.210 C 
HETATM   14  O   UNK N   1      28.684  47.011  59.052  0.00  0.00    -0.378 OA
BRANCH  11  15
HETATM   15  O   UNK N   1      30.617  45.278  60.122  0.00  0.00    -0.384 OA
HETATM   16  H   UNK N   1      30.287  46.098  60.574  0.00  0.00     0.210 HD
ENDBRANCH  11  15
BRANCH  12  17
HETATM   17  C   UNK N   1      29.886  48.371  57.396  0.00  0.00    -0.026 A 
HETATM   18  C   UNK N   1      28.693  49.080  57.178  0.00  0.00     0.049 A 
HETATM   19  C   UNK N   1      28.639  50.123  56.233  0.00  0.00     0.101 A 
HETATM   20  C   UNK N   1      29.798  50.453  55.504  0.00  0.00     0.099 A 
HETATM   21  C   UNK N   1      30.986  49.745  55.724  0.00  0.00     0.040 A 
HETATM   22  C   UNK N   1      31.032  48.712  56.663  0.00  0.00     0.012 A 
BRANCH  19  23
HETATM   23  O   UNK N   1      27.492  50.823  56.008  0.00  0.00    -0.353 OA
HETATM   24  C   UNK N   1      26.355  50.754  56.791  0.00  0.00     0.210 C 
ENDBRANCH  19  23
BRANCH  20  25
HETATM   25  O   UNK N   1      29.790  51.448  54.593  0.00  0.00    -0.358 OA
HETATM   26  H   UNK N   1      29.136  51.492  53.881  0.00  0.00     0.218 HD
ENDBRANCH  20  25
ENDBRANCH  12  17
ENDBRANCH   4   7
BRANCH   2  27
HETATM   27  O   UNK N   1      29.457  40.726  54.471  0.00  0.00    -0.353 OA
HETATM   28  C   UNK N   1      29.769  39.432  54.826  0.00  0.00     0.210 C 
ENDBRANCH   2  27
BRANCH   1  29
HETATM   29  O   UNK N   1      26.869  41.534  54.312  0.00  0.00    -0.315 OA
BRANCH  29  30
HETATM   30  C   UNK N   1      26.708  42.146  53.083  0.00  0.00     0.298 C 
HETATM   31  O   UNK N   1      25.537  42.947  53.082  0.00  0.00    -0.348 OA
HETATM   32  C   UNK N   1      25.444  43.671  51.861  0.00  0.00     0.179 C 
HETATM   33  C   UNK N   1      25.256  42.698  50.667  0.00  0.00     0.180 C 
HETATM   34  C   UNK N   1      26.435  41.707  50.626  0.00  0.00     0.183 C 
HETATM   35  C   UNK N   1      26.597  41.051  52.006  0.00  0.00     0.205 C 
BRANCH  32  36
HETATM   36  C   UNK N   1      24.263  44.644  51.956  0.00  0.00     0.198 C 
BRANCH  36  37
HETATM   37  O   UNK N   1      24.646  45.895  51.457  0.00  0.00    -0.398 OA
HETATM   38  H   UNK N   1      24.588  46.525  52.221  0.00  0.00     0.209 HD
ENDBRANCH  36  37
ENDBRANCH  32  36
BRANCH  33  39
HETATM   39  O   UNK N   1      25.203  43.429  49.467  0.00  0.00    -0.390 OA
HETATM   40  H   UNK N   1      26.128  43.483  49.115  0.00  0.00     0.210 HD
ENDBRANCH  33  39
BRANCH  34  41
HETATM   41  O   UNK N   1      26.215  40.707  49.664  0.00  0.00    -0.390 OA
HETATM   42  H   UNK N   1      25.250  40.724  49.440  0.00  0.00     0.210 HD
ENDBRANCH  34  41
BRANCH  35  43
HETATM   43  O   UNK N   1      27.722  40.205  52.025  0.00  0.00    -0.388 OA
HETATM   44  H   UNK N   1      28.532  40.779  52.076  0.00  0.00     0.210 HD
ENDBRANCH  35  43
ENDBRANCH  29  30
ENDBRANCH   1  29
TORSDOF 13
ENDMDL
MODEL 4
REMARK VINA RESULT:      -6.2      1.176      2.077
REMARK  13 active torsions:
REMARK  status: ('A' for Active; 'I' for Inactive)
REMARK    1  A    between atoms: C_2  and  O_3 
REMARK    2  A    between atoms: O_3  and  C_4 
REMARK    3  A    between atoms: C_5  and  O_6 
REMARK    4  A    between atoms: C_9  and  C_10 
REMARK    5  A    between atoms: C_14  and  O_15 
REMARK    6  A    between atoms: C_19  and  C_20 
REMARK    7  A    between atoms: C_22  and  O_23 
REMARK    8  A    between atoms: C_25  and  O_26 
REMARK    9  A    between atoms: C_32  and  O_33 
REMARK   10  A    between atoms: C_35  and  O_36 
REMARK   11  A    between atoms: C_38  and  O_39 
REMARK   12  A    between atoms: C_41  and  C_42 
REMARK   13  A    between atoms: C_42  and  O_43 
ROOT
HETATM    1  C   UNK N   1      27.710  41.803  54.916  0.00  0.00     0.105 A 
HETATM    2  C   UNK N   1      28.799  40.928  55.014  0.00  0.00     0.102 A 
HETATM    3  C   UNK N   1      29.852  41.206  55.893  0.00  0.00     0.049 A 
HETATM    4  C   UNK N   1      29.818  42.346  56.715  0.00  0.00    -0.024 A 
HETATM    5  C   UNK N   1      28.699  43.198  56.649  0.00  0.00     0.013 A 
HETATM    6  C   UNK N   1      27.659  42.935  55.753  0.00  0.00     0.040 A 
ENDROOT
BRANCH   4   7
HETATM    7  C   UNK N   1      31.014  42.669  57.604  0.00  0.00     0.191 C 
HETATM    8  O   UNK N   1      32.005  43.421  56.884  0.00  0.00    -0.377 OA
HETATM    9  C   UNK N   1      32.014  44.748  57.426  0.00  0.00     0.179 C 
HETATM   10  C   UNK N   1      30.754  44.841  58.252  0.00  0.00     0.082 C 
HETATM   11  C   UNK N   1      30.731  43.515  58.857  0.00  0.00     0.117 C 
HETATM   12  C   UNK N   1      30.481  45.695  59.481  0.00  0.00     0.163 C 
HETATM   13  C   UNK N   1      29.424  43.659  59.616  0.00  0.00     0.210 C 
HETATM   14  O   UNK N   1      29.495  44.954  60.214  0.00  0.00    -0.378 OA
BRANCH  11  15
HETATM   15  O   UNK N   1      31.765  43.348  59.825  0.00  0.00    -0.384 OA
HETATM   16  H   UNK N   1      32.634  43.139  59.395  0.00  0.00     0.210 HD
ENDBRANCH  11  15
BRANCH  12  17
HETATM   17  C   UNK N   1      30.032  47.098  59.141  0.00  0.00    -0.026 A 
HETATM   18  C   UNK N   1      30.211  47.613  57.846  0.00  0.00     0.049 A 
HETATM   19  C   UNK N   1      29.777  48.913  57.523  0.00  0.00     0.101 A 
HETATM   20  C   UNK N   1      29.157  49.699  58.515  0.00  0.00     0.099 A 
HETATM   21  C   UNK N   1      28.979  49.182  59.804  0.00  0.00     0.040 A 
HETATM   22  C   UNK N   1      29.413  47.892  60.117  0.00  0.00     0.012 A 
BRANCH  19  23
HETATM   23  O   UNK N   1      29.940  49.430  56.273  0.00  0.00    -0.353 OA
HETATM   24  C   UNK N   1      31.083  50.060  55.820  0.00  0.00     0.210 C 
ENDBRANCH  19  23
BRANCH  20  25
HETATM   25  O   UNK N   1      28.722  50.947  58.245  0.00  0.00    -0.358 OA
HETATM   26  H   UNK N   1      27.970  51.345  58.707  0.00  0.00     0.218 HD
ENDBRANCH  20  25
ENDBRANCH  12  17
ENDBRANCH   4   7
BRANCH   2  27
HETATM   27  O   UNK N   1      28.848  39.832  54.227  0.00  0.00    -0.353 OA
HETATM   28  C   UNK N   1      28.792  38.565  54.766  0.00  0.00     0.210 C 
ENDBRANCH   2  27
BRANCH   1  29
HETATM   29  O   UNK N   1      26.756  41.546  53.984  0.00  0.00    -0.315 OA
BRANCH  29  30
HETATM   30  C   UNK N   1      26.639  42.191  52.766  0.00  0.00     0.298 C 
HETATM   31  O   UNK N   1      25.450  42.964  52.732  0.00  0.00    -0.348 OA
HETATM   32  C   UNK N   1      25.398  43.722  51.529  0.00  0.00     0.179 C 
HETATM   33  C   UNK N   1      25.292  42.781  50.300  0.00  0.00     0.180 C 
HETATM   34  C   UNK N   1      26.495  41.819  50.288  0.00  0.00     0.183 C 
HETATM   35  C   UNK N   1      26.607  41.126  51.655  0.00  0.00     0.205 C 
BRANCH  32  36
HETATM   36  C   UNK N   1      24.190  44.664  51.594  0.00  0.00     0.198 C 
BRANCH  36  37
HETATM   37  O   UNK N   1      24.632  45.983  51.752  0.00  0.00    -0.398 OA
HETATM   38  H   UNK N   1      24.131  46.522  51.086  0.00  0.00     0.209 HD
ENDBRANCH  36  37
ENDBRANCH  32  36
BRANCH  33  39
HETATM   39  O   UNK N   1      25.278  43.546  49.120  0.00  0.00    -0.390 OA
HETATM   40  H   UNK N   1      25.213  44.498  49.389  0.00  0.00     0.210 HD
ENDBRANCH  33  39
BRANCH  34  41
HETATM   41  O   UNK N   1      26.347  40.844  49.288  0.00  0.00    -0.390 OA
HETATM   42  H   UNK N   1      25.478  40.393  49.446  0.00  0.00     0.210 HD
ENDBRANCH  34  41
BRANCH  35  43
HETATM   43  O   UNK N   1      27.750  40.306  51.705  0.00  0.00    -0.388 OA
HETATM   44  H   UNK N   1      27.462  39.405  52.010  0.00  0.00     0.210 HD
ENDBRANCH  35  43
ENDBRANCH  29  30
ENDBRANCH   1  29
TORSDOF 13
ENDMDL
MODEL 5
REMARK VINA RESULT:      -6.1      5.288      7.689
REMARK  13 active torsions:
REMARK  status: ('A' for Active; 'I' for Inactive)
REMARK    1  A    between atoms: C_2  and  O_3 
REMARK    2  A    between atoms: O_3  and  C_4 
REMARK    3  A    between atoms: C_5  and  O_6 
REMARK    4  A    between atoms: C_9  and  C_10 
REMARK    5  A    between atoms: C_14  and  O_15 
REMARK    6  A    between atoms: C_19  and  C_20 
REMARK    7  A    between atoms: C_22  and  O_23 
REMARK    8  A    between atoms: C_25  and  O_26 
REMARK    9  A    between atoms: C_32  and  O_33 
REMARK   10  A    between atoms: C_35  and  O_36 
REMARK   11  A    between atoms: C_38  and  O_39 
REMARK   12  A    between atoms: C_41  and  C_42 
REMARK   13  A    between atoms: C_42  and  O_43 
ROOT
HETATM    1  C   UNK N   1      29.027  45.738  58.150  0.00  0.00     0.105 A 
HETATM    2  C   UNK N   1      28.719  44.561  58.842  0.00  0.00     0.102 A 
HETATM    3  C   UNK N   1      29.703  43.590  59.056  0.00  0.00     0.049 A 
HETATM    4  C   UNK N   1      31.022  43.794  58.615  0.00  0.00    -0.024 A 
HETATM    5  C   UNK N   1      31.339  45.002  57.962  0.00  0.00     0.013 A 
HETATM    6  C   UNK N   1      30.351  45.961  57.725  0.00  0.00     0.040 A 
ENDROOT
BRANCH   4   7
HETATM    7  C   UNK N   1      32.056  42.687  58.789  0.00  0.00     0.191 C 
HETATM    8  O   UNK N   1      33.229  42.947  58.001  0.00  0.00    -0.377 OA
HETATM    9  C   UNK N   1      34.296  43.254  58.907  0.00  0.00     0.179 C 
HETATM   10  C   UNK N   1      33.621  43.505  60.234  0.00  0.00     0.082 C 
HETATM   11  C   UNK N   1      32.596  42.469  60.213  0.00  0.00     0.117 C 
HETATM   12  C   UNK N   1      34.172  43.299  61.637  0.00  0.00     0.163 C 
HETATM   13  C   UNK N   1      31.928  42.815  61.533  0.00  0.00     0.210 C 
HETATM   14  O   UNK N   1      33.012  43.035  62.437  0.00  0.00    -0.378 OA
BRANCH  11  15
HETATM   15  O   UNK N   1      33.148  41.162  60.350  0.00  0.00    -0.384 OA
HETATM   16  H   UNK N   1      33.233  40.709  59.470  0.00  0.00     0.210 HD
ENDBRANCH  11  15
BRANCH  12  17
HETATM   17  C   UNK N   1      34.977  44.478  62.136  0.00  0.00    -0.026 A 
HETATM   18  C   UNK N   1      34.403  45.423  63.002  0.00  0.00     0.049 A 
HETATM   19  C   UNK N   1      35.158  46.511  63.482  0.00  0.00     0.101 A 
HETATM   20  C   UNK N   1      36.503  46.645  63.085  0.00  0.00     0.099 A 
HETATM   21  C   UNK N   1      37.072  45.700  62.222  0.00  0.00     0.040 A 
HETATM   22  C   UNK N   1      36.317  44.624  61.750  0.00  0.00     0.012 A 
BRANCH  19  23
HETATM   23  O   UNK N   1      34.618  47.437  64.323  0.00  0.00    -0.353 OA
HETATM   24  C   UNK N   1      33.437  48.117  64.100  0.00  0.00     0.210 C 
ENDBRANCH  19  23
BRANCH  20  25
HETATM   25  O   UNK N   1      37.261  47.670  63.526  0.00  0.00    -0.358 OA
HETATM   26  H   UNK N   1      37.682  48.299  62.923  0.00  0.00     0.218 HD
ENDBRANCH  20  25
ENDBRANCH  12  17
ENDBRANCH   4   7
BRANCH   2  27
HETATM   27  O   UNK N   1      27.455  44.347  59.268  0.00  0.00    -0.353 OA
HETATM   28  C   UNK N   1      27.155  44.301  60.612  0.00  0.00     0.210 C 
ENDBRANCH   2  27
BRANCH   1  29
HETATM   29  O   UNK N   1      28.021  46.611  57.881  0.00  0.00    -0.315 OA
BRANCH  29  30
HETATM   30  C   UNK N   1      28.113  47.987  57.984  0.00  0.00     0.298 C 
HETATM   31  O   UNK N   1      28.965  48.500  56.973  0.00  0.00    -0.348 OA
HETATM   32  C   UNK N   1      28.956  49.922  57.006  0.00  0.00     0.179 C 
HETATM   33  C   UNK N   1      29.567  50.438  58.335  0.00  0.00     0.180 C 
HETATM   34  C   UNK N   1      28.772  49.859  59.521  0.00  0.00     0.183 C 
HETATM   35  C   UNK N   1      28.677  48.333  59.374  0.00  0.00     0.205 C 
BRANCH  32  36
HETATM   36  C   UNK N   1      29.754  50.447  55.806  0.00  0.00     0.198 C 
BRANCH  36  37
HETATM   37  O   UNK N   1      31.035  50.824  56.225  0.00  0.00    -0.398 OA
HETATM   38  H   UNK N   1      31.377  51.448  55.533  0.00  0.00     0.209 HD
ENDBRANCH  36  37
ENDBRANCH  32  36
BRANCH  33  39
HETATM   39  O   UNK N   1      29.516  51.843  58.365  0.00  0.00    -0.390 OA
HETATM   40  H   UNK N   1      29.815  52.166  57.476  0.00  0.00     0.210 HD
ENDBRANCH  33  39
BRANCH  34  41
HETATM   41  O   UNK N   1      29.396  50.166  60.741  0.00  0.00    -0.390 OA
HETATM   42  H   UNK N   1      28.678  50.304  61.410  0.00  0.00     0.210 HD
ENDBRANCH  34  41
BRANCH  35  43
HETATM   43  O   UNK N   1      27.881  47.783  60.396  0.00  0.00    -0.388 OA
HETATM   44  H   UNK N   1      27.535  46.908  60.073  0.00  0.00     0.210 HD
ENDBRANCH  35  43
ENDBRANCH  29  30
ENDBRANCH   1  29
TORSDOF 13
ENDMDL
MODEL 6
REMARK VINA RESULT:      -6.1      1.794      8.170
REMARK  13 active torsions:
REMARK  status: ('A' for Active; 'I' for Inactive)
REMARK    1  A    between atoms: C_2  and  O_3 
REMARK    2  A    between atoms: O_3  and  C_4 
REMARK    3  A    between atoms: C_5  and  O_6 
REMARK    4  A    between atoms: C_9  and  C_10 
REMARK    5  A    between atoms: C_14  and  O_15 
REMARK    6  A    between atoms: C_19  and  C_20 
REMARK    7  A    between atoms: C_22  and  O_23 
REMARK    8  A    between atoms: C_25  and  O_26 
REMARK    9  A    between atoms: C_32  and  O_33 
REMARK   10  A    between atoms: C_35  and  O_36 
REMARK   11  A    between atoms: C_38  and  O_39 
REMARK   12  A    between atoms: C_41  and  C_42 
REMARK   13  A    between atoms: C_42  and  O_43 
ROOT
HETATM    1  C   UNK N   1      30.371  45.006  58.448  0.00  0.00     0.105 A 
HETATM    2  C   UNK N   1      29.217  44.276  58.755  0.00  0.00     0.102 A 
HETATM    3  C   UNK N   1      29.029  42.996  58.222  0.00  0.00     0.049 A 
HETATM    4  C   UNK N   1      30.008  42.408  57.402  0.00  0.00    -0.024 A 
HETATM    5  C   UNK N   1      31.190  43.127  57.135  0.00  0.00     0.013 A 
HETATM    6  C   UNK N   1      31.367  44.415  57.645  0.00  0.00     0.040 A 
ENDROOT
BRANCH   4   7
HETATM    7  C   UNK N   1      29.743  41.046  56.769  0.00  0.00     0.191 C 
HETATM    8  O   UNK N   1      28.413  40.590  57.065  0.00  0.00    -0.377 OA
HETATM    9  C   UNK N   1      27.663  40.627  55.843  0.00  0.00     0.179 C 
HETATM   10  C   UNK N   1      28.504  41.450  54.896  0.00  0.00     0.082 C 
HETATM   11  C   UNK N   1      29.838  40.971  55.236  0.00  0.00     0.117 C 
HETATM   12  C   UNK N   1      28.577  41.376  53.378  0.00  0.00     0.163 C 
HETATM   13  C   UNK N   1      30.624  41.872  54.299  0.00  0.00     0.210 C 
HETATM   14  O   UNK N   1      29.903  41.826  53.066  0.00  0.00    -0.378 OA
BRANCH  11  15
HETATM   15  O   UNK N   1      30.053  39.628  54.808  0.00  0.00    -0.384 OA
HETATM   16  H   UNK N   1      29.679  39.471  53.902  0.00  0.00     0.210 HD
ENDBRANCH  11  15
BRANCH  12  17
HETATM   17  C   UNK N   1      27.502  42.187  52.692  0.00  0.00    -0.026 A 
HETATM   18  C   UNK N   1      26.664  43.038  53.432  0.00  0.00     0.049 A 
HETATM   19  C   UNK N   1      25.675  43.808  52.792  0.00  0.00     0.101 A 
HETATM   20  C   UNK N   1      25.530  43.720  51.393  0.00  0.00     0.099 A 
HETATM   21  C   UNK N   1      26.367  42.872  50.658  0.00  0.00     0.040 A 
HETATM   22  C   UNK N   1      27.346  42.110  51.301  0.00  0.00     0.012 A 
BRANCH  19  23
HETATM   23  O   UNK N   1      24.853  44.640  53.492  0.00  0.00    -0.353 OA
HETATM   24  C   UNK N   1      24.043  44.253  54.542  0.00  0.00     0.210 C 
ENDBRANCH  19  23
BRANCH  20  25
HETATM   25  O   UNK N   1      24.598  44.444  50.741  0.00  0.00    -0.358 OA
HETATM   26  H   UNK N   1      24.820  45.032  50.005  0.00  0.00     0.218 HD
ENDBRANCH  20  25
ENDBRANCH  12  17
ENDBRANCH   4   7
BRANCH   2  27
HETATM   27  O   UNK N   1      28.264  44.828  59.537  0.00  0.00    -0.353 OA
HETATM   28  C   UNK N   1      26.951  44.888  59.125  0.00  0.00     0.210 C 
ENDBRANCH   2  27
BRANCH   1  29
HETATM   29  O   UNK N   1      30.471  46.280  58.908  0.00  0.00    -0.315 OA
BRANCH  29  30
HETATM   30  C   UNK N   1      29.827  47.376  58.363  0.00  0.00     0.298 C 
HETATM   31  O   UNK N   1      30.697  48.069  57.483  0.00  0.00    -0.348 OA
HETATM   32  C   UNK N   1      29.993  49.119  56.831  0.00  0.00     0.179 C 
HETATM   33  C   UNK N   1      29.540  50.188  57.860  0.00  0.00     0.180 C 
HETATM   34  C   UNK N   1      28.657  49.522  58.932  0.00  0.00     0.183 C 
HETATM   35  C   UNK N   1      29.391  48.304  59.512  0.00  0.00     0.205 C 
BRANCH  32  36
HETATM   36  C   UNK N   1      30.911  49.744  55.773  0.00  0.00     0.198 C 
BRANCH  36  37
HETATM   37  O   UNK N   1      31.561  50.859  56.317  0.00  0.00    -0.398 OA
HETATM   38  H   UNK N   1      32.389  50.981  55.784  0.00  0.00     0.209 HD
ENDBRANCH  36  37
ENDBRANCH  32  36
BRANCH  33  39
HETATM   39  O   UNK N   1      28.815  51.198  57.203  0.00  0.00    -0.390 OA
HETATM   40  H   UNK N   1      29.279  51.383  56.346  0.00  0.00     0.210 HD
ENDBRANCH  33  39
BRANCH  34  41
HETATM   41  O   UNK N   1      28.366  50.422  59.971  0.00  0.00    -0.390 OA
HETATM   42  H   UNK N   1      27.685  51.055  59.628  0.00  0.00     0.210 HD
ENDBRANCH  34  41
BRANCH  35  43
HETATM   43  O   UNK N   1      28.574  47.621  60.432  0.00  0.00    -0.388 OA
HETATM   44  H   UNK N   1      27.666  47.547  60.034  0.00  0.00     0.210 HD
ENDBRANCH  35  43
ENDBRANCH  29  30
ENDBRANCH   1  29
TORSDOF 13
ENDMDL
MODEL 7
REMARK VINA RESULT:      -6.1      1.864      2.472
REMARK  13 active torsions:
REMARK  status: ('A' for Active; 'I' for Inactive)
REMARK    1  A    between atoms: C_2  and  O_3 
REMARK    2  A    between atoms: O_3  and  C_4 
REMARK    3  A    between atoms: C_5  and  O_6 
REMARK    4  A    between atoms: C_9  and  C_10 
REMARK    5  A    between atoms: C_14  and  O_15 
REMARK    6  A    between atoms: C_19  and  C_20 
REMARK    7  A    between atoms: C_22  and  O_23 
REMARK    8  A    between atoms: C_25  and  O_26 
REMARK    9  A    between atoms: C_32  and  O_33 
REMARK   10  A    between atoms: C_35  and  O_36 
REMARK   11  A    between atoms: C_38  and  O_39 
REMARK   12  A    between atoms: C_41  and  C_42 
REMARK   13  A    between atoms: C_42  and  O_43 
ROOT
HETATM    1  C   UNK N   1      29.139  40.715  54.733  0.00  0.00     0.105 A 
HETATM    2  C   UNK N   1      28.722  40.778  56.068  0.00  0.00     0.102 A 
HETATM    3  C   UNK N   1      29.463  41.507  57.006  0.00  0.00     0.049 A 
HETATM    4  C   UNK N   1      30.613  42.215  56.617  0.00  0.00    -0.024 A 
HETATM    5  C   UNK N   1      31.002  42.189  55.264  0.00  0.00     0.013 A 
HETATM    6  C   UNK N   1      30.278  41.440  54.332  0.00  0.00     0.040 A 
ENDROOT
BRANCH   4   7
HETATM    7  C   UNK N   1      31.447  42.935  57.672  0.00  0.00     0.191 C 
HETATM    8  O   UNK N   1      32.397  43.823  57.062  0.00  0.00    -0.377 OA
HETATM    9  C   UNK N   1      31.980  45.164  57.350  0.00  0.00     0.179 C 
HETATM   10  C   UNK N   1      30.563  45.031  57.855  0.00  0.00     0.082 C 
HETATM   11  C   UNK N   1      30.679  43.824  58.665  0.00  0.00     0.117 C 
HETATM   12  C   UNK N   1      29.810  45.927  58.827  0.00  0.00     0.163 C 
HETATM   13  C   UNK N   1      29.224  43.720  59.087  0.00  0.00     0.210 C 
HETATM   14  O   UNK N   1      28.857  45.053  59.448  0.00  0.00    -0.378 OA
BRANCH  11  15
HETATM   15  O   UNK N   1      31.446  44.041  59.847  0.00  0.00    -0.384 OA
HETATM   16  H   UNK N   1      31.731  44.989  59.926  0.00  0.00     0.210 HD
ENDBRANCH  11  15
BRANCH  12  17
HETATM   17  C   UNK N   1      29.166  47.119  58.156  0.00  0.00    -0.026 A 
HETATM   18  C   UNK N   1      29.950  48.182  57.678  0.00  0.00     0.049 A 
HETATM   19  C   UNK N   1      29.353  49.284  57.036  0.00  0.00     0.101 A 
HETATM   20  C   UNK N   1      27.954  49.313  56.875  0.00  0.00     0.099 A 
HETATM   21  C   UNK N   1      27.175  48.252  57.352  0.00  0.00     0.040 A 
HETATM   22  C   UNK N   1      27.775  47.162  57.988  0.00  0.00     0.012 A 
BRANCH  19  23
HETATM   23  O   UNK N   1      30.097  50.325  56.565  0.00  0.00    -0.353 OA
HETATM   24  C   UNK N   1      31.231  50.199  55.787  0.00  0.00     0.210 C 
ENDBRANCH  19  23
BRANCH  20  25
HETATM   25  O   UNK N   1      27.344  50.348  56.262  0.00  0.00    -0.358 OA
HETATM   26  H   UNK N   1      27.838  51.079  55.864  0.00  0.00     0.218 HD
ENDBRANCH  20  25
ENDBRANCH  12  17
ENDBRANCH   4   7
BRANCH   2  27
HETATM   27  O   UNK N   1      27.622  40.098  56.458  0.00  0.00    -0.353 OA
HETATM   28  C   UNK N   1      26.413  40.737  56.625  0.00  0.00     0.210 C 
ENDBRANCH   2  27
BRANCH   1  29
HETATM   29  O   UNK N   1      28.446  39.920  53.877  0.00  0.00    -0.315 OA
BRANCH  29  30
HETATM   30  C   UNK N   1      27.609  40.370  52.874  0.00  0.00     0.298 C 
HETATM   31  O   UNK N   1      27.252  41.724  53.103  0.00  0.00    -0.348 OA
HETATM   32  C   UNK N   1      26.494  42.219  52.005  0.00  0.00     0.179 C 
HETATM   33  C   UNK N   1      25.141  41.468  51.897  0.00  0.00     0.180 C 
HETATM   34  C   UNK N   1      25.407  39.958  51.741  0.00  0.00     0.183 C 
HETATM   35  C   UNK N   1      26.347  39.488  52.861  0.00  0.00     0.205 C 
BRANCH  32  36
HETATM   36  C   UNK N   1      26.263  43.722  52.206  0.00  0.00     0.198 C 
BRANCH  36  37
HETATM   37  O   UNK N   1      26.598  44.076  53.519  0.00  0.00    -0.398 OA
HETATM   38  H   UNK N   1      26.750  45.056  53.508  0.00  0.00     0.209 HD
ENDBRANCH  36  37
ENDBRANCH  32  36
BRANCH  33  39
HETATM   39  O   UNK N   1      24.424  41.945  50.786  0.00  0.00    -0.390 OA
HETATM   40  H   UNK N   1      25.029  42.548  50.283  0.00  0.00     0.210 HD
ENDBRANCH  33  39
BRANCH  34  41
HETATM   41  O   UNK N   1      24.209  39.229  51.809  0.00  0.00    -0.390 OA
HETATM   42  H   UNK N   1      23.771  39.465  52.667  0.00  0.00     0.210 HD
ENDBRANCH  34  41
BRANCH  35  43
HETATM   43  O   UNK N   1      26.680  38.130  52.695  0.00  0.00    -0.388 OA
HETATM   44  H   UNK N   1      27.671  38.060  52.691  0.00  0.00     0.210 HD
ENDBRANCH  35  43
ENDBRANCH  29  30
ENDBRANCH   1  29
TORSDOF 13
ENDMDL
MODEL 8
REMARK VINA RESULT:      -6.1     20.306     23.477
REMARK  13 active torsions:
REMARK  status: ('A' for Active; 'I' for Inactive)
REMARK    1  A    between atoms: C_2  and  O_3 
REMARK    2  A    between atoms: O_3  and  C_4 
REMARK    3  A    between atoms: C_5  and  O_6 
REMARK    4  A    between atoms: C_9  and  C_10 
REMARK    5  A    between atoms: C_14  and  O_15 
REMARK    6  A    between atoms: C_19  and  C_20 
REMARK    7  A    between atoms: C_22  and  O_23 
REMARK    8  A    between atoms: C_25  and  O_26 
REMARK    9  A    between atoms: C_32  and  O_33 
REMARK   10  A    between atoms: C_35  and  O_36 
REMARK   11  A    between atoms: C_38  and  O_39 
REMARK   12  A    between atoms: C_41  and  C_42 
REMARK   13  A    between atoms: C_42  and  O_43 
ROOT
HETATM    1  C   UNK N   1      50.104  49.381  60.059  0.00  0.00     0.105 A 
HETATM    2  C   UNK N   1      48.907  49.921  60.545  0.00  0.00     0.102 A 
HETATM    3  C   UNK N   1      48.795  51.297  60.775  0.00  0.00     0.049 A 
HETATM    4  C   UNK N   1      49.866  52.162  60.491  0.00  0.00    -0.024 A 
HETATM    5  C   UNK N   1      51.052  51.621  59.957  0.00  0.00     0.013 A 
HETATM    6  C   UNK N   1      51.173  50.244  59.750  0.00  0.00     0.040 A 
ENDROOT
BRANCH   4   7
HETATM    7  C   UNK N   1      49.747  53.644  60.827  0.00  0.00     0.191 C 
HETATM    8  O   UNK N   1      51.013  54.310  60.683  0.00  0.00    -0.377 OA
HETATM    9  C   UNK N   1      50.914  55.180  59.548  0.00  0.00     0.179 C 
HETATM   10  C   UNK N   1      49.662  54.741  58.828  0.00  0.00     0.082 C 
HETATM   11  C   UNK N   1      48.783  54.470  59.959  0.00  0.00     0.117 C 
HETATM   12  C   UNK N   1      48.724  55.565  57.959  0.00  0.00     0.163 C 
HETATM   13  C   UNK N   1      47.579  53.984  59.171  0.00  0.00     0.210 C 
HETATM   14  O   UNK N   1      47.453  54.915  58.095  0.00  0.00    -0.378 OA
BRANCH  11  15
HETATM   15  O   UNK N   1      48.391  55.664  60.633  0.00  0.00    -0.384 OA
HETATM   16  H   UNK N   1      48.845  56.461  60.255  0.00  0.00     0.210 HD
ENDBRANCH  11  15
BRANCH  12  17
HETATM   17  C   UNK N   1      49.183  55.667  56.522  0.00  0.00    -0.026 A 
HETATM   18  C   UNK N   1      49.969  54.655  55.947  0.00  0.00     0.049 A 
HETATM   19  C   UNK N   1      50.382  54.740  54.603  0.00  0.00     0.101 A 
HETATM   20  C   UNK N   1      49.998  55.856  53.834  0.00  0.00     0.099 A 
HETATM   21  C   UNK N   1      49.214  56.864  54.410  0.00  0.00     0.040 A 
HETATM   22  C   UNK N   1      48.809  56.772  55.743  0.00  0.00     0.012 A 
BRANCH  19  23
HETATM   23  O   UNK N   1      51.144  53.768  54.028  0.00  0.00    -0.353 OA
HETATM   24  C   UNK N   1      52.523  53.709  54.078  0.00  0.00     0.210 C 
ENDBRANCH  19  23
BRANCH  20  25
HETATM   25  O   UNK N   1      50.369  55.974  52.543  0.00  0.00    -0.358 OA
HETATM   26  H   UNK N   1      50.178  55.290  51.885  0.00  0.00     0.218 HD
ENDBRANCH  20  25
ENDBRANCH  12  17
ENDBRANCH   4   7
BRANCH   2  27
HETATM   27  O   UNK N   1      47.871  49.102  60.828  0.00  0.00    -0.353 OA
HETATM   28  C   UNK N   1      46.652  49.608  61.224  0.00  0.00     0.210 C 
ENDBRANCH   2  27
BRANCH   1  29
HETATM   29  O   UNK N   1      50.202  48.031  59.940  0.00  0.00    -0.315 OA
BRANCH  29  30
HETATM   30  C   UNK N   1      50.337  47.346  58.747  0.00  0.00     0.298 C 
HETATM   31  O   UNK N   1      51.344  47.945  57.947  0.00  0.00    -0.348 OA
HETATM   32  C   UNK N   1      51.566  47.164  56.779  0.00  0.00     0.179 C 
HETATM   33  C   UNK N   1      50.300  47.161  55.881  0.00  0.00     0.180 C 
HETATM   34  C   UNK N   1      49.105  46.614  56.685  0.00  0.00     0.183 C 
HETATM   35  C   UNK N   1      48.987  47.386  58.009  0.00  0.00     0.205 C 
BRANCH  32  36
HETATM   36  C   UNK N   1      52.765  47.745  56.019  0.00  0.00     0.198 C 
BRANCH  36  37
HETATM   37  O   UNK N   1      53.339  46.750  55.219  0.00  0.00    -0.398 OA
HETATM   38  H   UNK N   1      52.583  46.280  54.781  0.00  0.00     0.209 HD
ENDBRANCH  36  37
ENDBRANCH  32  36
BRANCH  33  39
HETATM   39  O   UNK N   1      50.526  46.355  54.751  0.00  0.00    -0.390 OA
HETATM   40  H   UNK N   1      49.642  46.030  54.442  0.00  0.00     0.210 HD
ENDBRANCH  33  39
BRANCH  34  41
HETATM   41  O   UNK N   1      47.910  46.753  55.962  0.00  0.00    -0.390 OA
HETATM   42  H   UNK N   1      48.152  47.058  55.051  0.00  0.00     0.210 HD
ENDBRANCH  34  41
BRANCH  35  43
HETATM   43  O   UNK N   1      47.957  46.850  58.806  0.00  0.00    -0.388 OA
HETATM   44  H   UNK N   1      47.573  46.072  58.322  0.00  0.00     0.210 HD
ENDBRANCH  35  43
ENDBRANCH  29  30
ENDBRANCH   1  29
TORSDOF 13
ENDMDL
MODEL 9
REMARK VINA RESULT:      -6.0      5.238      7.981
REMARK  13 active torsions:
REMARK  status: ('A' for Active; 'I' for Inactive)
REMARK    1  A    between atoms: C_2  and  O_3 
REMARK    2  A    between atoms: O_3  and  C_4 
REMARK    3  A    between atoms: C_5  and  O_6 
REMARK    4  A    between atoms: C_9  and  C_10 
REMARK    5  A    between atoms: C_14  and  O_15 
REMARK    6  A    between atoms: C_19  and  C_20 
REMARK    7  A    between atoms: C_22  and  O_23 
REMARK    8  A    between atoms: C_25  and  O_26 
REMARK    9  A    between atoms: C_32  and  O_33 
REMARK   10  A    between atoms: C_35  and  O_36 
REMARK   11  A    between atoms: C_38  and  O_39 
REMARK   12  A    between atoms: C_41  and  C_42 
REMARK   13  A    between atoms: C_42  and  O_43 
ROOT
HETATM    1  C   UNK N   1      29.319  46.897  57.734  0.00  0.00     0.105 A 
HETATM    2  C   UNK N   1      28.606  45.787  58.202  0.00  0.00     0.102 A 
HETATM    3  C   UNK N   1      29.255  44.562  58.397  0.00  0.00     0.049 A 
HETATM    4  C   UNK N   1      30.635  44.435  58.163  0.00  0.00    -0.024 A 
HETATM    5  C   UNK N   1      31.358  45.567  57.738  0.00  0.00     0.013 A 
HETATM    6  C   UNK N   1      30.707  46.783  57.518  0.00  0.00     0.040 A 
ENDROOT
BRANCH   4   7
HETATM    7  C   UNK N   1      31.301  43.071  58.305  0.00  0.00     0.191 C 
HETATM    8  O   UNK N   1      32.549  43.029  57.595  0.00  0.00    -0.377 OA
HETATM    9  C   UNK N   1      33.598  42.968  58.571  0.00  0.00     0.179 C 
HETATM   10  C   UNK N   1      32.934  43.326  59.879  0.00  0.00     0.082 C 
HETATM   11  C   UNK N   1      31.662  42.629  59.734  0.00  0.00     0.117 C 
HETATM   12  C   UNK N   1      33.310  42.894  61.288  0.00  0.00     0.163 C 
HETATM   13  C   UNK N   1      31.032  43.076  61.042  0.00  0.00     0.210 C 
HETATM   14  O   UNK N   1      32.071  42.927  62.011  0.00  0.00    -0.378 OA
BRANCH  11  15
HETATM   15  O   UNK N   1      31.813  41.213  59.801  0.00  0.00    -0.384 OA
HETATM   16  H   UNK N   1      31.215  40.816  60.487  0.00  0.00     0.210 HD
ENDBRANCH  11  15
BRANCH  12  17
HETATM   17  C   UNK N   1      34.379  43.763  61.909  0.00  0.00    -0.026 A 
HETATM   18  C   UNK N   1      34.218  44.282  63.204  0.00  0.00     0.049 A 
HETATM   19  C   UNK N   1      35.222  45.077  63.791  0.00  0.00     0.101 A 
HETATM   20  C   UNK N   1      36.397  45.350  63.064  0.00  0.00     0.099 A 
HETATM   21  C   UNK N   1      36.555  44.831  61.773  0.00  0.00     0.040 A 
HETATM   22  C   UNK N   1      35.555  44.043  61.198  0.00  0.00     0.012 A 
BRANCH  19  23
HETATM   23  O   UNK N   1      35.084  45.589  65.046  0.00  0.00    -0.353 OA
HETATM   24  C   UNK N   1      34.330  46.700  65.370  0.00  0.00     0.210 C 
ENDBRANCH  19  23
BRANCH  20  25
HETATM   25  O   UNK N   1      37.384  46.103  63.591  0.00  0.00    -0.358 OA
HETATM   26  H   UNK N   1      38.210  45.719  63.919  0.00  0.00     0.218 HD
ENDBRANCH  20  25
ENDBRANCH  12  17
ENDBRANCH   4   7
BRANCH   2  27
HETATM   27  O   UNK N   1      27.278  45.892  58.427  0.00  0.00    -0.353 OA
HETATM   28  C   UNK N   1      26.747  45.645  59.674  0.00  0.00     0.210 C 
ENDBRANCH   2  27
BRANCH   1  29
HETATM   29  O   UNK N   1      28.634  48.040  57.467  0.00  0.00    -0.315 OA
BRANCH  29  30
HETATM   30  C   UNK N   1      28.263  48.982  58.407  0.00  0.00     0.298 C 
HETATM   31  O   UNK N   1      26.857  49.170  58.386  0.00  0.00    -0.348 OA
HETATM   32  C   UNK N   1      26.468  50.046  59.438  0.00  0.00     0.179 C 
HETATM   33  C   UNK N   1      27.057  51.462  59.209  0.00  0.00     0.180 C 
HETATM   34  C   UNK N   1      28.592  51.368  59.117  0.00  0.00     0.183 C 
HETATM   35  C   UNK N   1      28.975  50.306  58.075  0.00  0.00     0.205 C 
BRANCH  32  36
HETATM   36  C   UNK N   1      24.936  50.101  59.490  0.00  0.00     0.198 C 
BRANCH  36  37
HETATM   37  O   UNK N   1      24.479  51.175  58.717  0.00  0.00    -0.398 OA
HETATM   38  H   UNK N   1      23.772  51.618  59.253  0.00  0.00     0.209 HD
ENDBRANCH  36  37
ENDBRANCH  32  36
BRANCH  33  39
HETATM   39  O   UNK N   1      26.692  52.303  60.276  0.00  0.00    -0.390 OA
HETATM   40  H   UNK N   1      26.805  53.237  59.966  0.00  0.00     0.210 HD
ENDBRANCH  33  39
BRANCH  34  41
HETATM   41  O   UNK N   1      29.149  52.602  58.744  0.00  0.00    -0.390 OA
HETATM   42  H   UNK N   1      29.224  53.149  59.567  0.00  0.00     0.210 HD
ENDBRANCH  34  41
BRANCH  35  43
HETATM   43  O   UNK N   1      30.372  50.133  58.031  0.00  0.00    -0.388 OA
HETATM   44  H   UNK N   1      30.611  49.837  57.113  0.00  0.00     0.210 HD
ENDBRANCH  35  43
ENDBRANCH  29  30
ENDBRANCH   1  29
TORSDOF 13
ENDMDL
