MODEL 1
REMARK VINA RESULT:      -7.6      0.000      0.000
REMARK  10 active torsions:
REMARK  status: ('A' for Active; 'I' for Inactive)
REMARK    1  A    between atoms: O_1  and  C_2 
REMARK    2  A    between atoms: C_3  and  O_4 
REMARK    3  A    between atoms: C_8  and  C_10 
REMARK    4  A    between atoms: C_10  and  O_11 
REMARK    5  A    between atoms: C_10  and  C_13 
REMARK    6  A    between atoms: C_13  and  C_14 
REMARK    7  A    between atoms: C_13  and  C_17 
REMARK    8  A    between atoms: C_14  and  O_15 
REMARK    9  A    between atoms: C_19  and  O_20 
REMARK   10  A    between atoms: C_22  and  O_23 
ROOT
HETATM    1  C   UNK N   1      40.285  45.308  47.266  0.00  0.00     0.075 C 
ENDROOT
BRANCH   1   2
HETATM    2  C   UNK N   1      39.666  44.487  48.440  0.00  0.00     0.161 C 
BRANCH   2   3
HETATM    3  C   UNK N   1      40.422  44.678  49.742  0.00  0.00    -0.026 A 
HETATM    4  C   UNK N   1      41.376  45.697  49.857  0.00  0.00     0.012 A 
HETATM    5  C   UNK N   1      42.082  45.870  51.048  0.00  0.00     0.040 A 
HETATM    6  C   UNK N   1      41.846  45.029  52.143  0.00  0.00     0.099 A 
HETATM    7  C   UNK N   1      40.891  43.997  52.044  0.00  0.00     0.101 A 
HETATM    8  C   UNK N   1      40.186  43.828  50.836  0.00  0.00     0.049 A 
BRANCH   6   9
HETATM    9  O   UNK N   1      42.545  45.224  53.280  0.00  0.00    -0.358 OA
HETATM   10  H   UNK N   1      42.484  46.044  53.791  0.00  0.00     0.218 HD
ENDBRANCH   6   9
BRANCH   7  11
HETATM   11  O   UNK N   1      40.673  43.188  53.117  0.00  0.00    -0.353 OA
HETATM   12  C   UNK N   1      39.435  42.739  53.533  0.00  0.00     0.210 C 
ENDBRANCH   7  11
ENDBRANCH   2   3
BRANCH   2  13
HETATM   13  O   UNK N   1      38.307  44.803  48.619  0.00  0.00    -0.390 OA
HETATM   14  H   UNK N   1      38.129  45.642  48.118  0.00  0.00     0.210 HD
ENDBRANCH   2  13
ENDBRANCH   1   2
BRANCH   1  15
HETATM   15  C   UNK N   1      39.244  46.005  46.364  0.00  0.00     0.176 C 
BRANCH  15  16
HETATM   16  O   UNK N   1      38.981  47.301  46.829  0.00  0.00    -0.400 OA
HETATM   17  H   UNK N   1      39.497  47.413  47.669  0.00  0.00     0.209 HD
ENDBRANCH  15  16
ENDBRANCH   1  15
BRANCH   1  18
HETATM   18  C   UNK N   1      41.210  44.448  46.408  0.00  0.00    -0.046 A 
HETATM   19  C   UNK N   1      41.816  43.283  46.915  0.00  0.00     0.047 A 
HETATM   20  C   UNK N   1      42.669  42.503  46.104  0.00  0.00     0.101 A 
HETATM   21  C   UNK N   1      42.892  42.889  44.768  0.00  0.00     0.099 A 
HETATM   22  C   UNK N   1      42.279  44.039  44.263  0.00  0.00     0.040 A 
HETATM   23  C   UNK N   1      41.451  44.815  45.073  0.00  0.00     0.011 A 
BRANCH  20  24
HETATM   24  O   UNK N   1      43.286  41.386  46.579  0.00  0.00    -0.353 OA
HETATM   25  C   UNK N   1      42.713  40.132  46.657  0.00  0.00     0.210 C 
ENDBRANCH  20  24
BRANCH  21  26
HETATM   26  O   UNK N   1      43.691  42.165  43.956  0.00  0.00    -0.358 OA
HETATM   27  H   UNK N   1      44.589  42.446  43.727  0.00  0.00     0.218 HD
ENDBRANCH  21  26
ENDBRANCH   1  18
TORSDOF 10
ENDMDL
MODEL 2
REMARK VINA RESULT:      -6.6      2.884      7.041
REMARK  10 active torsions:
REMARK  status: ('A' for Active; 'I' for Inactive)
REMARK    1  A    between atoms: O_1  and  C_2 
REMARK    2  A    between atoms: C_3  and  O_4 
REMARK    3  A    between atoms: C_8  and  C_10 
REMARK    4  A    between atoms: C_10  and  O_11 
REMARK    5  A    between atoms: C_10  and  C_13 
REMARK    6  A    between atoms: C_13  and  C_14 
REMARK    7  A    between atoms: C_13  and  C_17 
REMARK    8  A    between atoms: C_14  and  O_15 
REMARK    9  A    between atoms: C_19  and  O_20 
REMARK   10  A    between atoms: C_22  and  O_23 
ROOT
HETATM    1  C   UNK N   1      41.082  45.796  46.700  0.00  0.00     0.075 C 
ENDROOT
BRANCH   1   2
HETATM    2  C   UNK N   1      39.711  46.513  46.493  0.00  0.00     0.161 C 
BRANCH   2   3
HETATM    3  C   UNK N   1      39.841  47.789  45.683  0.00  0.00    -0.026 A 
HETATM    4  C   UNK N   1      41.007  48.561  45.771  0.00  0.00     0.012 A 
HETATM    5  C   UNK N   1      41.128  49.741  45.036  0.00  0.00     0.040 A 
HETATM    6  C   UNK N   1      40.087  50.169  44.202  0.00  0.00     0.099 A 
HETATM    7  C   UNK N   1      38.906  49.405  44.104  0.00  0.00     0.101 A 
HETATM    8  C   UNK N   1      38.792  48.217  44.852  0.00  0.00     0.049 A 
BRANCH   6   9
HETATM    9  O   UNK N   1      40.236  51.314  43.505  0.00  0.00    -0.358 OA
HETATM   10  H   UNK N   1      39.653  52.077  43.631  0.00  0.00     0.218 HD
ENDBRANCH   6   9
BRANCH   7  11
HETATM   11  O   UNK N   1      37.903  49.835  43.288  0.00  0.00    -0.353 OA
HETATM   12  C   UNK N   1      37.143  49.022  42.470  0.00  0.00     0.210 C 
ENDBRANCH   7  11
ENDBRANCH   2   3
BRANCH   2  13
HETATM   13  O   UNK N   1      38.774  45.652  45.894  0.00  0.00    -0.390 OA
HETATM   14  H   UNK N   1      38.153  45.348  46.607  0.00  0.00     0.210 HD
ENDBRANCH   2  13
ENDBRANCH   1   2
BRANCH   1  15
HETATM   15  C   UNK N   1      41.170  44.399  46.048  0.00  0.00     0.176 C 
BRANCH  15  16
HETATM   16  O   UNK N   1      41.190  44.511  44.651  0.00  0.00    -0.400 OA
HETATM   17  H   UNK N   1      40.243  44.531  44.352  0.00  0.00     0.209 HD
ENDBRANCH  15  16
ENDBRANCH   1  15
BRANCH   1  18
HETATM   18  C   UNK N   1      41.442  45.692  48.180  0.00  0.00    -0.046 A 
HETATM   19  C   UNK N   1      41.081  44.572  48.952  0.00  0.00     0.047 A 
HETATM   20  C   UNK N   1      41.424  44.497  50.319  0.00  0.00     0.101 A 
HETATM   21  C   UNK N   1      42.156  45.549  50.904  0.00  0.00     0.099 A 
HETATM   22  C   UNK N   1      42.524  46.655  50.133  0.00  0.00     0.040 A 
HETATM   23  C   UNK N   1      42.168  46.731  48.787  0.00  0.00     0.011 A 
BRANCH  20  24
HETATM   24  O   UNK N   1      41.064  43.435  51.091  0.00  0.00    -0.353 OA
HETATM   25  C   UNK N   1      40.046  43.439  52.025  0.00  0.00     0.210 C 
ENDBRANCH  20  24
BRANCH  21  26
HETATM   26  O   UNK N   1      42.513  45.511  52.205  0.00  0.00    -0.358 OA
HETATM   27  H   UNK N   1      42.215  46.175  52.844  0.00  0.00     0.218 HD
ENDBRANCH  21  26
ENDBRANCH   1  18
TORSDOF 10
ENDMDL
MODEL 3
REMARK VINA RESULT:      -6.5      2.517      4.383
REMARK  10 active torsions:
REMARK  status: ('A' for Active; 'I' for Inactive)
REMARK    1  A    between atoms: O_1  and  C_2 
REMARK    2  A    between atoms: C_3  and  O_4 
REMARK    3  A    between atoms: C_8  and  C_10 
REMARK    4  A    between atoms: C_10  and  O_11 
REMARK    5  A    between atoms: C_10  and  C_13 
REMARK    6  A    between atoms: C_13  and  C_14 
REMARK    7  A    between atoms: C_13  and  C_17 
REMARK    8  A    between atoms: C_14  and  O_15 
REMARK    9  A    between atoms: C_19  and  O_20 
REMARK   10  A    between atoms: C_22  and  O_23 
ROOT
HETATM    1  C   UNK N   1      39.999  45.676  47.905  0.00  0.00     0.075 C 
ENDROOT
BRANCH   1   2
HETATM    2  C   UNK N   1      41.241  44.844  48.353  0.00  0.00     0.161 C 
BRANCH   2   3
HETATM    3  C   UNK N   1      41.425  44.842  49.859  0.00  0.00    -0.026 A 
HETATM    4  C   UNK N   1      42.125  45.883  50.483  0.00  0.00     0.012 A 
HETATM    5  C   UNK N   1      42.306  45.880  51.866  0.00  0.00     0.040 A 
HETATM    6  C   UNK N   1      41.792  44.838  52.648  0.00  0.00     0.099 A 
HETATM    7  C   UNK N   1      41.088  43.781  52.037  0.00  0.00     0.101 A 
HETATM    8  C   UNK N   1      40.912  43.791  50.640  0.00  0.00     0.049 A 
BRANCH   6   9
HETATM    9  O   UNK N   1      41.984  44.866  53.983  0.00  0.00    -0.358 OA
HETATM   10  H   UNK N   1      41.363  44.460  54.605  0.00  0.00     0.218 HD
ENDBRANCH   6   9
BRANCH   7  11
HETATM   11  O   UNK N   1      40.594  42.775  52.812  0.00  0.00    -0.353 OA
HETATM   12  C   UNK N   1      39.301  42.708  53.294  0.00  0.00     0.210 C 
ENDBRANCH   7  11
ENDBRANCH   2   3
BRANCH   2  13
HETATM   13  O   UNK N   1      41.168  43.524  47.872  0.00  0.00    -0.390 OA
HETATM   14  H   UNK N   1      42.024  43.076  48.103  0.00  0.00     0.210 HD
ENDBRANCH   2  13
ENDBRANCH   1   2
BRANCH   1  15
HETATM   15  C   UNK N   1      38.892  44.843  47.225  0.00  0.00     0.176 C 
BRANCH  15  16
HETATM   16  O   UNK N   1      38.110  44.188  48.187  0.00  0.00    -0.400 OA
HETATM   17  H   UNK N   1      37.219  44.626  48.177  0.00  0.00     0.209 HD
ENDBRANCH  15  16
ENDBRANCH   1  15
BRANCH   1  18
HETATM   18  C   UNK N   1      40.399  46.834  46.995  0.00  0.00    -0.046 A 
HETATM   19  C   UNK N   1      39.438  47.611  46.321  0.00  0.00     0.047 A 
HETATM   20  C   UNK N   1      39.831  48.677  45.483  0.00  0.00     0.101 A 
HETATM   21  C   UNK N   1      41.201  48.975  45.344  0.00  0.00     0.099 A 
HETATM   22  C   UNK N   1      42.152  48.210  46.024  0.00  0.00     0.040 A 
HETATM   23  C   UNK N   1      41.760  47.148  46.837  0.00  0.00     0.011 A 
BRANCH  20  24
HETATM   24  O   UNK N   1      38.921  49.426  44.801  0.00  0.00    -0.353 OA
HETATM   25  C   UNK N   1      38.359  49.084  43.587  0.00  0.00     0.210 C 
ENDBRANCH  20  24
BRANCH  21  26
HETATM   26  O   UNK N   1      41.618  49.993  44.561  0.00  0.00    -0.358 OA
HETATM   27  H   UNK N   1      42.505  50.371  44.632  0.00  0.00     0.218 HD
ENDBRANCH  21  26
ENDBRANCH   1  18
TORSDOF 10
ENDMDL
MODEL 4
REMARK VINA RESULT:      -6.5      2.106      6.590
REMARK  10 active torsions:
REMARK  status: ('A' for Active; 'I' for Inactive)
REMARK    1  A    between atoms: O_1  and  C_2 
REMARK    2  A    between atoms: C_3  and  O_4 
REMARK    3  A    between atoms: C_8  and  C_10 
REMARK    4  A    between atoms: C_10  and  O_11 
REMARK    5  A    between atoms: C_10  and  C_13 
REMARK    6  A    between atoms: C_13  and  C_14 
REMARK    7  A    between atoms: C_13  and  C_17 
REMARK    8  A    between atoms: C_14  and  O_15 
REMARK    9  A    between atoms: C_19  and  O_20 
REMARK   10  A    between atoms: C_22  and  O_23 
ROOT
HETATM    1  C   UNK N   1      41.441  44.422  48.280  0.00  0.00     0.075 C 
ENDROOT
BRANCH   1   2
HETATM    2  C   UNK N   1      40.082  44.966  47.737  0.00  0.00     0.161 C 
BRANCH   2   3
HETATM    3  C   UNK N   1      40.248  46.240  46.929  0.00  0.00    -0.026 A 
HETATM    4  C   UNK N   1      39.131  46.852  46.345  0.00  0.00     0.012 A 
HETATM    5  C   UNK N   1      39.280  48.016  45.592  0.00  0.00     0.040 A 
HETATM    6  C   UNK N   1      40.545  48.588  45.409  0.00  0.00     0.099 A 
HETATM    7  C   UNK N   1      41.680  47.984  45.987  0.00  0.00     0.101 A 
HETATM    8  C   UNK N   1      41.521  46.807  46.743  0.00  0.00     0.049 A 
BRANCH   6   9
HETATM    9  O   UNK N   1      40.654  49.715  44.676  0.00  0.00    -0.358 OA
HETATM   10  H   UNK N   1      41.066  50.520  45.021  0.00  0.00     0.218 HD
ENDBRANCH   6   9
BRANCH   7  11
HETATM   11  O   UNK N   1      42.904  48.553  45.800  0.00  0.00    -0.353 OA
HETATM   12  C   UNK N   1      43.842  48.758  46.792  0.00  0.00     0.210 C 
ENDBRANCH   7  11
ENDBRANCH   2   3
BRANCH   2  13
HETATM   13  O   UNK N   1      39.413  43.992  46.974  0.00  0.00    -0.390 OA
HETATM   14  H   UNK N   1      38.438  44.152  47.076  0.00  0.00     0.210 HD
ENDBRANCH   2  13
ENDBRANCH   1   2
BRANCH   1  15
HETATM   15  C   UNK N   1      41.742  42.962  47.879  0.00  0.00     0.176 C 
BRANCH  15  16
HETATM   16  O   UNK N   1      42.404  42.919  46.644  0.00  0.00    -0.400 OA
HETATM   17  H   UNK N   1      41.748  43.209  45.957  0.00  0.00     0.209 HD
ENDBRANCH  15  16
ENDBRANCH   1  15
BRANCH   1  18
HETATM   18  C   UNK N   1      41.537  44.566  49.796  0.00  0.00    -0.046 A 
HETATM   19  C   UNK N   1      41.047  43.572  50.665  0.00  0.00     0.047 A 
HETATM   20  C   UNK N   1      41.146  43.726  52.064  0.00  0.00     0.101 A 
HETATM   21  C   UNK N   1      41.763  44.878  52.589  0.00  0.00     0.099 A 
HETATM   22  C   UNK N   1      42.259  45.858  51.724  0.00  0.00     0.040 A 
HETATM   23  C   UNK N   1      42.144  45.709  50.343  0.00  0.00     0.011 A 
BRANCH  20  24
HETATM   24  O   UNK N   1      40.658  42.790  52.925  0.00  0.00    -0.353 OA
HETATM   25  C   UNK N   1      39.360  42.742  53.394  0.00  0.00     0.210 C 
ENDBRANCH  20  24
BRANCH  21  26
HETATM   26  O   UNK N   1      41.887  45.059  53.921  0.00  0.00    -0.358 OA
HETATM   27  H   UNK N   1      42.073  44.329  54.528  0.00  0.00     0.218 HD
ENDBRANCH  21  26
ENDBRANCH   1  18
TORSDOF 10
ENDMDL
MODEL 5
REMARK VINA RESULT:      -6.4      2.438      4.067
REMARK  10 active torsions:
REMARK  status: ('A' for Active; 'I' for Inactive)
REMARK    1  A    between atoms: O_1  and  C_2 
REMARK    2  A    between atoms: C_3  and  O_4 
REMARK    3  A    between atoms: C_8  and  C_10 
REMARK    4  A    between atoms: C_10  and  O_11 
REMARK    5  A    between atoms: C_10  and  C_13 
REMARK    6  A    between atoms: C_13  and  C_14 
REMARK    7  A    between atoms: C_13  and  C_17 
REMARK    8  A    between atoms: C_14  and  O_15 
REMARK    9  A    between atoms: C_19  and  O_20 
REMARK   10  A    between atoms: C_22  and  O_23 
ROOT
HETATM    1  C   UNK N   1      40.189  45.144  47.495  0.00  0.00     0.075 C 
ENDROOT
BRANCH   1   2
HETATM    2  C   UNK N   1      41.545  44.617  48.059  0.00  0.00     0.161 C 
BRANCH   2   3
HETATM    3  C   UNK N   1      41.634  44.745  49.568  0.00  0.00    -0.026 A 
HETATM    4  C   UNK N   1      42.237  45.873  50.143  0.00  0.00     0.012 A 
HETATM    5  C   UNK N   1      42.331  45.991  51.529  0.00  0.00     0.040 A 
HETATM    6  C   UNK N   1      41.826  44.986  52.364  0.00  0.00     0.099 A 
HETATM    7  C   UNK N   1      41.220  43.844  51.803  0.00  0.00     0.101 A 
HETATM    8  C   UNK N   1      41.132  43.732  50.402  0.00  0.00     0.049 A 
BRANCH   6   9
HETATM    9  O   UNK N   1      41.933  45.132  53.701  0.00  0.00    -0.358 OA
HETATM   10  H   UNK N   1      41.551  44.496  54.324  0.00  0.00     0.218 HD
ENDBRANCH   6   9
BRANCH   7  11
HETATM   11  O   UNK N   1      40.734  42.876  52.629  0.00  0.00    -0.353 OA
HETATM   12  C   UNK N   1      39.514  42.924  53.275  0.00  0.00     0.210 C 
ENDBRANCH   7  11
ENDBRANCH   2   3
BRANCH   2  13
HETATM   13  O   UNK N   1      41.772  43.284  47.672  0.00  0.00    -0.390 OA
HETATM   14  H   UNK N   1      41.514  42.705  48.437  0.00  0.00     0.210 HD
ENDBRANCH   2  13
ENDBRANCH   1   2
BRANCH   1  15
HETATM   15  C   UNK N   1      39.434  44.128  46.611  0.00  0.00     0.176 C 
BRANCH  15  16
HETATM   16  O   UNK N   1      40.105  43.942  45.394  0.00  0.00    -0.400 OA
HETATM   17  H   UNK N   1      40.238  44.844  45.001  0.00  0.00     0.209 HD
ENDBRANCH  15  16
ENDBRANCH   1  15
BRANCH   1  18
HETATM   18  C   UNK N   1      40.371  46.451  46.728  0.00  0.00    -0.046 A 
HETATM   19  C   UNK N   1      41.637  47.046  46.571  0.00  0.00     0.047 A 
HETATM   20  C   UNK N   1      41.782  48.255  45.858  0.00  0.00     0.101 A 
HETATM   21  C   UNK N   1      40.647  48.856  45.281  0.00  0.00     0.099 A 
HETATM   22  C   UNK N   1      39.392  48.258  45.428  0.00  0.00     0.040 A 
HETATM   23  C   UNK N   1      39.252  47.072  46.148  0.00  0.00     0.011 A 
BRANCH  20  24
HETATM   24  O   UNK N   1      42.994  48.862  45.714  0.00  0.00    -0.353 OA
HETATM   25  C   UNK N   1      43.988  48.890  46.672  0.00  0.00     0.210 C 
ENDBRANCH  20  24
BRANCH  21  26
HETATM   26  O   UNK N   1      40.744  50.007  44.583  0.00  0.00    -0.358 OA
HETATM   27  H   UNK N   1      41.122  50.813  44.962  0.00  0.00     0.218 HD
ENDBRANCH  21  26
ENDBRANCH   1  18
TORSDOF 10
ENDMDL
MODEL 6
REMARK VINA RESULT:      -6.1      3.497      5.751
REMARK  10 active torsions:
REMARK  status: ('A' for Active; 'I' for Inactive)
REMARK    1  A    between atoms: O_1  and  C_2 
REMARK    2  A    between atoms: C_3  and  O_4 
REMARK    3  A    between atoms: C_8  and  C_10 
REMARK    4  A    between atoms: C_10  and  O_11 
REMARK    5  A    between atoms: C_10  and  C_13 
REMARK    6  A    between atoms: C_13  and  C_14 
REMARK    7  A    between atoms: C_13  and  C_17 
REMARK    8  A    between atoms: C_14  and  O_15 
REMARK    9  A    between atoms: C_19  and  O_20 
REMARK   10  A    between atoms: C_22  and  O_23 
ROOT
HETATM    1  C   UNK N   1      39.912  48.175  46.434  0.00  0.00     0.075 C 
ENDROOT
BRANCH   1   2
HETATM    2  C   UNK N   1      41.353  47.576  46.467  0.00  0.00     0.161 C 
BRANCH   2   3
HETATM    3  C   UNK N   1      41.709  46.992  47.821  0.00  0.00    -0.026 A 
HETATM    4  C   UNK N   1      42.384  47.775  48.768  0.00  0.00     0.012 A 
HETATM    5  C   UNK N   1      42.722  47.240  50.011  0.00  0.00     0.040 A 
HETATM    6  C   UNK N   1      42.392  45.916  50.329  0.00  0.00     0.099 A 
HETATM    7  C   UNK N   1      41.716  45.114  49.388  0.00  0.00     0.101 A 
HETATM    8  C   UNK N   1      41.381  45.662  48.134  0.00  0.00     0.049 A 
BRANCH   6   9
HETATM    9  O   UNK N   1      42.734  45.430  51.540  0.00  0.00    -0.358 OA
HETATM   10  H   UNK N   1      43.655  45.363  51.831  0.00  0.00     0.218 HD
ENDBRANCH   6   9
BRANCH   7  11
HETATM   11  O   UNK N   1      41.402  43.829  49.712  0.00  0.00    -0.353 OA
HETATM   12  C   UNK N   1      40.145  43.388  50.078  0.00  0.00     0.210 C 
ENDBRANCH   7  11
ENDBRANCH   2   3
BRANCH   2  13
HETATM   13  O   UNK N   1      41.522  46.605  45.462  0.00  0.00    -0.390 OA
HETATM   14  H   UNK N   1      40.620  46.377  45.116  0.00  0.00     0.210 HD
ENDBRANCH   2  13
ENDBRANCH   1   2
BRANCH   1  15
HETATM   15  C   UNK N   1      38.792  47.140  46.672  0.00  0.00     0.176 C 
BRANCH  15  16
HETATM   16  O   UNK N   1      38.878  46.100  45.736  0.00  0.00    -0.400 OA
HETATM   17  H   UNK N   1      38.660  45.262  46.219  0.00  0.00     0.209 HD
ENDBRANCH  15  16
ENDBRANCH   1  15
BRANCH   1  18
HETATM   18  C   UNK N   1      39.647  48.925  45.132  0.00  0.00    -0.046 A 
HETATM   19  C   UNK N   1      38.566  48.592  44.294  0.00  0.00     0.047 A 
HETATM   20  C   UNK N   1      38.340  49.299  43.094  0.00  0.00     0.101 A 
HETATM   21  C   UNK N   1      39.195  50.364  42.749  0.00  0.00     0.099 A 
HETATM   22  C   UNK N   1      40.260  50.701  43.589  0.00  0.00     0.040 A 
HETATM   23  C   UNK N   1      40.489  49.989  44.765  0.00  0.00     0.011 A 
BRANCH  20  24
HETATM   24  O   UNK N   1      37.316  48.978  42.255  0.00  0.00    -0.353 OA
HETATM   25  C   UNK N   1      36.341  48.035  42.514  0.00  0.00     0.210 C 
ENDBRANCH  20  24
BRANCH  21  26
HETATM   26  O   UNK N   1      39.007  51.072  41.616  0.00  0.00    -0.358 OA
HETATM   27  H   UNK N   1      39.739  51.479  41.131  0.00  0.00     0.218 HD
ENDBRANCH  21  26
ENDBRANCH   1  18
TORSDOF 10
ENDMDL
MODEL 7
REMARK VINA RESULT:      -6.0      2.924      7.222
REMARK  10 active torsions:
REMARK  status: ('A' for Active; 'I' for Inactive)
REMARK    1  A    between atoms: O_1  and  C_2 
REMARK    2  A    between atoms: C_3  and  O_4 
REMARK    3  A    between atoms: C_8  and  C_10 
REMARK    4  A    between atoms: C_10  and  O_11 
REMARK    5  A    between atoms: C_10  and  C_13 
REMARK    6  A    between atoms: C_13  and  C_14 
REMARK    7  A    between atoms: C_13  and  C_17 
REMARK    8  A    between atoms: C_14  and  O_15 
REMARK    9  A    between atoms: C_19  and  O_20 
REMARK   10  A    between atoms: C_22  and  O_23 
ROOT
HETATM    1  C   UNK N   1      40.892  46.008  46.945  0.00  0.00     0.075 C 
ENDROOT
BRANCH   1   2
HETATM    2  C   UNK N   1      39.534  46.647  46.516  0.00  0.00     0.161 C 
BRANCH   2   3
HETATM    3  C   UNK N   1      39.721  47.913  45.702  0.00  0.00    -0.026 A 
HETATM    4  C   UNK N   1      40.915  48.641  45.800  0.00  0.00     0.012 A 
HETATM    5  C   UNK N   1      41.088  49.812  45.062  0.00  0.00     0.040 A 
HETATM    6  C   UNK N   1      40.073  50.276  44.215  0.00  0.00     0.099 A 
HETATM    7  C   UNK N   1      38.865  49.557  44.106  0.00  0.00     0.101 A 
HETATM    8  C   UNK N   1      38.698  48.378  44.857  0.00  0.00     0.049 A 
BRANCH   6   9
HETATM    9  O   UNK N   1      40.273  51.411  43.515  0.00  0.00    -0.358 OA
HETATM   10  H   UNK N   1      40.624  51.409  42.613  0.00  0.00     0.218 HD
ENDBRANCH   6   9
BRANCH   7  11
HETATM   11  O   UNK N   1      37.888  50.021  43.278  0.00  0.00    -0.353 OA
HETATM   12  C   UNK N   1      37.462  49.391  42.125  0.00  0.00     0.210 C 
ENDBRANCH   7  11
ENDBRANCH   2   3
BRANCH   2  13
HETATM   13  O   UNK N   1      38.743  45.726  45.804  0.00  0.00    -0.390 OA
HETATM   14  H   UNK N   1      38.049  45.387  46.428  0.00  0.00     0.210 HD
ENDBRANCH   2  13
ENDBRANCH   1   2
BRANCH   1  15
HETATM   15  C   UNK N   1      41.448  44.973  45.944  0.00  0.00     0.176 C 
BRANCH  15  16
HETATM   16  O   UNK N   1      41.633  45.560  44.684  0.00  0.00    -0.400 OA
HETATM   17  H   UNK N   1      42.155  46.392  44.830  0.00  0.00     0.209 HD
ENDBRANCH  15  16
ENDBRANCH   1  15
BRANCH   1  18
HETATM   18  C   UNK N   1      40.800  45.378  48.332  0.00  0.00    -0.046 A 
HETATM   19  C   UNK N   1      41.672  45.752  49.373  0.00  0.00     0.047 A 
HETATM   20  C   UNK N   1      41.569  45.155  50.648  0.00  0.00     0.101 A 
HETATM   21  C   UNK N   1      40.567  44.194  50.881  0.00  0.00     0.099 A 
HETATM   22  C   UNK N   1      39.695  43.834  49.850  0.00  0.00     0.040 A 
HETATM   23  C   UNK N   1      39.811  44.413  48.588  0.00  0.00     0.011 A 
BRANCH  20  24
HETATM   24  O   UNK N   1      42.417  45.482  51.663  0.00  0.00    -0.353 OA
HETATM   25  C   UNK N   1      42.042  45.705  52.973  0.00  0.00     0.210 C 
ENDBRANCH  20  24
BRANCH  21  26
HETATM   26  O   UNK N   1      40.428  43.608  52.089  0.00  0.00    -0.358 OA
HETATM   27  H   UNK N   1      40.094  42.706  52.193  0.00  0.00     0.218 HD
ENDBRANCH  21  26
ENDBRANCH   1  18
TORSDOF 10
ENDMDL
MODEL 8
REMARK VINA RESULT:      -5.6     12.300     16.018
REMARK  10 active torsions:
REMARK  status: ('A' for Active; 'I' for Inactive)
REMARK    1  A    between atoms: O_1  and  C_2 
REMARK    2  A    between atoms: C_3  and  O_4 
REMARK    3  A    between atoms: C_8  and  C_10 
REMARK    4  A    between atoms: C_10  and  O_11 
REMARK    5  A    between atoms: C_10  and  C_13 
REMARK    6  A    between atoms: C_13  and  C_14 
REMARK    7  A    between atoms: C_13  and  C_17 
REMARK    8  A    between atoms: C_14  and  O_15 
REMARK    9  A    between atoms: C_19  and  O_20 
REMARK   10  A    between atoms: C_22  and  O_23 
ROOT
HETATM    1  C   UNK N   1      31.252  53.724  43.814  0.00  0.00     0.075 C 
ENDROOT
BRANCH   1   2
HETATM    2  C   UNK N   1      30.990  54.407  42.435  0.00  0.00     0.161 C 
BRANCH   2   3
HETATM    3  C   UNK N   1      29.529  54.351  42.029  0.00  0.00    -0.026 A 
HETATM    4  C   UNK N   1      29.124  53.515  40.980  0.00  0.00     0.012 A 
HETATM    5  C   UNK N   1      27.784  53.468  40.595  0.00  0.00     0.040 A 
HETATM    6  C   UNK N   1      26.828  54.254  41.251  0.00  0.00     0.099 A 
HETATM    7  C   UNK N   1      27.218  55.102  42.306  0.00  0.00     0.101 A 
HETATM    8  C   UNK N   1      28.574  55.145  42.686  0.00  0.00     0.049 A 
BRANCH   6   9
HETATM    9  O   UNK N   1      25.540  54.184  40.854  0.00  0.00    -0.358 OA
HETATM   10  H   UNK N   1      25.050  53.349  40.830  0.00  0.00     0.218 HD
ENDBRANCH   6   9
BRANCH   7  11
HETATM   11  O   UNK N   1      26.276  55.860  42.934  0.00  0.00    -0.353 OA
HETATM   12  C   UNK N   1      25.994  57.179  42.639  0.00  0.00     0.210 C 
ENDBRANCH   7  11
ENDBRANCH   2   3
BRANCH   2  13
HETATM   13  O   UNK N   1      31.442  55.739  42.435  0.00  0.00    -0.390 OA
HETATM   14  H   UNK N   1      32.373  55.737  42.779  0.00  0.00     0.210 HD
ENDBRANCH   2  13
ENDBRANCH   1   2
BRANCH   1  15
HETATM   15  C   UNK N   1      31.877  54.657  44.873  0.00  0.00     0.176 C 
BRANCH  15  16
HETATM   16  O   UNK N   1      31.173  54.567  46.083  0.00  0.00    -0.400 OA
HETATM   17  H   UNK N   1      30.919  53.614  46.194  0.00  0.00     0.209 HD
ENDBRANCH  15  16
ENDBRANCH   1  15
BRANCH   1  18
HETATM   18  C   UNK N   1      32.113  52.473  43.664  0.00  0.00    -0.046 A 
HETATM   19  C   UNK N   1      31.667  51.350  42.942  0.00  0.00     0.047 A 
HETATM   20  C   UNK N   1      32.480  50.203  42.817  0.00  0.00     0.101 A 
HETATM   21  C   UNK N   1      33.760  50.198  43.404  0.00  0.00     0.099 A 
HETATM   22  C   UNK N   1      34.206  51.319  44.111  0.00  0.00     0.040 A 
HETATM   23  C   UNK N   1      33.392  52.443  44.246  0.00  0.00     0.011 A 
BRANCH  20  24
HETATM   24  O   UNK N   1      32.060  49.096  42.144  0.00  0.00    -0.353 OA
HETATM   25  C   UNK N   1      31.040  49.070  41.213  0.00  0.00     0.210 C 
ENDBRANCH  20  24
BRANCH  21  26
HETATM   26  O   UNK N   1      34.573  49.126  43.299  0.00  0.00    -0.358 OA
HETATM   27  H   UNK N   1      35.166  48.853  44.013  0.00  0.00     0.218 HD
ENDBRANCH  21  26
ENDBRANCH   1  18
TORSDOF 10
ENDMDL
MODEL 9
REMARK VINA RESULT:      -5.5      1.236      5.776
REMARK  10 active torsions:
REMARK  status: ('A' for Active; 'I' for Inactive)
REMARK    1  A    between atoms: O_1  and  C_2 
REMARK    2  A    between atoms: C_3  and  O_4 
REMARK    3  A    between atoms: C_8  and  C_10 
REMARK    4  A    between atoms: C_10  and  O_11 
REMARK    5  A    between atoms: C_10  and  C_13 
REMARK    6  A    between atoms: C_13  and  C_14 
REMARK    7  A    between atoms: C_13  and  C_17 
REMARK    8  A    between atoms: C_14  and  O_15 
REMARK    9  A    between atoms: C_19  and  O_20 
REMARK   10  A    between atoms: C_22  and  O_23 
ROOT
HETATM    1  C   UNK N   1      40.299  46.526  47.045  0.00  0.00     0.075 C 
ENDROOT
BRANCH   1   2
HETATM    2  C   UNK N   1      39.849  45.227  46.307  0.00  0.00     0.161 C 
BRANCH   2   3
HETATM    3  C   UNK N   1      41.022  44.428  45.770  0.00  0.00    -0.026 A 
HETATM    4  C   UNK N   1      41.568  44.738  44.517  0.00  0.00     0.012 A 
HETATM    5  C   UNK N   1      42.640  44.000  44.014  0.00  0.00     0.040 A 
HETATM    6  C   UNK N   1      43.183  42.942  44.753  0.00  0.00     0.099 A 
HETATM    7  C   UNK N   1      42.645  42.615  46.015  0.00  0.00     0.101 A 
HETATM    8  C   UNK N   1      41.561  43.364  46.513  0.00  0.00     0.049 A 
BRANCH   6   9
HETATM    9  O   UNK N   1      44.220  42.249  44.238  0.00  0.00    -0.358 OA
HETATM   10  H   UNK N   1      44.805  42.619  43.561  0.00  0.00     0.218 HD
ENDBRANCH   6   9
BRANCH   7  11
HETATM   11  O   UNK N   1      43.185  41.583  46.721  0.00  0.00    -0.353 OA
HETATM   12  C   UNK N   1      42.808  40.260  46.607  0.00  0.00     0.210 C 
ENDBRANCH   7  11
ENDBRANCH   2   3
BRANCH   2  13
HETATM   13  O   UNK N   1      39.054  44.419  47.140  0.00  0.00    -0.390 OA
HETATM   14  H   UNK N   1      39.421  43.497  47.096  0.00  0.00     0.210 HD
ENDBRANCH   2  13
ENDBRANCH   1   2
BRANCH   1  15
HETATM   15  C   UNK N   1      41.287  47.399  46.242  0.00  0.00     0.176 C 
BRANCH  15  16
HETATM   16  O   UNK N   1      40.614  48.088  45.222  0.00  0.00    -0.400 OA
HETATM   17  H   UNK N   1      39.993  47.439  44.800  0.00  0.00     0.209 HD
ENDBRANCH  15  16
ENDBRANCH   1  15
BRANCH   1  18
HETATM   18  C   UNK N   1      40.893  46.214  48.416  0.00  0.00    -0.046 A 
HETATM   19  C   UNK N   1      40.218  45.400  49.346  0.00  0.00     0.047 A 
HETATM   20  C   UNK N   1      40.786  45.125  50.608  0.00  0.00     0.101 A 
HETATM   21  C   UNK N   1      42.052  45.654  50.925  0.00  0.00     0.099 A 
HETATM   22  C   UNK N   1      42.725  46.452  49.996  0.00  0.00     0.040 A 
HETATM   23  C   UNK N   1      42.153  46.735  48.757  0.00  0.00     0.011 A 
BRANCH  20  24
HETATM   24  O   UNK N   1      40.140  44.361  51.533  0.00  0.00    -0.353 OA
HETATM   25  C   UNK N   1      40.378  43.021  51.765  0.00  0.00     0.210 C 
ENDBRANCH  20  24
BRANCH  21  26
HETATM   26  O   UNK N   1      42.634  45.406  52.117  0.00  0.00    -0.358 OA
HETATM   27  H   UNK N   1      42.158  45.493  52.955  0.00  0.00     0.218 HD
ENDBRANCH  21  26
ENDBRANCH   1  18
TORSDOF 10
ENDMDL
