MODEL 1
REMARK VINA RESULT:      -7.4      0.000      0.000
REMARK  6 active torsions:
REMARK  status: ('A' for Active; 'I' for Inactive)
REMARK    1  A    between atoms: C_4  and  O_5 
REMARK    2  A    between atoms: C_8  and  O_10 
REMARK    3  A    between atoms: C_13  and  O_14 
REMARK    4  A    between atoms: C_16  and  C_17 
REMARK    5  A    between atoms: C_19  and  O_20 
REMARK    6  A    between atoms: C_22  and  O_23 
ROOT
HETATM    1  O   UNK N   1      42.137  43.514  48.209  0.00  0.00    -0.338 OA
HETATM    2  C   UNK N   1      42.383  43.364  46.881  0.00  0.00     0.081 A 
HETATM    3  C   UNK N   1      41.865  44.286  45.944  0.00  0.00     0.011 A 
HETATM    4  C   UNK N   1      42.158  44.136  44.579  0.00  0.00     0.077 A 
HETATM    5  C   UNK N   1      42.950  43.060  44.153  0.00  0.00     0.073 A 
HETATM    6  C   UNK N   1      43.454  42.141  45.078  0.00  0.00     0.071 A 
HETATM    7  C   UNK N   1      43.167  42.293  46.443  0.00  0.00     0.074 A 
HETATM    8  C   UNK N   1      41.021  45.443  46.413  0.00  0.00     0.079 C 
HETATM    9  C   UNK N   1      40.520  45.235  47.846  0.00  0.00     0.156 C 
HETATM   10  C   UNK N   1      41.648  44.692  48.756  0.00  0.00     0.191 C 
ENDROOT
BRANCH  10  11
HETATM   11  C   UNK N   1      41.232  44.427  50.196  0.00  0.00    -0.024 A 
HETATM   12  C   UNK N   1      41.801  45.123  51.285  0.00  0.00     0.049 A 
HETATM   13  C   UNK N   1      41.411  44.848  52.595  0.00  0.00     0.099 A 
HETATM   14  C   UNK N   1      40.432  43.872  52.841  0.00  0.00     0.098 A 
HETATM   15  C   UNK N   1      39.852  43.182  51.767  0.00  0.00     0.040 A 
HETATM   16  C   UNK N   1      40.248  43.457  50.454  0.00  0.00     0.013 A 
BRANCH  13  17
HETATM   17  O   UNK N   1      41.990  45.532  53.602  0.00  0.00    -0.358 OA
HETATM   18  H   UNK N   1      41.701  46.417  53.863  0.00  0.00     0.218 HD
ENDBRANCH  13  17
BRANCH  14  19
HETATM   19  O   UNK N   1      40.057  43.603  54.110  0.00  0.00    -0.358 OA
HETATM   20  H   UNK N   1      39.126  43.530  54.361  0.00  0.00     0.218 HD
ENDBRANCH  14  19
ENDBRANCH  10  11
BRANCH   9  21
HETATM   21  O   UNK N   1      39.964  46.433  48.330  0.00  0.00    -0.392 OA
HETATM   22  H   UNK N   1      39.683  46.274  49.269  0.00  0.00     0.210 HD
ENDBRANCH   9  21
BRANCH   4  23
HETATM   23  O   UNK N   1      41.669  45.020  43.684  0.00  0.00    -0.360 OA
HETATM   24  H   UNK N   1      41.871  45.964  43.734  0.00  0.00     0.217 HD
ENDBRANCH   4  23
BRANCH   6  25
HETATM   25  O   UNK N   1      44.219  41.117  44.649  0.00  0.00    -0.361 OA
HETATM   26  H   UNK N   1      43.829  40.304  44.299  0.00  0.00     0.217 HD
ENDBRANCH   6  25
TORSDOF 6
ENDMDL
MODEL 2
REMARK VINA RESULT:      -7.2      1.373      6.984
REMARK  6 active torsions:
REMARK  status: ('A' for Active; 'I' for Inactive)
REMARK    1  A    between atoms: C_4  and  O_5 
REMARK    2  A    between atoms: C_8  and  O_10 
REMARK    3  A    between atoms: C_13  and  O_14 
REMARK    4  A    between atoms: C_16  and  C_17 
REMARK    5  A    between atoms: C_19  and  O_20 
REMARK    6  A    between atoms: C_22  and  O_23 
ROOT
HETATM    1  O   UNK N   1      40.732  44.216  49.638  0.00  0.00    -0.338 OA
HETATM    2  C   UNK N   1      40.665  44.126  50.992  0.00  0.00     0.081 A 
HETATM    3  C   UNK N   1      41.393  45.020  51.810  0.00  0.00     0.011 A 
HETATM    4  C   UNK N   1      41.286  44.935  53.207  0.00  0.00     0.077 A 
HETATM    5  C   UNK N   1      40.469  43.951  53.784  0.00  0.00     0.073 A 
HETATM    6  C   UNK N   1      39.758  43.058  52.975  0.00  0.00     0.071 A 
HETATM    7  C   UNK N   1      39.860  43.146  51.579  0.00  0.00     0.074 A 
HETATM    8  C   UNK N   1      42.262  46.078  51.181  0.00  0.00     0.079 C 
HETATM    9  C   UNK N   1      42.532  45.785  49.702  0.00  0.00     0.156 C 
HETATM   10  C   UNK N   1      41.241  45.327  48.981  0.00  0.00     0.191 C 
ENDROOT
BRANCH  10  11
HETATM   11  C   UNK N   1      41.422  44.985  47.509  0.00  0.00    -0.024 A 
HETATM   12  C   UNK N   1      41.824  43.703  47.077  0.00  0.00     0.049 A 
HETATM   13  C   UNK N   1      41.996  43.423  45.721  0.00  0.00     0.099 A 
HETATM   14  C   UNK N   1      41.759  44.425  44.767  0.00  0.00     0.098 A 
HETATM   15  C   UNK N   1      41.349  45.700  45.184  0.00  0.00     0.040 A 
HETATM   16  C   UNK N   1      41.181  45.978  46.544  0.00  0.00     0.013 A 
BRANCH  13  17
HETATM   17  O   UNK N   1      42.390  42.186  45.360  0.00  0.00    -0.358 OA
HETATM   18  H   UNK N   1      42.196  41.812  44.489  0.00  0.00     0.218 HD
ENDBRANCH  13  17
BRANCH  14  19
HETATM   19  O   UNK N   1      41.928  44.155  43.456  0.00  0.00    -0.358 OA
HETATM   20  H   UNK N   1      41.185  43.921  42.884  0.00  0.00     0.218 HD
ENDBRANCH  14  19
ENDBRANCH  10  11
BRANCH   9  21
HETATM   21  O   UNK N   1      43.118  46.911  49.098  0.00  0.00    -0.392 OA
HETATM   22  H   UNK N   1      43.457  47.498  49.824  0.00  0.00     0.210 HD
ENDBRANCH   9  21
BRANCH   4  23
HETATM   23  O   UNK N   1      41.976  45.793  53.989  0.00  0.00    -0.360 OA
HETATM   24  H   UNK N   1      41.534  46.370  54.628  0.00  0.00     0.217 HD
ENDBRANCH   4  23
BRANCH   6  25
HETATM   25  O   UNK N   1      38.974  42.124  53.548  0.00  0.00    -0.361 OA
HETATM   26  H   UNK N   1      38.527  41.445  53.023  0.00  0.00     0.217 HD
ENDBRANCH   6  25
TORSDOF 6
ENDMDL
MODEL 3
REMARK VINA RESULT:      -6.7      4.208      8.119
REMARK  6 active torsions:
REMARK  status: ('A' for Active; 'I' for Inactive)
REMARK    1  A    between atoms: C_4  and  O_5 
REMARK    2  A    between atoms: C_8  and  O_10 
REMARK    3  A    between atoms: C_13  and  O_14 
REMARK    4  A    between atoms: C_16  and  C_17 
REMARK    5  A    between atoms: C_19  and  O_20 
REMARK    6  A    between atoms: C_22  and  O_23 
ROOT
HETATM    1  O   UNK N   1      39.430  47.509  46.322  0.00  0.00    -0.338 OA
HETATM    2  C   UNK N   1      39.892  46.729  47.334  0.00  0.00     0.081 A 
HETATM    3  C   UNK N   1      41.229  46.839  47.777  0.00  0.00     0.011 A 
HETATM    4  C   UNK N   1      41.680  46.050  48.847  0.00  0.00     0.077 A 
HETATM    5  C   UNK N   1      40.803  45.143  49.459  0.00  0.00     0.073 A 
HETATM    6  C   UNK N   1      39.482  45.024  49.014  0.00  0.00     0.071 A 
HETATM    7  C   UNK N   1      39.029  45.817  47.949  0.00  0.00     0.074 A 
HETATM    8  C   UNK N   1      42.162  47.822  47.117  0.00  0.00     0.079 C 
HETATM    9  C   UNK N   1      41.613  48.309  45.773  0.00  0.00     0.156 C 
HETATM   10  C   UNK N   1      40.104  48.636  45.874  0.00  0.00     0.191 C 
ENDROOT
BRANCH  10  11
HETATM   11  C   UNK N   1      39.465  49.103  44.573  0.00  0.00    -0.024 A 
HETATM   12  C   UNK N   1      38.330  48.469  44.021  0.00  0.00     0.049 A 
HETATM   13  C   UNK N   1      37.776  48.909  42.819  0.00  0.00     0.099 A 
HETATM   14  C   UNK N   1      38.345  50.003  42.148  0.00  0.00     0.098 A 
HETATM   15  C   UNK N   1      39.466  50.647  42.692  0.00  0.00     0.040 A 
HETATM   16  C   UNK N   1      40.022  50.201  43.895  0.00  0.00     0.013 A 
BRANCH  13  17
HETATM   17  O   UNK N   1      36.698  48.266  42.328  0.00  0.00    -0.358 OA
HETATM   18  H   UNK N   1      35.874  48.722  42.110  0.00  0.00     0.218 HD
ENDBRANCH  13  17
BRANCH  14  19
HETATM   19  O   UNK N   1      37.811  50.427  40.984  0.00  0.00    -0.358 OA
HETATM   20  H   UNK N   1      37.892  51.345  40.690  0.00  0.00     0.218 HD
ENDBRANCH  14  19
ENDBRANCH  10  11
BRANCH   9  21
HETATM   21  O   UNK N   1      42.374  49.402  45.321  0.00  0.00    -0.392 OA
HETATM   22  H   UNK N   1      43.292  49.299  45.687  0.00  0.00     0.210 HD
ENDBRANCH   9  21
BRANCH   4  23
HETATM   23  O   UNK N   1      42.956  46.159  49.274  0.00  0.00    -0.360 OA
HETATM   24  H   UNK N   1      43.617  46.666  48.784  0.00  0.00     0.217 HD
ENDBRANCH   4  23
BRANCH   6  25
HETATM   25  O   UNK N   1      38.653  44.152  49.621  0.00  0.00    -0.361 OA
HETATM   26  H   UNK N   1      38.028  44.435  50.302  0.00  0.00     0.217 HD
ENDBRANCH   6  25
TORSDOF 6
ENDMDL
MODEL 4
REMARK VINA RESULT:      -6.6      4.138      7.652
REMARK  6 active torsions:
REMARK  status: ('A' for Active; 'I' for Inactive)
REMARK    1  A    between atoms: C_4  and  O_5 
REMARK    2  A    between atoms: C_8  and  O_10 
REMARK    3  A    between atoms: C_13  and  O_14 
REMARK    4  A    between atoms: C_16  and  C_17 
REMARK    5  A    between atoms: C_19  and  O_20 
REMARK    6  A    between atoms: C_22  and  O_23 
ROOT
HETATM    1  O   UNK N   1      40.542  46.911  44.888  0.00  0.00    -0.338 OA
HETATM    2  C   UNK N   1      40.969  45.858  45.632  0.00  0.00     0.081 A 
HETATM    3  C   UNK N   1      40.718  45.809  47.022  0.00  0.00     0.011 A 
HETATM    4  C   UNK N   1      41.135  44.696  47.769  0.00  0.00     0.077 A 
HETATM    5  C   UNK N   1      41.815  43.647  47.134  0.00  0.00     0.073 A 
HETATM    6  C   UNK N   1      42.075  43.700  45.761  0.00  0.00     0.071 A 
HETATM    7  C   UNK N   1      41.653  44.809  45.012  0.00  0.00     0.074 A 
HETATM    8  C   UNK N   1      39.980  46.937  47.694  0.00  0.00     0.079 C 
HETATM    9  C   UNK N   1      39.935  48.189  46.813  0.00  0.00     0.156 C 
HETATM   10  C   UNK N   1      39.603  47.825  45.346  0.00  0.00     0.191 C 
ENDROOT
BRANCH  10  11
HETATM   11  C   UNK N   1      39.566  49.009  44.389  0.00  0.00    -0.024 A 
HETATM   12  C   UNK N   1      38.814  48.989  43.194  0.00  0.00     0.049 A 
HETATM   13  C   UNK N   1      38.811  50.082  42.329  0.00  0.00     0.099 A 
HETATM   14  C   UNK N   1      39.558  51.227  42.650  0.00  0.00     0.098 A 
HETATM   15  C   UNK N   1      40.300  51.263  43.839  0.00  0.00     0.040 A 
HETATM   16  C   UNK N   1      40.304  50.163  44.703  0.00  0.00     0.013 A 
BRANCH  13  17
HETATM   17  O   UNK N   1      38.084  50.011  41.196  0.00  0.00    -0.358 OA
HETATM   18  H   UNK N   1      37.750  50.797  40.742  0.00  0.00     0.218 HD
ENDBRANCH  13  17
BRANCH  14  19
HETATM   19  O   UNK N   1      39.557  52.284  41.811  0.00  0.00    -0.358 OA
HETATM   20  H   UNK N   1      39.619  52.175  40.853  0.00  0.00     0.218 HD
ENDBRANCH  14  19
ENDBRANCH  10  11
BRANCH   9  21
HETATM   21  O   UNK N   1      39.029  49.117  47.358  0.00  0.00    -0.392 OA
HETATM   22  H   UNK N   1      39.328  49.319  48.283  0.00  0.00     0.210 HD
ENDBRANCH   9  21
BRANCH   4  23
HETATM   23  O   UNK N   1      40.890  44.645  49.096  0.00  0.00    -0.360 OA
HETATM   24  H   UNK N   1      40.945  43.818  49.595  0.00  0.00     0.217 HD
ENDBRANCH   4  23
BRANCH   6  25
HETATM   25  O   UNK N   1      42.724  42.679  45.167  0.00  0.00    -0.361 OA
HETATM   26  H   UNK N   1      43.445  42.210  45.610  0.00  0.00     0.217 HD
ENDBRANCH   6  25
TORSDOF 6
ENDMDL
MODEL 5
REMARK VINA RESULT:      -6.4      3.198      3.970
REMARK  6 active torsions:
REMARK  status: ('A' for Active; 'I' for Inactive)
REMARK    1  A    between atoms: C_4  and  O_5 
REMARK    2  A    between atoms: C_8  and  O_10 
REMARK    3  A    between atoms: C_13  and  O_14 
REMARK    4  A    between atoms: C_16  and  C_17 
REMARK    5  A    between atoms: C_19  and  O_20 
REMARK    6  A    between atoms: C_22  and  O_23 
ROOT
HETATM    1  O   UNK N   1      40.431  46.145  48.243  0.00  0.00    -0.338 OA
HETATM    2  C   UNK N   1      40.447  46.984  47.175  0.00  0.00     0.081 A 
HETATM    3  C   UNK N   1      41.592  47.761  46.886  0.00  0.00     0.011 A 
HETATM    4  C   UNK N   1      41.604  48.596  45.758  0.00  0.00     0.077 A 
HETATM    5  C   UNK N   1      40.471  48.668  44.934  0.00  0.00     0.073 A 
HETATM    6  C   UNK N   1      39.334  47.909  45.226  0.00  0.00     0.071 A 
HETATM    7  C   UNK N   1      39.323  47.069  46.349  0.00  0.00     0.074 A 
HETATM    8  C   UNK N   1      42.806  47.671  47.774  0.00  0.00     0.079 C 
HETATM    9  C   UNK N   1      42.479  47.011  49.116  0.00  0.00     0.156 C 
HETATM   10  C   UNK N   1      41.582  45.766  48.920  0.00  0.00     0.191 C 
ENDROOT
BRANCH  10  11
HETATM   11  C   UNK N   1      41.182  45.059  50.208  0.00  0.00    -0.024 A 
HETATM   12  C   UNK N   1      41.736  45.404  51.460  0.00  0.00     0.049 A 
HETATM   13  C   UNK N   1      41.362  44.728  52.621  0.00  0.00     0.099 A 
HETATM   14  C   UNK N   1      40.413  43.696  52.552  0.00  0.00     0.098 A 
HETATM   15  C   UNK N   1      39.847  43.352  51.316  0.00  0.00     0.040 A 
HETATM   16  C   UNK N   1      40.228  44.029  50.153  0.00  0.00     0.013 A 
BRANCH  13  17
HETATM   17  O   UNK N   1      41.926  45.088  53.791  0.00  0.00    -0.358 OA
HETATM   18  H   UNK N   1      41.899  44.525  54.577  0.00  0.00     0.218 HD
ENDBRANCH  13  17
BRANCH  14  19
HETATM   19  O   UNK N   1      40.053  43.040  53.676  0.00  0.00    -0.358 OA
HETATM   20  H   UNK N   1      40.638  42.401  54.102  0.00  0.00     0.218 HD
ENDBRANCH  14  19
ENDBRANCH  10  11
BRANCH   9  21
HETATM   21  O   UNK N   1      43.673  46.715  49.799  0.00  0.00    -0.392 OA
HETATM   22  H   UNK N   1      44.204  46.105  49.223  0.00  0.00     0.210 HD
ENDBRANCH   9  21
BRANCH   4  23
HETATM   23  O   UNK N   1      42.699  49.334  45.478  0.00  0.00    -0.360 OA
HETATM   24  H   UNK N   1      43.586  48.949  45.470  0.00  0.00     0.217 HD
ENDBRANCH   4  23
BRANCH   6  25
HETATM   25  O   UNK N   1      38.258  47.987  44.417  0.00  0.00    -0.361 OA
HETATM   26  H   UNK N   1      37.389  48.248  44.753  0.00  0.00     0.217 HD
ENDBRANCH   6  25
TORSDOF 6
ENDMDL
MODEL 6
REMARK VINA RESULT:      -6.4      3.108      3.723
REMARK  6 active torsions:
REMARK  status: ('A' for Active; 'I' for Inactive)
REMARK    1  A    between atoms: C_4  and  O_5 
REMARK    2  A    between atoms: C_8  and  O_10 
REMARK    3  A    between atoms: C_13  and  O_14 
REMARK    4  A    between atoms: C_16  and  C_17 
REMARK    5  A    between atoms: C_19  and  O_20 
REMARK    6  A    between atoms: C_22  and  O_23 
ROOT
HETATM    1  O   UNK N   1      41.828  46.423  49.427  0.00  0.00    -0.338 OA
HETATM    2  C   UNK N   1      41.979  46.984  48.199  0.00  0.00     0.081 A 
HETATM    3  C   UNK N   1      41.056  46.712  47.164  0.00  0.00     0.011 A 
HETATM    4  C   UNK N   1      41.209  47.328  45.911  0.00  0.00     0.077 A 
HETATM    5  C   UNK N   1      42.288  48.196  45.689  0.00  0.00     0.073 A 
HETATM    6  C   UNK N   1      43.208  48.456  46.710  0.00  0.00     0.071 A 
HETATM    7  C   UNK N   1      43.053  47.847  47.964  0.00  0.00     0.074 A 
HETATM    8  C   UNK N   1      39.896  45.783  47.414  0.00  0.00     0.079 C 
HETATM    9  C   UNK N   1      40.102  44.949  48.682  0.00  0.00     0.156 C 
HETATM   10  C   UNK N   1      40.647  45.820  49.839  0.00  0.00     0.191 C 
ENDROOT
BRANCH  10  11
HETATM   11  C   UNK N   1      40.910  45.065  51.135  0.00  0.00    -0.024 A 
HETATM   12  C   UNK N   1      40.045  44.055  51.607  0.00  0.00     0.049 A 
HETATM   13  C   UNK N   1      40.302  43.392  52.806  0.00  0.00     0.099 A 
HETATM   14  C   UNK N   1      41.442  43.723  53.555  0.00  0.00     0.098 A 
HETATM   15  C   UNK N   1      42.315  44.718  53.091  0.00  0.00     0.040 A 
HETATM   16  C   UNK N   1      42.051  45.384  51.890  0.00  0.00     0.013 A 
BRANCH  13  17
HETATM   17  O   UNK N   1      39.441  42.440  53.219  0.00  0.00    -0.358 OA
HETATM   18  H   UNK N   1      39.625  41.863  53.973  0.00  0.00     0.218 HD
ENDBRANCH  13  17
BRANCH  14  19
HETATM   19  O   UNK N   1      41.690  43.083  54.717  0.00  0.00    -0.358 OA
HETATM   20  H   UNK N   1      41.138  42.352  55.025  0.00  0.00     0.218 HD
ENDBRANCH  14  19
ENDBRANCH  10  11
BRANCH   9  21
HETATM   21  O   UNK N   1      38.902  44.297  49.016  0.00  0.00    -0.392 OA
HETATM   22  H   UNK N   1      39.093  43.690  49.779  0.00  0.00     0.210 HD
ENDBRANCH   9  21
BRANCH   4  23
HETATM   23  O   UNK N   1      40.324  47.073  44.924  0.00  0.00    -0.360 OA
HETATM   24  H   UNK N   1      39.398  47.347  44.984  0.00  0.00     0.217 HD
ENDBRANCH   4  23
BRANCH   6  25
HETATM   25  O   UNK N   1      44.234  49.299  46.479  0.00  0.00    -0.361 OA
HETATM   26  H   UNK N   1      45.146  49.061  46.698  0.00  0.00     0.217 HD
ENDBRANCH   6  25
TORSDOF 6
ENDMDL
MODEL 7
REMARK VINA RESULT:      -6.1      1.882      3.927
REMARK  6 active torsions:
REMARK  status: ('A' for Active; 'I' for Inactive)
REMARK    1  A    between atoms: C_4  and  O_5 
REMARK    2  A    between atoms: C_8  and  O_10 
REMARK    3  A    between atoms: C_13  and  O_14 
REMARK    4  A    between atoms: C_16  and  C_17 
REMARK    5  A    between atoms: C_19  and  O_20 
REMARK    6  A    between atoms: C_22  and  O_23 
ROOT
HETATM    1  O   UNK N   1      40.404  45.907  49.013  0.00  0.00    -0.338 OA
HETATM    2  C   UNK N   1      40.394  46.449  47.768  0.00  0.00     0.081 A 
HETATM    3  C   UNK N   1      40.943  45.746  46.672  0.00  0.00     0.011 A 
HETATM    4  C   UNK N   1      40.893  46.307  45.386  0.00  0.00     0.077 A 
HETATM    5  C   UNK N   1      40.314  47.571  45.200  0.00  0.00     0.073 A 
HETATM    6  C   UNK N   1      39.781  48.272  46.286  0.00  0.00     0.071 A 
HETATM    7  C   UNK N   1      39.825  47.710  47.571  0.00  0.00     0.074 A 
HETATM    8  C   UNK N   1      41.557  44.386  46.881  0.00  0.00     0.079 C 
HETATM    9  C   UNK N   1      41.842  44.114  48.361  0.00  0.00     0.156 C 
HETATM   10  C   UNK N   1      40.655  44.562  49.247  0.00  0.00     0.191 C 
ENDROOT
BRANCH  10  11
HETATM   11  C   UNK N   1      40.862  44.355  50.741  0.00  0.00    -0.024 A 
HETATM   12  C   UNK N   1      40.052  43.484  51.501  0.00  0.00     0.049 A 
HETATM   13  C   UNK N   1      40.255  43.327  52.872  0.00  0.00     0.099 A 
HETATM   14  C   UNK N   1      41.286  44.035  53.509  0.00  0.00     0.098 A 
HETATM   15  C   UNK N   1      42.105  44.895  52.763  0.00  0.00     0.040 A 
HETATM   16  C   UNK N   1      41.896  45.053  51.389  0.00  0.00     0.013 A 
BRANCH  13  17
HETATM   17  O   UNK N   1      39.448  42.491  53.555  0.00  0.00    -0.358 OA
HETATM   18  H   UNK N   1      39.569  42.306  54.497  0.00  0.00     0.218 HD
ENDBRANCH  13  17
BRANCH  14  19
HETATM   19  O   UNK N   1      41.482  43.885  54.836  0.00  0.00    -0.358 OA
HETATM   20  H   UNK N   1      42.253  44.260  55.283  0.00  0.00     0.218 HD
ENDBRANCH  14  19
ENDBRANCH  10  11
BRANCH   9  21
HETATM   21  O   UNK N   1      42.166  42.757  48.537  0.00  0.00    -0.392 OA
HETATM   22  H   UNK N   1      43.153  42.673  48.465  0.00  0.00     0.210 HD
ENDBRANCH   9  21
BRANCH   4  23
HETATM   23  O   UNK N   1      41.412  45.633  44.337  0.00  0.00    -0.360 OA
HETATM   24  H   UNK N   1      42.235  45.131  44.408  0.00  0.00     0.217 HD
ENDBRANCH   4  23
BRANCH   6  25
HETATM   25  O   UNK N   1      39.222  49.482  46.085  0.00  0.00    -0.361 OA
HETATM   26  H   UNK N   1      39.076  50.101  46.815  0.00  0.00     0.217 HD
ENDBRANCH   6  25
TORSDOF 6
ENDMDL
MODEL 8
REMARK VINA RESULT:      -6.0      3.205      6.952
REMARK  6 active torsions:
REMARK  status: ('A' for Active; 'I' for Inactive)
REMARK    1  A    between atoms: C_4  and  O_5 
REMARK    2  A    between atoms: C_8  and  O_10 
REMARK    3  A    between atoms: C_13  and  O_14 
REMARK    4  A    between atoms: C_16  and  C_17 
REMARK    5  A    between atoms: C_19  and  O_20 
REMARK    6  A    between atoms: C_22  and  O_23 
ROOT
HETATM    1  O   UNK N   1      41.176  46.380  48.837  0.00  0.00    -0.338 OA
HETATM    2  C   UNK N   1      41.141  45.669  49.994  0.00  0.00     0.081 A 
HETATM    3  C   UNK N   1      40.216  44.615  50.164  0.00  0.00     0.011 A 
HETATM    4  C   UNK N   1      40.217  43.868  51.353  0.00  0.00     0.077 A 
HETATM    5  C   UNK N   1      41.127  44.184  52.372  0.00  0.00     0.073 A 
HETATM    6  C   UNK N   1      42.035  45.235  52.209  0.00  0.00     0.071 A 
HETATM    7  C   UNK N   1      42.039  45.979  51.019  0.00  0.00     0.074 A 
HETATM    8  C   UNK N   1      39.247  44.277  49.060  0.00  0.00     0.079 C 
HETATM    9  C   UNK N   1      39.152  45.403  48.026  0.00  0.00     0.156 C 
HETATM   10  C   UNK N   1      40.554  45.953  47.672  0.00  0.00     0.191 C 
ENDROOT
BRANCH  10  11
HETATM   11  C   UNK N   1      40.554  47.098  46.669  0.00  0.00    -0.024 A 
HETATM   12  C   UNK N   1      41.739  47.763  46.284  0.00  0.00     0.049 A 
HETATM   13  C   UNK N   1      41.706  48.819  45.375  0.00  0.00     0.099 A 
HETATM   14  C   UNK N   1      40.481  49.227  44.823  0.00  0.00     0.098 A 
HETATM   15  C   UNK N   1      39.299  48.567  45.189  0.00  0.00     0.040 A 
HETATM   16  C   UNK N   1      39.335  47.510  46.104  0.00  0.00     0.013 A 
BRANCH  13  17
HETATM   17  O   UNK N   1      42.863  49.428  45.046  0.00  0.00    -0.358 OA
HETATM   18  H   UNK N   1      43.310  49.276  44.202  0.00  0.00     0.218 HD
ENDBRANCH  13  17
BRANCH  14  19
HETATM   19  O   UNK N   1      40.449  50.251  43.945  0.00  0.00    -0.358 OA
HETATM   20  H   UNK N   1      40.757  50.151  43.034  0.00  0.00     0.218 HD
ENDBRANCH  14  19
ENDBRANCH  10  11
BRANCH   9  21
HETATM   21  O   UNK N   1      38.449  44.947  46.897  0.00  0.00    -0.392 OA
HETATM   22  H   UNK N   1      38.886  45.336  46.095  0.00  0.00     0.210 HD
ENDBRANCH   9  21
BRANCH   4  23
HETATM   23  O   UNK N   1      39.338  42.856  51.514  0.00  0.00    -0.360 OA
HETATM   24  H   UNK N   1      38.892  42.695  52.357  0.00  0.00     0.217 HD
ENDBRANCH   4  23
BRANCH   6  25
HETATM   25  O   UNK N   1      42.906  45.520  53.198  0.00  0.00    -0.361 OA
HETATM   26  H   UNK N   1      42.812  45.139  54.082  0.00  0.00     0.217 HD
ENDBRANCH   6  25
TORSDOF 6
ENDMDL
MODEL 9
REMARK VINA RESULT:      -6.0      3.965      7.866
REMARK  6 active torsions:
REMARK  status: ('A' for Active; 'I' for Inactive)
REMARK    1  A    between atoms: C_4  and  O_5 
REMARK    2  A    between atoms: C_8  and  O_10 
REMARK    3  A    between atoms: C_13  and  O_14 
REMARK    4  A    between atoms: C_16  and  C_17 
REMARK    5  A    between atoms: C_19  and  O_20 
REMARK    6  A    between atoms: C_22  and  O_23 
ROOT
HETATM    1  O   UNK N   1      40.798  47.673  46.741  0.00  0.00    -0.338 OA
HETATM    2  C   UNK N   1      40.956  46.889  47.839  0.00  0.00     0.081 A 
HETATM    3  C   UNK N   1      40.028  45.865  48.132  0.00  0.00     0.011 A 
HETATM    4  C   UNK N   1      40.226  45.042  49.252  0.00  0.00     0.077 A 
HETATM    5  C   UNK N   1      41.335  45.254  50.084  0.00  0.00     0.073 A 
HETATM    6  C   UNK N   1      42.247  46.275  49.801  0.00  0.00     0.071 A 
HETATM    7  C   UNK N   1      42.054  47.094  48.679  0.00  0.00     0.074 A 
HETATM    8  C   UNK N   1      38.844  45.640  47.228  0.00  0.00     0.079 C 
HETATM    9  C   UNK N   1      38.605  46.834  46.299  0.00  0.00     0.156 C 
HETATM   10  C   UNK N   1      39.937  47.349  45.702  0.00  0.00     0.191 C 
ENDROOT
BRANCH  10  11
HETATM   11  C   UNK N   1      39.798  48.557  44.785  0.00  0.00    -0.024 A 
HETATM   12  C   UNK N   1      38.919  48.568  43.681  0.00  0.00     0.049 A 
HETATM   13  C   UNK N   1      38.825  49.684  42.850  0.00  0.00     0.099 A 
HETATM   14  C   UNK N   1      39.608  50.818  43.114  0.00  0.00     0.098 A 
HETATM   15  C   UNK N   1      40.478  50.823  44.215  0.00  0.00     0.040 A 
HETATM   16  C   UNK N   1      40.572  49.701  45.044  0.00  0.00     0.013 A 
BRANCH  13  17
HETATM   17  O   UNK N   1      37.977  49.643  41.802  0.00  0.00    -0.358 OA
HETATM   18  H   UNK N   1      37.035  49.450  41.903  0.00  0.00     0.218 HD
ENDBRANCH  13  17
BRANCH  14  19
HETATM   19  O   UNK N   1      39.520  51.897  42.308  0.00  0.00    -0.358 OA
HETATM   20  H   UNK N   1      40.074  52.678  42.440  0.00  0.00     0.218 HD
ENDBRANCH  14  19
ENDBRANCH  10  11
BRANCH   9  21
HETATM   21  O   UNK N   1      37.669  46.483  45.311  0.00  0.00    -0.392 OA
HETATM   22  H   UNK N   1      36.913  47.124  45.373  0.00  0.00     0.210 HD
ENDBRANCH   9  21
BRANCH   4  23
HETATM   23  O   UNK N   1      39.343  44.058  49.530  0.00  0.00    -0.360 OA
HETATM   24  H   UNK N   1      39.596  43.124  49.509  0.00  0.00     0.217 HD
ENDBRANCH   4  23
BRANCH   6  25
HETATM   25  O   UNK N   1      43.311  46.459  50.609  0.00  0.00    -0.361 OA
HETATM   26  H   UNK N   1      43.387  46.002  51.459  0.00  0.00     0.217 HD
ENDBRANCH   6  25
TORSDOF 6
ENDMDL
