MODEL 1
REMARK VINA RESULT:      -6.7      0.000      0.000
REMARK  3 active torsions:
REMARK  status: ('A' for Active; 'I' for Inactive)
REMARK    1  A    between atoms: C_7  and  O_8 
REMARK    2  A    between atoms: C_18  and  O_19 
REMARK    3  A    between atoms: O_19  and  C_20 
ROOT
HETATM    1  O   UNK N   1      28.931  49.359  40.810  0.00  0.00    -0.259 OA
HETATM    2  C   UNK N   1      29.741  50.268  40.875  0.00  0.00     0.292 A 
HETATM    3  O   UNK N   1      30.914  50.161  41.502  0.00  0.00    -0.307 OA
HETATM    4  C   UNK N   1      31.684  51.303  41.350  0.00  0.00     0.171 A 
HETATM    5  C   UNK N   1      32.013  51.937  42.655  0.00  0.00    -0.037 C 
HETATM    6  C   UNK N   1      31.388  53.102  42.814  0.00  0.00    -0.045 C 
HETATM    7  C   UNK N   1      31.506  53.952  44.068  0.00  0.00     0.147 C 
HETATM    8  C   UNK N   1      32.186  53.208  45.238  0.00  0.00     0.037 C 
HETATM    9  C   UNK N   1      33.386  52.412  44.733  0.00  0.00     0.016 C 
HETATM   10  C   UNK N   1      32.959  51.328  43.696  0.00  0.00    -0.021 C 
HETATM   11  C   UNK N   1      34.246  50.809  43.019  0.00  0.00     0.019 C 
HETATM   12  C   UNK N   1      32.258  50.137  44.386  0.00  0.00     0.019 C 
HETATM   13  C   UNK N   1      30.546  53.492  41.638  0.00  0.00     0.049 C 
HETATM   14  C   UNK N   1      30.806  52.367  40.608  0.00  0.00     0.065 A 
HETATM   15  C   UNK N   1      29.598  51.557  40.256  0.00  0.00     0.046 A 
HETATM   16  C   UNK N   1      28.581  51.913  39.459  0.00  0.00     0.152 C 
ENDROOT
BRANCH  16  17
HETATM   17  O   UNK N   1      28.563  53.117  38.841  0.00  0.00    -0.328 OA
BRANCH  17  18
HETATM   18  C   UNK N   1      27.561  54.024  39.122  0.00  0.00     0.300 A 
HETATM   19  O   UNK N   1      28.074  55.318  39.056  0.00  0.00    -0.282 OA
HETATM   20  C   UNK N   1      27.985  55.918  40.252  0.00  0.00     0.291 A 
HETATM   21  O   UNK N   1      28.386  57.048  40.475  0.00  0.00    -0.260 OA
HETATM   22  C   UNK N   1      27.365  55.043  41.202  0.00  0.00     0.014 A 
HETATM   23  C   UNK N   1      27.107  53.912  40.565  0.00  0.00     0.046 A 
HETATM   24  C   UNK N   1      27.066  55.351  42.637  0.00  0.00     0.054 C 
ENDBRANCH  17  18
ENDBRANCH  16  17
BRANCH   7  25
HETATM   25  O   UNK N   1      30.252  54.430  44.481  0.00  0.00    -0.391 OA
HETATM   26  H   UNK N   1      30.279  55.423  44.430  0.00  0.00     0.210 HD
ENDBRANCH   7  25
TORSDOF 3
ENDMDL
MODEL 2
REMARK VINA RESULT:      -6.4      2.422      6.858
REMARK  3 active torsions:
REMARK  status: ('A' for Active; 'I' for Inactive)
REMARK    1  A    between atoms: C_7  and  O_8 
REMARK    2  A    between atoms: C_18  and  O_19 
REMARK    3  A    between atoms: O_19  and  C_20 
ROOT
HETATM    1  O   UNK N   1      29.594  57.635  40.905  0.00  0.00    -0.259 OA
HETATM    2  C   UNK N   1      29.642  56.447  40.634  0.00  0.00     0.292 A 
HETATM    3  O   UNK N   1      29.619  55.980  39.384  0.00  0.00    -0.307 OA
HETATM    4  C   UNK N   1      29.778  54.604  39.348  0.00  0.00     0.171 A 
HETATM    5  C   UNK N   1      28.618  53.921  38.715  0.00  0.00    -0.037 C 
HETATM    6  C   UNK N   1      27.912  53.217  39.598  0.00  0.00    -0.045 C 
HETATM    7  C   UNK N   1      26.651  52.448  39.241  0.00  0.00     0.147 C 
HETATM    8  C   UNK N   1      26.115  52.791  37.833  0.00  0.00     0.037 C 
HETATM    9  C   UNK N   1      27.267  52.882  36.837  0.00  0.00     0.016 C 
HETATM   10  C   UNK N   1      28.271  54.012  37.224  0.00  0.00    -0.021 C 
HETATM   11  C   UNK N   1      29.537  53.816  36.362  0.00  0.00     0.019 C 
HETATM   12  C   UNK N   1      27.687  55.409  36.921  0.00  0.00     0.019 C 
HETATM   13  C   UNK N   1      28.477  53.262  40.984  0.00  0.00     0.049 C 
HETATM   14  C   UNK N   1      29.774  54.091  40.828  0.00  0.00     0.065 A 
HETATM   15  C   UNK N   1      29.782  55.380  41.586  0.00  0.00     0.046 A 
HETATM   16  C   UNK N   1      29.954  55.551  42.904  0.00  0.00     0.152 C 
ENDROOT
BRANCH  16  17
HETATM   17  O   UNK N   1      30.169  54.496  43.725  0.00  0.00    -0.328 OA
BRANCH  17  18
HETATM   18  C   UNK N   1      31.092  54.593  44.747  0.00  0.00     0.300 A 
HETATM   19  O   UNK N   1      32.176  55.358  44.322  0.00  0.00    -0.282 OA
HETATM   20  C   UNK N   1      33.298  54.624  44.327  0.00  0.00     0.291 A 
HETATM   21  O   UNK N   1      34.387  55.045  43.975  0.00  0.00    -0.260 OA
HETATM   22  C   UNK N   1      33.022  53.298  44.795  0.00  0.00     0.014 A 
HETATM   23  C   UNK N   1      31.724  53.247  45.048  0.00  0.00     0.046 A 
HETATM   24  C   UNK N   1      34.012  52.188  44.967  0.00  0.00     0.054 C 
ENDBRANCH  17  18
ENDBRANCH  16  17
BRANCH   7  25
HETATM   25  O   UNK N   1      25.639  52.657  40.192  0.00  0.00    -0.391 OA
HETATM   26  H   UNK N   1      25.063  53.395  39.856  0.00  0.00     0.210 HD
ENDBRANCH   7  25
TORSDOF 3
ENDMDL
MODEL 3
REMARK VINA RESULT:      -5.6     15.898     19.324
REMARK  3 active torsions:
REMARK  status: ('A' for Active; 'I' for Inactive)
REMARK    1  A    between atoms: C_7  and  O_8 
REMARK    2  A    between atoms: C_18  and  O_19 
REMARK    3  A    between atoms: O_19  and  C_20 
ROOT
HETATM    1  O   UNK N   1      28.558  42.926  56.673  0.00  0.00    -0.259 OA
HETATM    2  C   UNK N   1      29.028  43.832  57.339  0.00  0.00     0.292 A 
HETATM    3  O   UNK N   1      28.283  44.755  57.949  0.00  0.00    -0.307 OA
HETATM    4  C   UNK N   1      29.055  45.614  58.714  0.00  0.00     0.171 A 
HETATM    5  C   UNK N   1      28.924  47.030  58.275  0.00  0.00    -0.037 C 
HETATM    6  C   UNK N   1      30.043  47.483  57.713  0.00  0.00    -0.045 C 
HETATM    7  C   UNK N   1      30.185  48.881  57.137  0.00  0.00     0.147 C 
HETATM    8  C   UNK N   1      28.834  49.620  57.010  0.00  0.00     0.037 C 
HETATM    9  C   UNK N   1      27.984  49.385  58.254  0.00  0.00     0.016 C 
HETATM   10  C   UNK N   1      27.654  47.872  58.445  0.00  0.00    -0.021 C 
HETATM   11  C   UNK N   1      27.081  47.703  59.870  0.00  0.00     0.019 C 
HETATM   12  C   UNK N   1      26.589  47.398  57.432  0.00  0.00     0.019 C 
HETATM   13  C   UNK N   1      31.151  46.476  57.697  0.00  0.00     0.049 C 
HETATM   14  C   UNK N   1      30.557  45.260  58.448  0.00  0.00     0.065 A 
HETATM   15  C   UNK N   1      30.425  44.022  57.619  0.00  0.00     0.046 A 
HETATM   16  C   UNK N   1      31.400  43.184  57.243  0.00  0.00     0.152 C 
ENDROOT
BRANCH  16  17
HETATM   17  O   UNK N   1      32.684  43.386  57.622  0.00  0.00    -0.328 OA
BRANCH  17  18
HETATM   18  C   UNK N   1      33.281  42.530  58.525  0.00  0.00     0.300 A 
HETATM   19  O   UNK N   1      32.318  42.037  59.404  0.00  0.00    -0.282 OA
HETATM   20  C   UNK N   1      32.591  42.420  60.660  0.00  0.00     0.291 A 
HETATM   21  O   UNK N   1      31.891  42.145  61.621  0.00  0.00    -0.260 OA
HETATM   22  C   UNK N   1      33.800  43.188  60.694  0.00  0.00     0.014 A 
HETATM   23  C   UNK N   1      34.230  43.274  59.445  0.00  0.00     0.046 A 
HETATM   24  C   UNK N   1      34.451  43.775  61.908  0.00  0.00     0.054 C 
ENDBRANCH  17  18
ENDBRANCH  16  17
BRANCH   7  25
HETATM   25  O   UNK N   1      30.825  48.856  55.887  0.00  0.00    -0.391 OA
HETATM   26  H   UNK N   1      31.649  49.408  55.963  0.00  0.00     0.210 HD
ENDBRANCH   7  25
TORSDOF 3
ENDMDL
MODEL 4
REMARK VINA RESULT:      -5.6      2.125      7.165
REMARK  3 active torsions:
REMARK  status: ('A' for Active; 'I' for Inactive)
REMARK    1  A    between atoms: C_7  and  O_8 
REMARK    2  A    between atoms: C_18  and  O_19 
REMARK    3  A    between atoms: O_19  and  C_20 
ROOT
HETATM    1  O   UNK N   1      31.352  55.877  43.983  0.00  0.00    -0.259 OA
HETATM    2  C   UNK N   1      30.927  55.477  42.912  0.00  0.00     0.292 A 
HETATM    3  O   UNK N   1      30.370  56.276  42.001  0.00  0.00    -0.307 OA
HETATM    4  C   UNK N   1      30.057  55.589  40.839  0.00  0.00     0.171 A 
HETATM    5  C   UNK N   1      28.603  55.644  40.529  0.00  0.00    -0.037 C 
HETATM    6  C   UNK N   1      28.016  54.458  40.679  0.00  0.00    -0.045 C 
HETATM    7  C   UNK N   1      26.530  54.225  40.468  0.00  0.00     0.147 C 
HETATM    8  C   UNK N   1      25.727  55.539  40.343  0.00  0.00     0.037 C 
HETATM    9  C   UNK N   1      26.479  56.537  39.469  0.00  0.00     0.016 C 
HETATM   10  C   UNK N   1      27.862  56.912  40.087  0.00  0.00    -0.021 C 
HETATM   11  C   UNK N   1      28.665  57.655  38.998  0.00  0.00     0.019 C 
HETATM   12  C   UNK N   1      27.697  57.853  41.300  0.00  0.00     0.019 C 
HETATM   13  C   UNK N   1      28.964  53.371  41.085  0.00  0.00     0.049 C 
HETATM   14  C   UNK N   1      30.344  54.071  41.098  0.00  0.00     0.065 A 
HETATM   15  C   UNK N   1      31.002  54.122  42.441  0.00  0.00     0.046 A 
HETATM   16  C   UNK N   1      31.617  53.121  43.086  0.00  0.00     0.152 C 
ENDROOT
BRANCH  16  17
HETATM   17  O   UNK N   1      31.722  51.890  42.533  0.00  0.00    -0.328 OA
BRANCH  17  18
HETATM   18  C   UNK N   1      32.247  50.845  43.267  0.00  0.00     0.300 A 
HETATM   19  O   UNK N   1      32.684  51.319  44.502  0.00  0.00    -0.282 OA
HETATM   20  C   UNK N   1      34.007  51.145  44.629  0.00  0.00     0.291 A 
HETATM   21  O   UNK N   1      34.647  51.497  45.606  0.00  0.00    -0.260 OA
HETATM   22  C   UNK N   1      34.538  50.503  43.464  0.00  0.00     0.014 A 
HETATM   23  C   UNK N   1      33.522  50.316  42.637  0.00  0.00     0.046 A 
HETATM   24  C   UNK N   1      35.966  50.116  43.230  0.00  0.00     0.054 C 
ENDBRANCH  17  18
ENDBRANCH  16  17
BRANCH   7  25
HETATM   25  O   UNK N   1      25.985  53.438  41.496  0.00  0.00    -0.391 OA
HETATM   26  H   UNK N   1      25.007  53.365  41.329  0.00  0.00     0.210 HD
ENDBRANCH   7  25
TORSDOF 3
ENDMDL
MODEL 5
REMARK VINA RESULT:      -5.6     14.795     17.886
REMARK  3 active torsions:
REMARK  status: ('A' for Active; 'I' for Inactive)
REMARK    1  A    between atoms: C_7  and  O_8 
REMARK    2  A    between atoms: C_18  and  O_19 
REMARK    3  A    between atoms: O_19  and  C_20 
ROOT
HETATM    1  O   UNK N   1      26.143  45.669  57.385  0.00  0.00    -0.259 OA
HETATM    2  C   UNK N   1      27.065  46.315  57.855  0.00  0.00     0.292 A 
HETATM    3  O   UNK N   1      27.002  47.630  58.072  0.00  0.00    -0.307 OA
HETATM    4  C   UNK N   1      28.145  48.102  58.696  0.00  0.00     0.171 A 
HETATM    5  C   UNK N   1      28.844  49.134  57.883  0.00  0.00    -0.037 C 
HETATM    6  C   UNK N   1      30.007  48.691  57.409  0.00  0.00    -0.045 C 
HETATM    7  C   UNK N   1      30.916  49.516  56.515  0.00  0.00     0.147 C 
HETATM    8  C   UNK N   1      30.236  50.797  55.982  0.00  0.00     0.037 C 
HETATM    9  C   UNK N   1      29.433  51.470  57.091  0.00  0.00     0.016 C 
HETATM   10  C   UNK N   1      28.296  50.541  57.620  0.00  0.00    -0.021 C 
HETATM   11  C   UNK N   1      27.763  51.167  58.927  0.00  0.00     0.019 C 
HETATM   12  C   UNK N   1      27.130  50.453  56.610  0.00  0.00     0.019 C 
HETATM   13  C   UNK N   1      30.331  47.293  57.837  0.00  0.00     0.049 C 
HETATM   14  C   UNK N   1      29.162  46.914  58.777  0.00  0.00     0.065 A 
HETATM   15  C   UNK N   1      28.321  45.774  58.295  0.00  0.00     0.046 A 
HETATM   16  C   UNK N   1      28.626  44.469  58.315  0.00  0.00     0.152 C 
ENDROOT
BRANCH  16  17
HETATM   17  O   UNK N   1      29.800  44.032  58.828  0.00  0.00    -0.328 OA
BRANCH  17  18
HETATM   18  C   UNK N   1      30.367  42.864  58.359  0.00  0.00     0.300 A 
HETATM   19  O   UNK N   1      31.601  43.148  57.777  0.00  0.00    -0.282 OA
HETATM   20  C   UNK N   1      31.587  42.835  56.473  0.00  0.00     0.291 A 
HETATM   21  O   UNK N   1      32.533  43.009  55.723  0.00  0.00    -0.260 OA
HETATM   22  C   UNK N   1      30.316  42.284  56.108  0.00  0.00     0.014 A 
HETATM   23  C   UNK N   1      29.570  42.291  57.202  0.00  0.00     0.046 A 
HETATM   24  C   UNK N   1      29.912  41.791  54.752  0.00  0.00     0.054 C 
ENDBRANCH  17  18
ENDBRANCH  16  17
BRANCH   7  25
HETATM   25  O   UNK N   1      31.397  48.757  55.435  0.00  0.00    -0.391 OA
HETATM   26  H   UNK N   1      31.574  49.385  54.685  0.00  0.00     0.210 HD
ENDBRANCH   7  25
TORSDOF 3
ENDMDL
MODEL 6
REMARK VINA RESULT:      -5.4     15.646     19.079
REMARK  3 active torsions:
REMARK  status: ('A' for Active; 'I' for Inactive)
REMARK    1  A    between atoms: C_7  and  O_8 
REMARK    2  A    between atoms: C_18  and  O_19 
REMARK    3  A    between atoms: O_19  and  C_20 
ROOT
HETATM    1  O   UNK N   1      27.234  44.683  58.495  0.00  0.00    -0.259 OA
HETATM    2  C   UNK N   1      28.157  45.466  58.645  0.00  0.00     0.292 A 
HETATM    3  O   UNK N   1      28.043  46.611  59.320  0.00  0.00    -0.307 OA
HETATM    4  C   UNK N   1      29.258  47.270  59.421  0.00  0.00     0.171 A 
HETATM    5  C   UNK N   1      29.217  48.622  58.803  0.00  0.00    -0.037 C 
HETATM    6  C   UNK N   1      29.954  48.686  57.695  0.00  0.00    -0.045 C 
HETATM    7  C   UNK N   1      30.067  49.932  56.834  0.00  0.00     0.147 C 
HETATM    8  C   UNK N   1      29.032  51.016  57.206  0.00  0.00     0.037 C 
HETATM    9  C   UNK N   1      28.916  51.139  58.722  0.00  0.00     0.016 C 
HETATM   10  C   UNK N   1      28.424  49.806  59.368  0.00  0.00    -0.021 C 
HETATM   11  C   UNK N   1      28.645  49.927  60.892  0.00  0.00     0.019 C 
HETATM   12  C   UNK N   1      26.918  49.580  59.110  0.00  0.00     0.019 C 
HETATM   13  C   UNK N   1      30.658  47.403  57.374  0.00  0.00     0.049 C 
HETATM   14  C   UNK N   1      30.297  46.476  58.559  0.00  0.00     0.065 A 
HETATM   15  C   UNK N   1      29.502  45.266  58.182  0.00  0.00     0.046 A 
HETATM   16  C   UNK N   1      29.946  44.154  57.579  0.00  0.00     0.152 C 
ENDROOT
BRANCH  16  17
HETATM   17  O   UNK N   1      31.251  44.007  57.252  0.00  0.00    -0.328 OA
BRANCH  17  18
HETATM   18  C   UNK N   1      31.952  42.900  57.686  0.00  0.00     0.300 A 
HETATM   19  O   UNK N   1      31.185  42.200  58.615  0.00  0.00    -0.282 OA
HETATM   20  C   UNK N   1      31.798  42.179  59.807  0.00  0.00     0.291 A 
HETATM   21  O   UNK N   1      31.329  41.653  60.803  0.00  0.00    -0.260 OA
HETATM   22  C   UNK N   1      33.056  42.860  59.731  0.00  0.00     0.014 A 
HETATM   23  C   UNK N   1      33.175  43.302  58.489  0.00  0.00     0.046 A 
HETATM   24  C   UNK N   1      34.046  43.034  60.842  0.00  0.00     0.054 C 
ENDBRANCH  17  18
ENDBRANCH  16  17
BRANCH   7  25
HETATM   25  O   UNK N   1      29.952  49.622  55.469  0.00  0.00    -0.391 OA
HETATM   26  H   UNK N   1      30.601  50.193  54.978  0.00  0.00     0.210 HD
ENDBRANCH   7  25
TORSDOF 3
ENDMDL
MODEL 7
REMARK VINA RESULT:      -5.3     17.566     20.390
REMARK  3 active torsions:
REMARK  status: ('A' for Active; 'I' for Inactive)
REMARK    1  A    between atoms: C_7  and  O_8 
REMARK    2  A    between atoms: C_18  and  O_19 
REMARK    3  A    between atoms: O_19  and  C_20 
ROOT
HETATM    1  O   UNK N   1      31.391  41.666  54.095  0.00  0.00    -0.259 OA
HETATM    2  C   UNK N   1      30.719  41.734  55.111  0.00  0.00     0.292 A 
HETATM    3  O   UNK N   1      30.962  42.605  56.092  0.00  0.00    -0.307 OA
HETATM    4  C   UNK N   1      30.000  42.537  57.087  0.00  0.00     0.171 A 
HETATM    5  C   UNK N   1      30.584  42.189  58.410  0.00  0.00    -0.037 C 
HETATM    6  C   UNK N   1      30.223  40.970  58.808  0.00  0.00    -0.045 C 
HETATM    7  C   UNK N   1      30.702  40.335  60.102  0.00  0.00     0.147 C 
HETATM    8  C   UNK N   1      31.858  41.116  60.765  0.00  0.00     0.037 C 
HETATM    9  C   UNK N   1      31.588  42.616  60.699  0.00  0.00     0.016 C 
HETATM   10  C   UNK N   1      31.493  43.117  59.224  0.00  0.00    -0.021 C 
HETATM   11  C   UNK N   1      30.910  44.546  59.262  0.00  0.00     0.019 C 
HETATM   12  C   UNK N   1      32.886  43.176  58.561  0.00  0.00     0.019 C 
HETATM   13  C   UNK N   1      29.303  40.278  57.849  0.00  0.00     0.049 C 
HETATM   14  C   UNK N   1      29.055  41.335  56.747  0.00  0.00     0.065 A 
HETATM   15  C   UNK N   1      29.551  40.947  55.390  0.00  0.00     0.046 A 
HETATM   16  C   UNK N   1      28.994  40.076  54.537  0.00  0.00     0.152 C 
ENDROOT
BRANCH  16  17
HETATM   17  O   UNK N   1      27.840  39.437  54.841  0.00  0.00    -0.328 OA
BRANCH  17  18
HETATM   18  C   UNK N   1      27.778  38.059  54.789  0.00  0.00     0.300 A 
HETATM   19  O   UNK N   1      27.602  37.553  56.075  0.00  0.00    -0.282 OA
HETATM   20  C   UNK N   1      28.648  36.789  56.424  0.00  0.00     0.291 A 
HETATM   21  O   UNK N   1      28.758  36.245  57.511  0.00  0.00    -0.260 OA
HETATM   22  C   UNK N   1      29.593  36.719  55.350  0.00  0.00     0.014 A 
HETATM   23  C   UNK N   1      29.109  37.464  54.369  0.00  0.00     0.046 A 
HETATM   24  C   UNK N   1      30.878  35.949  55.340  0.00  0.00     0.054 C 
ENDBRANCH  17  18
ENDBRANCH  16  17
BRANCH   7  25
HETATM   25  O   UNK N   1      31.092  39.000  59.903  0.00  0.00    -0.391 OA
HETATM   26  H   UNK N   1      30.331  38.423  60.182  0.00  0.00     0.210 HD
ENDBRANCH   7  25
TORSDOF 3
ENDMDL
MODEL 8
REMARK VINA RESULT:      -5.3     20.079     22.723
REMARK  3 active torsions:
REMARK  status: ('A' for Active; 'I' for Inactive)
REMARK    1  A    between atoms: C_7  and  O_8 
REMARK    2  A    between atoms: C_18  and  O_19 
REMARK    3  A    between atoms: O_19  and  C_20 
ROOT
HETATM    1  O   UNK N   1      30.764  47.195  62.236  0.00  0.00    -0.259 OA
HETATM    2  C   UNK N   1      31.624  46.510  62.764  0.00  0.00     0.292 A 
HETATM    3  O   UNK N   1      32.677  47.021  63.403  0.00  0.00    -0.307 OA
HETATM    4  C   UNK N   1      33.451  46.032  63.989  0.00  0.00     0.171 A 
HETATM    5  C   UNK N   1      34.846  46.029  63.471  0.00  0.00    -0.037 C 
HETATM    6  C   UNK N   1      35.099  44.953  62.728  0.00  0.00    -0.045 C 
HETATM    7  C   UNK N   1      36.429  44.705  62.038  0.00  0.00     0.147 C 
HETATM    8  C   UNK N   1      37.352  45.943  62.046  0.00  0.00     0.037 C 
HETATM    9  C   UNK N   1      37.310  46.625  63.411  0.00  0.00     0.016 C 
HETATM   10  C   UNK N   1      35.874  47.130  63.755  0.00  0.00    -0.021 C 
HETATM   11  C   UNK N   1      35.866  47.504  65.253  0.00  0.00     0.019 C 
HETATM   12  C   UNK N   1      35.512  48.389  62.936  0.00  0.00     0.019 C 
HETATM   13  C   UNK N   1      33.939  44.010  62.631  0.00  0.00     0.049 C 
HETATM   14  C   UNK N   1      32.865  44.650  63.543  0.00  0.00     0.065 A 
HETATM   15  C   UNK N   1      31.619  45.074  62.832  0.00  0.00     0.046 A 
HETATM   16  C   UNK N   1      30.627  44.291  62.386  0.00  0.00     0.152 C 
ENDROOT
BRANCH  16  17
HETATM   17  O   UNK N   1      30.657  42.950  62.568  0.00  0.00    -0.328 OA
BRANCH  17  18
HETATM   18  C   UNK N   1      30.616  42.104  61.479  0.00  0.00     0.300 A 
HETATM   19  O   UNK N   1      31.760  41.308  61.467  0.00  0.00    -0.282 OA
HETATM   20  C   UNK N   1      32.485  41.547  60.364  0.00  0.00     0.291 A 
HETATM   21  O   UNK N   1      33.548  41.001  60.119  0.00  0.00    -0.260 OA
HETATM   22  C   UNK N   1      31.833  42.523  59.543  0.00  0.00     0.014 A 
HETATM   23  C   UNK N   1      30.726  42.876  60.177  0.00  0.00     0.046 A 
HETATM   24  C   UNK N   1      32.311  43.041  58.221  0.00  0.00     0.054 C 
ENDBRANCH  17  18
ENDBRANCH  16  17
BRANCH   7  25
HETATM   25  O   UNK N   1      36.245  44.266  60.716  0.00  0.00    -0.391 OA
HETATM   26  H   UNK N   1      35.563  43.542  60.735  0.00  0.00     0.210 HD
ENDBRANCH   7  25
TORSDOF 3
ENDMDL
MODEL 9
REMARK VINA RESULT:      -5.3      2.194      7.227
REMARK  3 active torsions:
REMARK  status: ('A' for Active; 'I' for Inactive)
REMARK    1  A    between atoms: C_7  and  O_8 
REMARK    2  A    between atoms: C_18  and  O_19 
REMARK    3  A    between atoms: O_19  and  C_20 
ROOT
HETATM    1  O   UNK N   1      28.871  57.332  42.367  0.00  0.00    -0.259 OA
HETATM    2  C   UNK N   1      29.425  56.688  41.492  0.00  0.00     0.292 A 
HETATM    3  O   UNK N   1      29.239  56.911  40.190  0.00  0.00    -0.307 OA
HETATM    4  C   UNK N   1      30.054  56.106  39.410  0.00  0.00     0.171 A 
HETATM    5  C   UNK N   1      29.271  55.228  38.499  0.00  0.00    -0.037 C 
HETATM    6  C   UNK N   1      29.353  53.946  38.851  0.00  0.00    -0.045 C 
HETATM    7  C   UNK N   1      28.622  52.830  38.124  0.00  0.00     0.147 C 
HETATM    8  C   UNK N   1      27.564  53.351  37.127  0.00  0.00     0.037 C 
HETATM    9  C   UNK N   1      28.112  54.544  36.350  0.00  0.00     0.016 C 
HETATM   10  C   UNK N   1      28.464  55.733  37.297  0.00  0.00    -0.021 C 
HETATM   11  C   UNK N   1      29.293  56.744  36.476  0.00  0.00     0.019 C 
HETATM   12  C   UNK N   1      27.189  56.443  37.801  0.00  0.00     0.019 C 
HETATM   13  C   UNK N   1      30.230  53.710  40.041  0.00  0.00     0.049 C 
HETATM   14  C   UNK N   1      30.792  55.113  40.371  0.00  0.00     0.065 A 
HETATM   15  C   UNK N   1      30.389  55.645  41.709  0.00  0.00     0.046 A 
HETATM   16  C   UNK N   1      30.867  55.285  42.908  0.00  0.00     0.152 C 
ENDROOT
BRANCH  16  17
HETATM   17  O   UNK N   1      31.841  54.352  43.023  0.00  0.00    -0.328 OA
BRANCH  17  18
HETATM   18  C   UNK N   1      31.638  53.231  43.803  0.00  0.00     0.300 A 
HETATM   19  O   UNK N   1      32.495  53.267  44.900  0.00  0.00    -0.282 OA
HETATM   20  C   UNK N   1      33.340  52.226  44.868  0.00  0.00     0.291 A 
HETATM   21  O   UNK N   1      34.212  52.034  45.699  0.00  0.00    -0.260 OA
HETATM   22  C   UNK N   1      33.068  51.400  43.731  0.00  0.00     0.014 A 
HETATM   23  C   UNK N   1      32.068  51.970  43.077  0.00  0.00     0.046 A 
HETATM   24  C   UNK N   1      33.775  50.134  43.356  0.00  0.00     0.054 C 
ENDBRANCH  17  18
ENDBRANCH  16  17
BRANCH   7  25
HETATM   25  O   UNK N   1      28.017  51.941  39.028  0.00  0.00    -0.391 OA
HETATM   26  H   UNK N   1      27.798  52.456  39.850  0.00  0.00     0.210 HD
ENDBRANCH   7  25
TORSDOF 3
ENDMDL
