MODEL 1
REMARK VINA RESULT:      -6.2      0.000      0.000
REMARK  14 active torsions:
REMARK  status: ('A' for Active; 'I' for Inactive)
REMARK    1  A    between atoms: C_5  and  C_32 
REMARK    2  A    between atoms: C_6  and  C_7 
REMARK    3  A    between atoms: C_7  and  C_8 
REMARK    4  A    between atoms: C_10  and  O_11 
REMARK    5  A    between atoms: C_13  and  O_14 
REMARK    6  A    between atoms: O_14  and  C_15 
REMARK    7  A    between atoms: C_17  and  C_27 
REMARK    8  A    between atoms: C_18  and  O_19 
REMARK    9  A    between atoms: C_21  and  O_22 
REMARK   10  A    between atoms: C_24  and  O_25 
REMARK   11  A    between atoms: C_27  and  O_28 
REMARK   12  A    between atoms: C_32  and  C_33 
REMARK   13  A    between atoms: C_35  and  O_36 
REMARK   14  A    between atoms: C_38  and  O_39 
ROOT
HETATM    1  C   UNK N   1      31.071  42.779  56.524  0.00  0.00    -0.055 A 
HETATM    2  C   UNK N   1      29.712  42.987  56.807  0.00  0.00     0.046 A 
HETATM    3  C   UNK N   1      28.719  42.598  55.881  0.00  0.00     0.102 A 
HETATM    4  C   UNK N   1      29.097  41.983  54.673  0.00  0.00     0.105 A 
HETATM    5  C   UNK N   1      30.466  41.765  54.406  0.00  0.00     0.040 A 
HETATM    6  C   UNK N   1      31.438  42.168  55.319  0.00  0.00     0.010 A 
ENDROOT
BRANCH   1   7
HETATM    7  C   UNK N   1      32.138  43.230  57.495  0.00  0.00     0.053 C 
BRANCH   7   8
HETATM    8  C   UNK N   1      31.822  42.930  58.977  0.00  0.00     0.096 C 
HETATM    9  C   UNK N   1      32.941  42.463  59.836  0.00  0.00     0.263 C 
HETATM   10  O   UNK N   1      33.673  41.528  59.555  0.00  0.00    -0.265 OA
HETATM   11  O   UNK N   1      32.914  43.005  61.064  0.00  0.00    -0.321 OA
HETATM   12  C   UNK N   1      31.799  43.795  61.231  0.00  0.00     0.184 C 
HETATM   13  C   UNK N   1      31.429  44.182  59.790  0.00  0.00     0.028 C 
BRANCH  13  14
HETATM   14  C   UNK N   1      29.999  44.689  59.537  0.00  0.00     0.046 C 
BRANCH  14  15
HETATM   15  C   UNK N   1      29.988  46.109  59.036  0.00  0.00    -0.055 A 
HETATM   16  C   UNK N   1      29.443  47.130  59.829  0.00  0.00     0.046 A 
HETATM   17  C   UNK N   1      29.424  48.463  59.366  0.00  0.00     0.102 A 
HETATM   18  C   UNK N   1      29.970  48.758  58.106  0.00  0.00     0.101 A 
HETATM   19  C   UNK N   1      30.511  47.737  57.315  0.00  0.00     0.040 A 
HETATM   20  C   UNK N   1      30.515  46.419  57.773  0.00  0.00     0.010 A 
BRANCH  17  21
HETATM   21  O   UNK N   1      28.893  49.476  60.102  0.00  0.00    -0.353 OA
HETATM   22  C   UNK N   1      29.239  49.779  61.402  0.00  0.00     0.210 C 
ENDBRANCH  17  21
BRANCH  18  23
HETATM   23  O   UNK N   1      29.969  50.029  57.650  0.00  0.00    -0.353 OA
HETATM   24  C   UNK N   1      29.813  50.308  56.311  0.00  0.00     0.210 C 
ENDBRANCH  18  23
ENDBRANCH  14  15
ENDBRANCH  13  14
ENDBRANCH   7   8
ENDBRANCH   1   7
BRANCH   3  25
HETATM   25  O   UNK N   1      27.396  42.832  56.108  0.00  0.00    -0.353 OA
HETATM   26  C   UNK N   1      26.888  43.590  57.146  0.00  0.00     0.210 C 
ENDBRANCH   3  25
BRANCH   4  27
HETATM   27  O   UNK N   1      28.132  41.658  53.769  0.00  0.00    -0.315 OA
BRANCH  27  28
HETATM   28  C   UNK N   1      28.354  40.949  52.594  0.00  0.00     0.298 C 
HETATM   29  O   UNK N   1      27.471  39.841  52.459  0.00  0.00    -0.348 OA
HETATM   30  C   UNK N   1      26.123  40.238  52.234  0.00  0.00     0.179 C 
HETATM   31  C   UNK N   1      25.987  41.083  50.942  0.00  0.00     0.180 C 
HETATM   32  C   UNK N   1      26.882  42.326  51.065  0.00  0.00     0.183 C 
HETATM   33  C   UNK N   1      28.317  41.867  51.357  0.00  0.00     0.205 C 
BRANCH  30  34
HETATM   34  C   UNK N   1      25.260  38.967  52.144  0.00  0.00     0.198 C 
BRANCH  34  35
HETATM   35  O   UNK N   1      25.125  38.534  50.815  0.00  0.00    -0.398 OA
HETATM   36  H   UNK N   1      25.824  39.001  50.288  0.00  0.00     0.209 HD
ENDBRANCH  34  35
ENDBRANCH  30  34
BRANCH  31  37
HETATM   37  O   UNK N   1      24.650  41.472  50.755  0.00  0.00    -0.390 OA
HETATM   38  H   UNK N   1      24.644  42.137  50.017  0.00  0.00     0.210 HD
ENDBRANCH  31  37
BRANCH  32  39
HETATM   39  O   UNK N   1      26.833  43.110  49.898  0.00  0.00    -0.390 OA
HETATM   40  H   UNK N   1      26.790  44.063  50.173  0.00  0.00     0.210 HD
ENDBRANCH  32  39
BRANCH  33  41
HETATM   41  O   UNK N   1      29.193  42.957  51.503  0.00  0.00    -0.388 OA
HETATM   42  H   UNK N   1      29.623  42.886  52.396  0.00  0.00     0.210 HD
ENDBRANCH  33  41
ENDBRANCH  27  28
ENDBRANCH   4  27
TORSDOF 14
ENDMDL
MODEL 2
REMARK VINA RESULT:      -5.8      5.055      7.086
REMARK  14 active torsions:
REMARK  status: ('A' for Active; 'I' for Inactive)
REMARK    1  A    between atoms: C_5  and  C_32 
REMARK    2  A    between atoms: C_6  and  C_7 
REMARK    3  A    between atoms: C_7  and  C_8 
REMARK    4  A    between atoms: C_10  and  O_11 
REMARK    5  A    between atoms: C_13  and  O_14 
REMARK    6  A    between atoms: O_14  and  C_15 
REMARK    7  A    between atoms: C_17  and  C_27 
REMARK    8  A    between atoms: C_18  and  O_19 
REMARK    9  A    between atoms: C_21  and  O_22 
REMARK   10  A    between atoms: C_24  and  O_25 
REMARK   11  A    between atoms: C_27  and  O_28 
REMARK   12  A    between atoms: C_32  and  C_33 
REMARK   13  A    between atoms: C_35  and  O_36 
REMARK   14  A    between atoms: C_38  and  O_39 
ROOT
HETATM    1  C   UNK N   1      30.917  43.391  58.641  0.00  0.00    -0.055 A 
HETATM    2  C   UNK N   1      29.589  43.686  58.990  0.00  0.00     0.046 A 
HETATM    3  C   UNK N   1      29.029  44.944  58.681  0.00  0.00     0.102 A 
HETATM    4  C   UNK N   1      29.805  45.903  58.003  0.00  0.00     0.105 A 
HETATM    5  C   UNK N   1      31.133  45.590  57.644  0.00  0.00     0.040 A 
HETATM    6  C   UNK N   1      31.681  44.352  57.969  0.00  0.00     0.010 A 
ENDROOT
BRANCH   1   7
HETATM    7  C   UNK N   1      31.532  42.059  59.007  0.00  0.00     0.053 C 
BRANCH   7   8
HETATM    8  C   UNK N   1      32.752  42.156  59.948  0.00  0.00     0.096 C 
HETATM    9  C   UNK N   1      34.041  42.599  59.356  0.00  0.00     0.263 C 
HETATM   10  O   UNK N   1      34.546  42.097  58.365  0.00  0.00    -0.265 OA
HETATM   11  O   UNK N   1      34.721  43.435  60.157  0.00  0.00    -0.321 OA
HETATM   12  C   UNK N   1      34.075  43.598  61.363  0.00  0.00     0.184 C 
HETATM   13  C   UNK N   1      32.616  43.256  61.024  0.00  0.00     0.028 C 
BRANCH  13  14
HETATM   14  C   UNK N   1      31.682  42.898  62.192  0.00  0.00     0.046 C 
BRANCH  14  15
HETATM   15  C   UNK N   1      30.529  43.861  62.304  0.00  0.00    -0.055 A 
HETATM   16  C   UNK N   1      30.730  45.229  62.065  0.00  0.00     0.046 A 
HETATM   17  C   UNK N   1      29.657  46.138  62.171  0.00  0.00     0.102 A 
HETATM   18  C   UNK N   1      28.381  45.657  62.506  0.00  0.00     0.101 A 
HETATM   19  C   UNK N   1      28.183  44.291  62.747  0.00  0.00     0.040 A 
HETATM   20  C   UNK N   1      29.251  43.398  62.652  0.00  0.00     0.010 A 
BRANCH  17  21
HETATM   21  O   UNK N   1      29.817  47.473  61.959  0.00  0.00    -0.353 OA
HETATM   22  C   UNK N   1      30.271  48.377  62.897  0.00  0.00     0.210 C 
ENDBRANCH  17  21
BRANCH  18  23
HETATM   23  O   UNK N   1      27.340  46.511  62.603  0.00  0.00    -0.353 OA
HETATM   24  C   UNK N   1      26.831  46.882  63.828  0.00  0.00     0.210 C 
ENDBRANCH  18  23
ENDBRANCH  14  15
ENDBRANCH  13  14
ENDBRANCH   7   8
ENDBRANCH   1   7
BRANCH   3  25
HETATM   25  O   UNK N   1      27.760  45.275  59.051  0.00  0.00    -0.353 OA
HETATM   26  C   UNK N   1      26.607  44.811  58.446  0.00  0.00     0.210 C 
ENDBRANCH   3  25
BRANCH   4  27
HETATM   27  O   UNK N   1      29.267  47.129  57.754  0.00  0.00    -0.315 OA
BRANCH  27  28
HETATM   28  C   UNK N   1      29.623  48.299  58.416  0.00  0.00     0.298 C 
HETATM   29  O   UNK N   1      30.310  49.211  57.566  0.00  0.00    -0.348 OA
HETATM   30  C   UNK N   1      29.470  49.764  56.560  0.00  0.00     0.179 C 
HETATM   31  C   UNK N   1      28.276  50.537  57.178  0.00  0.00     0.180 C 
HETATM   32  C   UNK N   1      27.466  49.576  58.062  0.00  0.00     0.183 C 
HETATM   33  C   UNK N   1      28.410  48.958  59.102  0.00  0.00     0.205 C 
BRANCH  30  34
HETATM   34  C   UNK N   1      30.325  50.696  55.684  0.00  0.00     0.198 C 
BRANCH  34  35
HETATM   35  O   UNK N   1      31.642  50.782  56.164  0.00  0.00    -0.398 OA
HETATM   36  H   UNK N   1      31.663  51.533  56.813  0.00  0.00     0.209 HD
ENDBRANCH  34  35
ENDBRANCH  30  34
BRANCH  31  37
HETATM   37  O   UNK N   1      27.459  51.058  56.161  0.00  0.00    -0.390 OA
HETATM   38  H   UNK N   1      28.051  51.573  55.553  0.00  0.00     0.210 HD
ENDBRANCH  31  37
BRANCH  32  39
HETATM   39  O   UNK N   1      26.393  50.237  58.686  0.00  0.00    -0.390 OA
HETATM   40  H   UNK N   1      26.047  49.643  59.403  0.00  0.00     0.210 HD
ENDBRANCH  32  39
BRANCH  33  41
HETATM   41  O   UNK N   1      27.739  48.048  59.938  0.00  0.00    -0.388 OA
HETATM   42  H   UNK N   1      27.536  48.512  60.793  0.00  0.00     0.210 HD
ENDBRANCH  33  41
ENDBRANCH  27  28
ENDBRANCH   4  27
TORSDOF 14
ENDMDL
MODEL 3
REMARK VINA RESULT:      -5.7      1.728      3.117
REMARK  14 active torsions:
REMARK  status: ('A' for Active; 'I' for Inactive)
REMARK    1  A    between atoms: C_5  and  C_32 
REMARK    2  A    between atoms: C_6  and  C_7 
REMARK    3  A    between atoms: C_7  and  C_8 
REMARK    4  A    between atoms: C_10  and  O_11 
REMARK    5  A    between atoms: C_13  and  O_14 
REMARK    6  A    between atoms: O_14  and  C_15 
REMARK    7  A    between atoms: C_17  and  C_27 
REMARK    8  A    between atoms: C_18  and  O_19 
REMARK    9  A    between atoms: C_21  and  O_22 
REMARK   10  A    between atoms: C_24  and  O_25 
REMARK   11  A    between atoms: C_27  and  O_28 
REMARK   12  A    between atoms: C_32  and  C_33 
REMARK   13  A    between atoms: C_35  and  O_36 
REMARK   14  A    between atoms: C_38  and  O_39 
ROOT
HETATM    1  C   UNK N   1      31.580  42.904  58.968  0.00  0.00    -0.055 A 
HETATM    2  C   UNK N   1      30.646  41.891  59.236  0.00  0.00     0.046 A 
HETATM    3  C   UNK N   1      29.831  41.376  58.205  0.00  0.00     0.102 A 
HETATM    4  C   UNK N   1      29.967  41.874  56.895  0.00  0.00     0.105 A 
HETATM    5  C   UNK N   1      30.920  42.882  56.635  0.00  0.00     0.040 A 
HETATM    6  C   UNK N   1      31.708  43.394  57.662  0.00  0.00     0.010 A 
ENDROOT
BRANCH   1   7
HETATM    7  C   UNK N   1      32.427  43.485  60.077  0.00  0.00     0.053 C 
BRANCH   7   8
HETATM    8  C   UNK N   1      31.622  44.012  61.285  0.00  0.00     0.096 C 
HETATM    9  C   UNK N   1      32.362  44.243  62.554  0.00  0.00     0.263 C 
HETATM   10  O   UNK N   1      33.076  43.410  63.089  0.00  0.00    -0.265 OA
HETATM   11  O   UNK N   1      31.974  45.362  63.185  0.00  0.00    -0.321 OA
HETATM   12  C   UNK N   1      30.926  45.964  62.525  0.00  0.00     0.184 C 
HETATM   13  C   UNK N   1      31.076  45.444  61.087  0.00  0.00     0.028 C 
BRANCH  13  14
HETATM   14  C   UNK N   1      29.849  45.539  60.165  0.00  0.00     0.046 C 
BRANCH  14  15
HETATM   15  C   UNK N   1      29.884  46.780  59.312  0.00  0.00    -0.055 A 
HETATM   16  C   UNK N   1      29.394  47.995  59.816  0.00  0.00     0.046 A 
HETATM   17  C   UNK N   1      29.419  49.160  59.023  0.00  0.00     0.102 A 
HETATM   18  C   UNK N   1      29.952  49.095  57.725  0.00  0.00     0.101 A 
HETATM   19  C   UNK N   1      30.438  47.881  57.223  0.00  0.00     0.040 A 
HETATM   20  C   UNK N   1      30.399  46.729  58.008  0.00  0.00     0.010 A 
BRANCH  17  21
HETATM   21  O   UNK N   1      28.941  50.352  59.474  0.00  0.00    -0.353 OA
HETATM   22  C   UNK N   1      28.530  50.604  60.767  0.00  0.00     0.210 C 
ENDBRANCH  17  21
BRANCH  18  23
HETATM   23  O   UNK N   1      29.993  50.202  56.954  0.00  0.00    -0.353 OA
HETATM   24  C   UNK N   1      29.181  50.336  55.850  0.00  0.00     0.210 C 
ENDBRANCH  18  23
ENDBRANCH  14  15
ENDBRANCH  13  14
ENDBRANCH   7   8
ENDBRANCH   1   7
BRANCH   3  25
HETATM   25  O   UNK N   1      28.883  40.427  58.446  0.00  0.00    -0.353 OA
HETATM   26  C   UNK N   1      29.130  39.076  58.605  0.00  0.00     0.210 C 
ENDBRANCH   3  25
BRANCH   4  27
HETATM   27  O   UNK N   1      29.141  41.402  55.921  0.00  0.00    -0.315 OA
BRANCH  27  28
HETATM   28  C   UNK N   1      27.991  42.046  55.478  0.00  0.00     0.298 C 
HETATM   29  O   UNK N   1      28.215  42.783  54.281  0.00  0.00    -0.348 OA
HETATM   30  C   UNK N   1      28.455  41.944  53.156  0.00  0.00     0.179 C 
HETATM   31  C   UNK N   1      27.256  40.999  52.887  0.00  0.00     0.180 C 
HETATM   32  C   UNK N   1      27.012  40.138  54.135  0.00  0.00     0.183 C 
HETATM   33  C   UNK N   1      26.808  41.069  55.337  0.00  0.00     0.205 C 
BRANCH  30  34
HETATM   34  C   UNK N   1      28.721  42.845  51.937  0.00  0.00     0.198 C 
BRANCH  34  35
HETATM   35  O   UNK N   1      29.529  42.196  50.989  0.00  0.00    -0.398 OA
HETATM   36  H   UNK N   1      30.329  41.862  51.473  0.00  0.00     0.209 HD
ENDBRANCH  34  35
ENDBRANCH  30  34
BRANCH  31  37
HETATM   37  O   UNK N   1      27.529  40.175  51.781  0.00  0.00    -0.390 OA
HETATM   38  H   UNK N   1      27.522  40.760  50.979  0.00  0.00     0.210 HD
ENDBRANCH  31  37
BRANCH  32  39
HETATM   39  O   UNK N   1      25.903  39.290  53.963  0.00  0.00    -0.390 OA
HETATM   40  H   UNK N   1      25.721  38.847  54.833  0.00  0.00     0.210 HD
ENDBRANCH  32  39
BRANCH  33  41
HETATM   41  O   UNK N   1      26.597  40.347  56.526  0.00  0.00    -0.388 OA
HETATM   42  H   UNK N   1      26.378  40.998  57.243  0.00  0.00     0.210 HD
ENDBRANCH  33  41
ENDBRANCH  27  28
ENDBRANCH   4  27
TORSDOF 14
ENDMDL
MODEL 4
REMARK VINA RESULT:      -5.5     15.212     18.018
REMARK  14 active torsions:
REMARK  status: ('A' for Active; 'I' for Inactive)
REMARK    1  A    between atoms: C_5  and  C_32 
REMARK    2  A    between atoms: C_6  and  C_7 
REMARK    3  A    between atoms: C_7  and  C_8 
REMARK    4  A    between atoms: C_10  and  O_11 
REMARK    5  A    between atoms: C_13  and  O_14 
REMARK    6  A    between atoms: O_14  and  C_15 
REMARK    7  A    between atoms: C_17  and  C_27 
REMARK    8  A    between atoms: C_18  and  O_19 
REMARK    9  A    between atoms: C_21  and  O_22 
REMARK   10  A    between atoms: C_24  and  O_25 
REMARK   11  A    between atoms: C_27  and  O_28 
REMARK   12  A    between atoms: C_32  and  C_33 
REMARK   13  A    between atoms: C_35  and  O_36 
REMARK   14  A    between atoms: C_38  and  O_39 
ROOT
HETATM    1  C   UNK N   1      30.502  54.053  40.352  0.00  0.00    -0.055 A 
HETATM    2  C   UNK N   1      29.610  54.620  39.428  0.00  0.00     0.046 A 
HETATM    3  C   UNK N   1      28.615  53.829  38.814  0.00  0.00     0.102 A 
HETATM    4  C   UNK N   1      28.509  52.465  39.144  0.00  0.00     0.105 A 
HETATM    5  C   UNK N   1      29.402  51.910  40.085  0.00  0.00     0.040 A 
HETATM    6  C   UNK N   1      30.390  52.695  40.672  0.00  0.00     0.010 A 
ENDROOT
BRANCH   1   7
HETATM    7  C   UNK N   1      31.594  54.888  40.981  0.00  0.00     0.053 C 
BRANCH   7   8
HETATM    8  C   UNK N   1      31.325  55.292  42.447  0.00  0.00     0.096 C 
HETATM    9  C   UNK N   1      29.932  55.660  42.813  0.00  0.00     0.263 C 
HETATM   10  O   UNK N   1      29.264  56.486  42.213  0.00  0.00    -0.265 OA
HETATM   11  O   UNK N   1      29.567  55.181  44.013  0.00  0.00    -0.321 OA
HETATM   12  C   UNK N   1      30.617  54.539  44.630  0.00  0.00     0.184 C 
HETATM   13  C   UNK N   1      31.517  54.134  43.452  0.00  0.00     0.028 C 
BRANCH  13  14
HETATM   14  C   UNK N   1      32.983  53.792  43.763  0.00  0.00     0.046 C 
BRANCH  14  15
HETATM   15  C   UNK N   1      33.254  52.316  43.636  0.00  0.00    -0.055 A 
HETATM   16  C   UNK N   1      32.237  51.448  43.211  0.00  0.00     0.046 A 
HETATM   17  C   UNK N   1      32.481  50.064  43.093  0.00  0.00     0.102 A 
HETATM   18  C   UNK N   1      33.758  49.564  43.393  0.00  0.00     0.101 A 
HETATM   19  C   UNK N   1      34.772  50.432  43.820  0.00  0.00     0.040 A 
HETATM   20  C   UNK N   1      34.521  51.799  43.947  0.00  0.00     0.010 A 
BRANCH  17  21
HETATM   21  O   UNK N   1      31.515  49.191  42.696  0.00  0.00    -0.353 OA
HETATM   22  C   UNK N   1      31.184  48.916  41.385  0.00  0.00     0.210 C 
ENDBRANCH  17  21
BRANCH  18  23
HETATM   23  O   UNK N   1      34.013  48.244  43.277  0.00  0.00    -0.353 OA
HETATM   24  C   UNK N   1      35.291  47.777  43.064  0.00  0.00     0.210 C 
ENDBRANCH  18  23
ENDBRANCH  14  15
ENDBRANCH  13  14
ENDBRANCH   7   8
ENDBRANCH   1   7
BRANCH   3  25
HETATM   25  O   UNK N   1      27.767  54.342  37.878  0.00  0.00    -0.353 OA
HETATM   26  C   UNK N   1      27.009  55.487  38.033  0.00  0.00     0.210 C 
ENDBRANCH   3  25
BRANCH   4  27
HETATM   27  O   UNK N   1      27.576  51.704  38.508  0.00  0.00    -0.315 OA
BRANCH  27  28
HETATM   28  C   UNK N   1      26.201  51.856  38.646  0.00  0.00     0.298 C 
HETATM   29  O   UNK N   1      25.478  51.148  37.645  0.00  0.00    -0.348 OA
HETATM   30  C   UNK N   1      25.567  49.736  37.798  0.00  0.00     0.179 C 
HETATM   31  C   UNK N   1      25.008  49.277  39.169  0.00  0.00     0.180 C 
HETATM   32  C   UNK N   1      25.799  49.972  40.287  0.00  0.00     0.183 C 
HETATM   33  C   UNK N   1      25.726  51.489  40.065  0.00  0.00     0.205 C 
BRANCH  30  34
HETATM   34  C   UNK N   1      24.786  49.081  36.646  0.00  0.00     0.198 C 
BRANCH  34  35
HETATM   35  O   UNK N   1      25.288  47.803  36.350  0.00  0.00    -0.398 OA
HETATM   36  H   UNK N   1      24.701  47.149  36.811  0.00  0.00     0.209 HD
ENDBRANCH  34  35
ENDBRANCH  30  34
BRANCH  31  37
HETATM   37  O   UNK N   1      25.123  47.882  39.296  0.00  0.00    -0.390 OA
HETATM   38  H   UNK N   1      24.247  47.551  39.630  0.00  0.00     0.210 HD
ENDBRANCH  31  37
BRANCH  32  39
HETATM   39  O   UNK N   1      25.303  49.627  41.557  0.00  0.00    -0.390 OA
HETATM   40  H   UNK N   1      24.897  48.723  41.489  0.00  0.00     0.210 HD
ENDBRANCH  32  39
BRANCH  33  41
HETATM   41  O   UNK N   1      26.448  52.194  41.044  0.00  0.00    -0.388 OA
HETATM   42  H   UNK N   1      26.190  51.833  41.933  0.00  0.00     0.210 HD
ENDBRANCH  33  41
ENDBRANCH  27  28
ENDBRANCH   4  27
TORSDOF 14
ENDMDL
MODEL 5
REMARK VINA RESULT:      -5.5      3.114      5.236
REMARK  14 active torsions:
REMARK  status: ('A' for Active; 'I' for Inactive)
REMARK    1  A    between atoms: C_5  and  C_32 
REMARK    2  A    between atoms: C_6  and  C_7 
REMARK    3  A    between atoms: C_7  and  C_8 
REMARK    4  A    between atoms: C_10  and  O_11 
REMARK    5  A    between atoms: C_13  and  O_14 
REMARK    6  A    between atoms: O_14  and  C_15 
REMARK    7  A    between atoms: C_17  and  C_27 
REMARK    8  A    between atoms: C_18  and  O_19 
REMARK    9  A    between atoms: C_21  and  O_22 
REMARK   10  A    between atoms: C_24  and  O_25 
REMARK   11  A    between atoms: C_27  and  O_28 
REMARK   12  A    between atoms: C_32  and  C_33 
REMARK   13  A    between atoms: C_35  and  O_36 
REMARK   14  A    between atoms: C_38  and  O_39 
ROOT
HETATM    1  C   UNK N   1      28.904  38.923  55.363  0.00  0.00    -0.055 A 
HETATM    2  C   UNK N   1      29.019  40.201  54.793  0.00  0.00     0.046 A 
HETATM    3  C   UNK N   1      28.273  40.544  53.645  0.00  0.00     0.102 A 
HETATM    4  C   UNK N   1      27.396  39.600  53.078  0.00  0.00     0.105 A 
HETATM    5  C   UNK N   1      27.277  38.324  53.668  0.00  0.00     0.040 A 
HETATM    6  C   UNK N   1      28.030  37.990  54.791  0.00  0.00     0.010 A 
ENDROOT
BRANCH   1   7
HETATM    7  C   UNK N   1      29.731  38.539  56.569  0.00  0.00     0.053 C 
BRANCH   7   8
HETATM    8  C   UNK N   1      28.917  37.949  57.741  0.00  0.00     0.096 C 
HETATM    9  C   UNK N   1      29.268  36.580  58.199  0.00  0.00     0.263 C 
HETATM   10  O   UNK N   1      29.355  35.613  57.460  0.00  0.00    -0.265 OA
HETATM   11  O   UNK N   1      29.237  36.457  59.536  0.00  0.00    -0.321 OA
HETATM   12  C   UNK N   1      28.804  37.621  60.130  0.00  0.00     0.184 C 
HETATM   13  C   UNK N   1      29.134  38.691  59.078  0.00  0.00     0.028 C 
BRANCH  13  14
HETATM   14  C   UNK N   1      28.406  40.041  59.188  0.00  0.00     0.046 C 
BRANCH  14  15
HETATM   15  C   UNK N   1      29.278  41.186  58.745  0.00  0.00    -0.055 A 
HETATM   16  C   UNK N   1      30.588  41.303  59.234  0.00  0.00     0.046 A 
HETATM   17  C   UNK N   1      31.411  42.374  58.827  0.00  0.00     0.102 A 
HETATM   18  C   UNK N   1      30.908  43.317  57.917  0.00  0.00     0.101 A 
HETATM   19  C   UNK N   1      29.599  43.201  57.431  0.00  0.00     0.040 A 
HETATM   20  C   UNK N   1      28.786  42.145  57.847  0.00  0.00     0.010 A 
BRANCH  17  21
HETATM   21  O   UNK N   1      32.682  42.525  59.291  0.00  0.00    -0.353 OA
HETATM   22  C   UNK N   1      33.055  42.465  60.618  0.00  0.00     0.210 C 
ENDBRANCH  17  21
BRANCH  18  23
HETATM   23  O   UNK N   1      31.684  44.344  57.509  0.00  0.00    -0.353 OA
HETATM   24  C   UNK N   1      31.242  45.646  57.578  0.00  0.00     0.210 C 
ENDBRANCH  18  23
ENDBRANCH  14  15
ENDBRANCH  13  14
ENDBRANCH   7   8
ENDBRANCH   1   7
BRANCH   3  25
HETATM   25  O   UNK N   1      28.401  41.759  53.042  0.00  0.00    -0.353 OA
HETATM   26  C   UNK N   1      29.555  42.235  52.447  0.00  0.00     0.210 C 
ENDBRANCH   3  25
BRANCH   4  27
HETATM   27  O   UNK N   1      26.719  39.929  51.942  0.00  0.00    -0.315 OA
BRANCH  27  28
HETATM   28  C   UNK N   1      25.400  40.365  51.904  0.00  0.00     0.298 C 
HETATM   29  O   UNK N   1      25.278  41.740  52.252  0.00  0.00    -0.348 OA
HETATM   30  C   UNK N   1      25.833  42.607  51.269  0.00  0.00     0.179 C 
HETATM   31  C   UNK N   1      25.139  42.425  49.894  0.00  0.00     0.180 C 
HETATM   32  C   UNK N   1      25.295  40.964  49.447  0.00  0.00     0.183 C 
HETATM   33  C   UNK N   1      24.735  40.055  50.550  0.00  0.00     0.205 C 
BRANCH  30  34
HETATM   34  C   UNK N   1      25.680  44.054  51.768  0.00  0.00     0.198 C 
BRANCH  34  35
HETATM   35  O   UNK N   1      26.752  44.425  52.596  0.00  0.00    -0.398 OA
HETATM   36  H   UNK N   1      26.365  44.933  53.356  0.00  0.00     0.209 HD
ENDBRANCH  34  35
ENDBRANCH  30  34
BRANCH  31  37
HETATM   37  O   UNK N   1      25.718  43.282  48.943  0.00  0.00    -0.390 OA
HETATM   38  H   UNK N   1      25.401  42.977  48.052  0.00  0.00     0.210 HD
ENDBRANCH  31  37
BRANCH  32  39
HETATM   39  O   UNK N   1      24.643  40.730  48.223  0.00  0.00    -0.390 OA
HETATM   40  H   UNK N   1      24.336  41.606  47.871  0.00  0.00     0.210 HD
ENDBRANCH  32  39
BRANCH  33  41
HETATM   41  O   UNK N   1      24.862  38.694  50.217  0.00  0.00    -0.388 OA
HETATM   42  H   UNK N   1      24.231  38.501  49.475  0.00  0.00     0.210 HD
ENDBRANCH  33  41
ENDBRANCH  27  28
ENDBRANCH   4  27
TORSDOF 14
ENDMDL
MODEL 6
REMARK VINA RESULT:      -5.5     13.729     17.342
REMARK  14 active torsions:
REMARK  status: ('A' for Active; 'I' for Inactive)
REMARK    1  A    between atoms: C_5  and  C_32 
REMARK    2  A    between atoms: C_6  and  C_7 
REMARK    3  A    between atoms: C_7  and  C_8 
REMARK    4  A    between atoms: C_10  and  O_11 
REMARK    5  A    between atoms: C_13  and  O_14 
REMARK    6  A    between atoms: O_14  and  C_15 
REMARK    7  A    between atoms: C_17  and  C_27 
REMARK    8  A    between atoms: C_18  and  O_19 
REMARK    9  A    between atoms: C_21  and  O_22 
REMARK   10  A    between atoms: C_24  and  O_25 
REMARK   11  A    between atoms: C_27  and  O_28 
REMARK   12  A    between atoms: C_32  and  C_33 
REMARK   13  A    between atoms: C_35  and  O_36 
REMARK   14  A    between atoms: C_38  and  O_39 
ROOT
HETATM    1  C   UNK N   1      36.241  49.773  43.038  0.00  0.00    -0.055 A 
HETATM    2  C   UNK N   1      37.343  50.509  43.502  0.00  0.00     0.046 A 
HETATM    3  C   UNK N   1      38.444  49.854  44.094  0.00  0.00     0.102 A 
HETATM    4  C   UNK N   1      38.442  48.451  44.207  0.00  0.00     0.105 A 
HETATM    5  C   UNK N   1      37.335  47.721  43.723  0.00  0.00     0.040 A 
HETATM    6  C   UNK N   1      36.247  48.377  43.156  0.00  0.00     0.010 A 
ENDROOT
BRANCH   1   7
HETATM    7  C   UNK N   1      35.043  50.473  42.439  0.00  0.00     0.053 C 
BRANCH   7   8
HETATM    8  C   UNK N   1      33.811  50.539  43.368  0.00  0.00     0.096 C 
HETATM    9  C   UNK N   1      33.895  51.427  44.557  0.00  0.00     0.263 C 
HETATM   10  O   UNK N   1      34.804  51.395  45.370  0.00  0.00    -0.265 OA
HETATM   11  O   UNK N   1      32.753  52.095  44.788  0.00  0.00    -0.321 OA
HETATM   12  C   UNK N   1      31.770  51.715  43.901  0.00  0.00     0.184 C 
HETATM   13  C   UNK N   1      32.571  51.178  42.705  0.00  0.00     0.028 C 
BRANCH  13  14
HETATM   14  C   UNK N   1      31.834  50.265  41.711  0.00  0.00     0.046 C 
BRANCH  14  15
HETATM   15  C   UNK N   1      30.816  51.024  40.900  0.00  0.00    -0.055 A 
HETATM   16  C   UNK N   1      29.508  50.533  40.776  0.00  0.00     0.046 A 
HETATM   17  C   UNK N   1      28.549  51.235  40.016  0.00  0.00     0.102 A 
HETATM   18  C   UNK N   1      28.916  52.439  39.393  0.00  0.00     0.101 A 
HETATM   19  C   UNK N   1      30.224  52.926  39.516  0.00  0.00     0.040 A 
HETATM   20  C   UNK N   1      31.171  52.221  40.260  0.00  0.00     0.010 A 
BRANCH  17  21
HETATM   21  O   UNK N   1      27.275  50.783  39.863  0.00  0.00    -0.353 OA
HETATM   22  C   UNK N   1      26.310  50.781  40.850  0.00  0.00     0.210 C 
ENDBRANCH  17  21
BRANCH  18  23
HETATM   23  O   UNK N   1      28.011  53.130  38.669  0.00  0.00    -0.353 OA
HETATM   24  C   UNK N   1      27.430  54.280  39.156  0.00  0.00     0.210 C 
ENDBRANCH  18  23
ENDBRANCH  14  15
ENDBRANCH  13  14
ENDBRANCH   7   8
ENDBRANCH   1   7
BRANCH   3  25
HETATM   25  O   UNK N   1      39.505  50.547  44.597  0.00  0.00    -0.353 OA
HETATM   26  C   UNK N   1      40.387  51.305  43.850  0.00  0.00     0.210 C 
ENDBRANCH   3  25
BRANCH   4  27
HETATM   27  O   UNK N   1      39.489  47.838  44.824  0.00  0.00    -0.315 OA
BRANCH  27  28
HETATM   28  C   UNK N   1      39.797  47.964  46.174  0.00  0.00     0.298 C 
HETATM   29  O   UNK N   1      38.945  47.176  46.997  0.00  0.00    -0.348 OA
HETATM   30  C   UNK N   1      39.169  45.779  46.841  0.00  0.00     0.179 C 
HETATM   31  C   UNK N   1      40.626  45.394  47.203  0.00  0.00     0.180 C 
HETATM   32  C   UNK N   1      41.587  46.179  46.297  0.00  0.00     0.183 C 
HETATM   33  C   UNK N   1      41.286  47.676  46.449  0.00  0.00     0.205 C 
BRANCH  30  34
HETATM   34  C   UNK N   1      38.170  45.033  47.743  0.00  0.00     0.198 C 
BRANCH  34  35
HETATM   35  O   UNK N   1      38.713  44.790  49.016  0.00  0.00    -0.398 OA
HETATM   36  H   UNK N   1      39.585  44.336  48.875  0.00  0.00     0.209 HD
ENDBRANCH  34  35
ENDBRANCH  30  34
BRANCH  31  37
HETATM   37  O   UNK N   1      40.821  44.014  47.026  0.00  0.00    -0.390 OA
HETATM   38  H   UNK N   1      40.483  43.569  47.848  0.00  0.00     0.210 HD
ENDBRANCH  31  37
BRANCH  32  39
HETATM   39  O   UNK N   1      42.930  45.902  46.613  0.00  0.00    -0.390 OA
HETATM   40  H   UNK N   1      43.135  46.344  47.479  0.00  0.00     0.210 HD
ENDBRANCH  32  39
BRANCH  33  41
HETATM   41  O   UNK N   1      42.118  48.460  45.629  0.00  0.00    -0.388 OA
HETATM   42  H   UNK N   1      43.058  48.306  45.913  0.00  0.00     0.210 HD
ENDBRANCH  33  41
ENDBRANCH  27  28
ENDBRANCH   4  27
TORSDOF 14
ENDMDL
MODEL 7
REMARK VINA RESULT:      -5.4      4.883      8.141
REMARK  14 active torsions:
REMARK  status: ('A' for Active; 'I' for Inactive)
REMARK    1  A    between atoms: C_5  and  C_32 
REMARK    2  A    between atoms: C_6  and  C_7 
REMARK    3  A    between atoms: C_7  and  C_8 
REMARK    4  A    between atoms: C_10  and  O_11 
REMARK    5  A    between atoms: C_13  and  O_14 
REMARK    6  A    between atoms: O_14  and  C_15 
REMARK    7  A    between atoms: C_17  and  C_27 
REMARK    8  A    between atoms: C_18  and  O_19 
REMARK    9  A    between atoms: C_21  and  O_22 
REMARK   10  A    between atoms: C_24  and  O_25 
REMARK   11  A    between atoms: C_27  and  O_28 
REMARK   12  A    between atoms: C_32  and  C_33 
REMARK   13  A    between atoms: C_35  and  O_36 
REMARK   14  A    between atoms: C_38  and  O_39 
ROOT
HETATM    1  C   UNK N   1      30.192  44.371  61.082  0.00  0.00    -0.055 A 
HETATM    2  C   UNK N   1      29.377  44.266  59.944  0.00  0.00     0.046 A 
HETATM    3  C   UNK N   1      28.963  45.422  59.249  0.00  0.00     0.102 A 
HETATM    4  C   UNK N   1      29.385  46.689  59.693  0.00  0.00     0.105 A 
HETATM    5  C   UNK N   1      30.217  46.782  60.829  0.00  0.00     0.040 A 
HETATM    6  C   UNK N   1      30.606  45.636  61.517  0.00  0.00     0.010 A 
ENDROOT
BRANCH   1   7
HETATM    7  C   UNK N   1      30.605  43.137  61.852  0.00  0.00     0.053 C 
BRANCH   7   8
HETATM    8  C   UNK N   1      31.913  42.482  61.357  0.00  0.00     0.096 C 
HETATM    9  C   UNK N   1      31.973  42.063  59.932  0.00  0.00     0.263 C 
HETATM   10  O   UNK N   1      31.136  41.358  59.392  0.00  0.00    -0.265 OA
HETATM   11  O   UNK N   1      33.161  42.323  59.364  0.00  0.00    -0.321 OA
HETATM   12  C   UNK N   1      34.046  42.842  60.283  0.00  0.00     0.184 C 
HETATM   13  C   UNK N   1      33.121  43.444  61.353  0.00  0.00     0.028 C 
BRANCH  13  14
HETATM   14  C   UNK N   1      33.726  43.719  62.740  0.00  0.00     0.046 C 
BRANCH  14  15
HETATM   15  C   UNK N   1      34.679  44.885  62.715  0.00  0.00    -0.055 A 
HETATM   16  C   UNK N   1      34.273  46.135  63.206  0.00  0.00     0.046 A 
HETATM   17  C   UNK N   1      35.158  47.234  63.183  0.00  0.00     0.102 A 
HETATM   18  C   UNK N   1      36.456  47.059  62.676  0.00  0.00     0.101 A 
HETATM   19  C   UNK N   1      36.858  45.811  62.184  0.00  0.00     0.040 A 
HETATM   20  C   UNK N   1      35.974  44.731  62.198  0.00  0.00     0.010 A 
BRANCH  17  21
HETATM   21  O   UNK N   1      34.795  48.464  63.639  0.00  0.00    -0.353 OA
HETATM   22  C   UNK N   1      34.517  48.773  64.954  0.00  0.00     0.210 C 
ENDBRANCH  17  21
BRANCH  18  23
HETATM   23  O   UNK N   1      37.319  48.096  62.654  0.00  0.00    -0.353 OA
HETATM   24  C   UNK N   1      38.525  48.038  63.316  0.00  0.00     0.210 C 
ENDBRANCH  18  23
ENDBRANCH  14  15
ENDBRANCH  13  14
ENDBRANCH   7   8
ENDBRANCH   1   7
BRANCH   3  25
HETATM   25  O   UNK N   1      28.132  45.353  58.171  0.00  0.00    -0.353 OA
HETATM   26  C   UNK N   1      27.122  44.423  58.003  0.00  0.00     0.210 C 
ENDBRANCH   3  25
BRANCH   4  27
HETATM   27  O   UNK N   1      28.938  47.799  59.041  0.00  0.00    -0.315 OA
BRANCH  27  28
HETATM   28  C   UNK N   1      29.423  49.086  59.244  0.00  0.00     0.298 C 
HETATM   29  O   UNK N   1      30.402  49.451  58.278  0.00  0.00    -0.348 OA
HETATM   30  C   UNK N   1      29.853  49.617  56.975  0.00  0.00     0.179 C 
HETATM   31  C   UNK N   1      28.764  50.721  56.954  0.00  0.00     0.180 C 
HETATM   32  C   UNK N   1      27.652  50.341  57.943  0.00  0.00     0.183 C 
HETATM   33  C   UNK N   1      28.283  50.119  59.325  0.00  0.00     0.205 C 
BRANCH  30  34
HETATM   34  C   UNK N   1      31.002  49.969  56.014  0.00  0.00     0.198 C 
BRANCH  34  35
HETATM   35  O   UNK N   1      31.233  51.353  55.980  0.00  0.00    -0.398 OA
HETATM   36  H   UNK N   1      31.403  51.593  55.032  0.00  0.00     0.209 HD
ENDBRANCH  34  35
ENDBRANCH  30  34
BRANCH  31  37
HETATM   37  O   UNK N   1      28.232  50.851  55.660  0.00  0.00    -0.390 OA
HETATM   38  H   UNK N   1      28.662  51.648  55.252  0.00  0.00     0.210 HD
ENDBRANCH  31  37
BRANCH  32  39
HETATM   39  O   UNK N   1      26.656  51.333  57.999  0.00  0.00    -0.390 OA
HETATM   40  H   UNK N   1      27.087  52.180  58.286  0.00  0.00     0.210 HD
ENDBRANCH  32  39
BRANCH  33  41
HETATM   41  O   UNK N   1      27.322  49.747  60.282  0.00  0.00    -0.388 OA
HETATM   42  H   UNK N   1      27.420  48.773  60.449  0.00  0.00     0.210 HD
ENDBRANCH  33  41
ENDBRANCH  27  28
ENDBRANCH   4  27
TORSDOF 14
ENDMDL
MODEL 8
REMARK VINA RESULT:      -5.3      4.877      7.742
REMARK  14 active torsions:
REMARK  status: ('A' for Active; 'I' for Inactive)
REMARK    1  A    between atoms: C_5  and  C_32 
REMARK    2  A    between atoms: C_6  and  C_7 
REMARK    3  A    between atoms: C_7  and  C_8 
REMARK    4  A    between atoms: C_10  and  O_11 
REMARK    5  A    between atoms: C_13  and  O_14 
REMARK    6  A    between atoms: O_14  and  C_15 
REMARK    7  A    between atoms: C_17  and  C_27 
REMARK    8  A    between atoms: C_18  and  O_19 
REMARK    9  A    between atoms: C_21  and  O_22 
REMARK   10  A    between atoms: C_24  and  O_25 
REMARK   11  A    between atoms: C_27  and  O_28 
REMARK   12  A    between atoms: C_32  and  C_33 
REMARK   13  A    between atoms: C_35  and  O_36 
REMARK   14  A    between atoms: C_38  and  O_39 
ROOT
HETATM    1  C   UNK N   1      30.875  45.074  58.673  0.00  0.00    -0.055 A 
HETATM    2  C   UNK N   1      29.967  45.449  59.676  0.00  0.00     0.046 A 
HETATM    3  C   UNK N   1      29.303  46.693  59.613  0.00  0.00     0.102 A 
HETATM    4  C   UNK N   1      29.545  47.557  58.529  0.00  0.00     0.105 A 
HETATM    5  C   UNK N   1      30.449  47.162  57.519  0.00  0.00     0.040 A 
HETATM    6  C   UNK N   1      31.110  45.940  57.599  0.00  0.00     0.010 A 
ENDROOT
BRANCH   1   7
HETATM    7  C   UNK N   1      31.617  43.759  58.757  0.00  0.00     0.053 C 
BRANCH   7   8
HETATM    8  C   UNK N   1      30.908  42.679  59.603  0.00  0.00     0.096 C 
HETATM    9  C   UNK N   1      30.608  41.380  58.945  0.00  0.00     0.263 C 
HETATM   10  O   UNK N   1      30.019  41.274  57.882  0.00  0.00    -0.265 OA
HETATM   11  O   UNK N   1      30.825  40.328  59.751  0.00  0.00    -0.321 OA
HETATM   12  C   UNK N   1      31.193  40.739  61.012  0.00  0.00     0.184 C 
HETATM   13  C   UNK N   1      31.771  42.141  60.766  0.00  0.00     0.028 C 
BRANCH  13  14
HETATM   14  C   UNK N   1      31.879  43.086  61.974  0.00  0.00     0.046 C 
BRANCH  14  15
HETATM   15  C   UNK N   1      33.238  43.728  62.065  0.00  0.00    -0.055 A 
HETATM   16  C   UNK N   1      33.491  44.705  63.040  0.00  0.00     0.046 A 
HETATM   17  C   UNK N   1      34.759  45.315  63.129  0.00  0.00     0.102 A 
HETATM   18  C   UNK N   1      35.772  44.924  62.239  0.00  0.00     0.101 A 
HETATM   19  C   UNK N   1      35.517  43.950  61.264  0.00  0.00     0.040 A 
HETATM   20  C   UNK N   1      34.256  43.360  61.173  0.00  0.00     0.010 A 
BRANCH  17  21
HETATM   21  O   UNK N   1      35.037  46.274  64.054  0.00  0.00    -0.353 OA
HETATM   22  C   UNK N   1      34.156  47.250  64.473  0.00  0.00     0.210 C 
ENDBRANCH  17  21
BRANCH  18  23
HETATM   23  O   UNK N   1      36.996  45.489  62.315  0.00  0.00    -0.353 OA
HETATM   24  C   UNK N   1      37.989  44.946  63.098  0.00  0.00     0.210 C 
ENDBRANCH  18  23
ENDBRANCH  14  15
ENDBRANCH  13  14
ENDBRANCH   7   8
ENDBRANCH   1   7
BRANCH   3  25
HETATM   25  O   UNK N   1      28.454  47.103  60.597  0.00  0.00    -0.353 OA
HETATM   26  C   UNK N   1      27.365  46.388  61.059  0.00  0.00     0.210 C 
ENDBRANCH   3  25
BRANCH   4  27
HETATM   27  O   UNK N   1      28.935  48.774  58.507  0.00  0.00    -0.315 OA
BRANCH  27  28
HETATM   28  C   UNK N   1      28.332  49.338  57.388  0.00  0.00     0.298 C 
HETATM   29  O   UNK N   1      27.191  48.602  56.963  0.00  0.00    -0.348 OA
HETATM   30  C   UNK N   1      26.105  48.695  57.879  0.00  0.00     0.179 C 
HETATM   31  C   UNK N   1      25.649  50.165  58.071  0.00  0.00     0.180 C 
HETATM   32  C   UNK N   1      26.836  50.991  58.587  0.00  0.00     0.183 C 
HETATM   33  C   UNK N   1      28.006  50.828  57.607  0.00  0.00     0.205 C 
BRANCH  30  34
HETATM   34  C   UNK N   1      24.950  47.834  57.337  0.00  0.00     0.198 C 
BRANCH  34  35
HETATM   35  O   UNK N   1      25.396  46.556  56.967  0.00  0.00    -0.398 OA
HETATM   36  H   UNK N   1      25.428  46.011  57.796  0.00  0.00     0.209 HD
ENDBRANCH  34  35
ENDBRANCH  30  34
BRANCH  31  37
HETATM   37  O   UNK N   1      24.587  50.225  58.989  0.00  0.00    -0.390 OA
HETATM   38  H   UNK N   1      23.761  50.390  58.463  0.00  0.00     0.210 HD
ENDBRANCH  31  37
BRANCH  32  39
HETATM   39  O   UNK N   1      26.491  52.346  58.738  0.00  0.00    -0.390 OA
HETATM   40  H   UNK N   1      26.866  52.660  59.602  0.00  0.00     0.210 HD
ENDBRANCH  32  39
BRANCH  33  41
HETATM   41  O   UNK N   1      29.141  51.544  58.027  0.00  0.00    -0.388 OA
HETATM   42  H   UNK N   1      28.853  52.468  58.253  0.00  0.00     0.210 HD
ENDBRANCH  33  41
ENDBRANCH  27  28
ENDBRANCH   4  27
TORSDOF 14
ENDMDL
MODEL 9
REMARK VINA RESULT:      -5.3     18.160     21.286
REMARK  14 active torsions:
REMARK  status: ('A' for Active; 'I' for Inactive)
REMARK    1  A    between atoms: C_5  and  C_32 
REMARK    2  A    between atoms: C_6  and  C_7 
REMARK    3  A    between atoms: C_7  and  C_8 
REMARK    4  A    between atoms: C_10  and  O_11 
REMARK    5  A    between atoms: C_13  and  O_14 
REMARK    6  A    between atoms: O_14  and  C_15 
REMARK    7  A    between atoms: C_17  and  C_27 
REMARK    8  A    between atoms: C_18  and  O_19 
REMARK    9  A    between atoms: C_21  and  O_22 
REMARK   10  A    between atoms: C_24  and  O_25 
REMARK   11  A    between atoms: C_27  and  O_28 
REMARK   12  A    between atoms: C_32  and  C_33 
REMARK   13  A    between atoms: C_35  and  O_36 
REMARK   14  A    between atoms: C_38  and  O_39 
ROOT
HETATM    1  C   UNK N   1      45.785  53.971  63.389  0.00  0.00    -0.055 A 
HETATM    2  C   UNK N   1      45.510  54.933  62.404  0.00  0.00     0.046 A 
HETATM    3  C   UNK N   1      46.160  54.883  61.152  0.00  0.00     0.102 A 
HETATM    4  C   UNK N   1      47.080  53.852  60.886  0.00  0.00     0.105 A 
HETATM    5  C   UNK N   1      47.337  52.882  61.878  0.00  0.00     0.040 A 
HETATM    6  C   UNK N   1      46.703  52.950  63.116  0.00  0.00     0.010 A 
ENDROOT
BRANCH   1   7
HETATM    7  C   UNK N   1      45.120  54.045  64.745  0.00  0.00     0.053 C 
BRANCH   7   8
HETATM    8  C   UNK N   1      43.579  54.130  64.697  0.00  0.00     0.096 C 
HETATM    9  C   UNK N   1      42.978  55.400  64.212  0.00  0.00     0.263 C 
HETATM   10  O   UNK N   1      43.263  56.502  64.651  0.00  0.00    -0.265 OA
HETATM   11  O   UNK N   1      41.911  55.200  63.422  0.00  0.00    -0.321 OA
HETATM   12  C   UNK N   1      41.604  53.861  63.334  0.00  0.00     0.184 C 
HETATM   13  C   UNK N   1      42.940  53.176  63.664  0.00  0.00     0.028 C 
BRANCH  13  14
HETATM   14  C   UNK N   1      42.893  51.701  64.096  0.00  0.00     0.046 C 
BRANCH  14  15
HETATM   15  C   UNK N   1      43.887  50.862  63.336  0.00  0.00    -0.055 A 
HETATM   16  C   UNK N   1      44.833  50.092  64.029  0.00  0.00     0.046 A 
HETATM   17  C   UNK N   1      45.769  49.307  63.325  0.00  0.00     0.102 A 
HETATM   18  C   UNK N   1      45.736  49.293  61.922  0.00  0.00     0.101 A 
HETATM   19  C   UNK N   1      44.792  50.064  61.231  0.00  0.00     0.040 A 
HETATM   20  C   UNK N   1      43.876  50.849  61.933  0.00  0.00     0.010 A 
BRANCH  17  21
HETATM   21  O   UNK N   1      46.710  48.558  63.964  0.00  0.00    -0.353 OA
HETATM   22  C   UNK N   1      47.593  49.032  64.911  0.00  0.00     0.210 C 
ENDBRANCH  17  21
BRANCH  18  23
HETATM   23  O   UNK N   1      46.618  48.541  61.231  0.00  0.00    -0.353 OA
HETATM   24  C   UNK N   1      46.695  48.606  59.858  0.00  0.00     0.210 C 
ENDBRANCH  18  23
ENDBRANCH  14  15
ENDBRANCH  13  14
ENDBRANCH   7   8
ENDBRANCH   1   7
BRANCH   3  25
HETATM   25  O   UNK N   1      45.949  55.831  60.195  0.00  0.00    -0.353 OA
HETATM   26  C   UNK N   1      44.914  56.748  60.198  0.00  0.00     0.210 C 
ENDBRANCH   3  25
BRANCH   4  27
HETATM   27  O   UNK N   1      47.736  53.845  59.692  0.00  0.00    -0.315 OA
BRANCH  27  28
HETATM   28  C   UNK N   1      48.988  54.408  59.473  0.00  0.00     0.298 C 
HETATM   29  O   UNK N   1      50.036  53.453  59.598  0.00  0.00    -0.348 OA
HETATM   30  C   UNK N   1      50.031  52.491  58.548  0.00  0.00     0.179 C 
HETATM   31  C   UNK N   1      50.196  53.164  57.161  0.00  0.00     0.180 C 
HETATM   32  C   UNK N   1      49.049  54.165  56.954  0.00  0.00     0.183 C 
HETATM   33  C   UNK N   1      49.050  55.155  58.127  0.00  0.00     0.205 C 
BRANCH  30  34
HETATM   34  C   UNK N   1      51.175  51.496  58.808  0.00  0.00     0.198 C 
BRANCH  34  35
HETATM   35  O   UNK N   1      50.873  50.225  58.292  0.00  0.00    -0.398 OA
HETATM   36  H   UNK N   1      50.559  50.360  57.360  0.00  0.00     0.209 HD
ENDBRANCH  34  35
ENDBRANCH  30  34
BRANCH  31  37
HETATM   37  O   UNK N   1      50.172  52.192  56.146  0.00  0.00    -0.390 OA
HETATM   38  H   UNK N   1      50.771  52.517  55.424  0.00  0.00     0.210 HD
ENDBRANCH  31  37
BRANCH  32  39
HETATM   39  O   UNK N   1      49.173  54.840  55.727  0.00  0.00    -0.390 OA
HETATM   40  H   UNK N   1      49.445  55.775  55.921  0.00  0.00     0.210 HD
ENDBRANCH  32  39
BRANCH  33  41
HETATM   41  O   UNK N   1      48.009  56.095  58.016  0.00  0.00    -0.388 OA
HETATM   42  H   UNK N   1      48.361  56.882  57.523  0.00  0.00     0.210 HD
ENDBRANCH  33  41
ENDBRANCH  27  28
ENDBRANCH   4  27
TORSDOF 14
ENDMDL
