MODEL 1
REMARK VINA RESULT:      -7.4      0.000      0.000
REMARK  9 active torsions:
REMARK  status: ('A' for Active; 'I' for Inactive)
REMARK    1  A    between atoms: O_1  and  C_2 
REMARK    2  A    between atoms: C_3  and  O_4 
REMARK    3  A    between atoms: C_8  and  C_10 
REMARK    4  A    between atoms: C_14  and  O_15 
REMARK    5  A    between atoms: C_17  and  O_19 
REMARK    6  A    between atoms: C_22  and  C_23 
REMARK    7  A    between atoms: C_23  and  O_24 
REMARK    8  A    between atoms: C_26  and  C_27 
REMARK    9  A    between atoms: C_27  and  O_28 
ROOT
HETATM    1  C   UNK N   1      40.191  44.681  48.053  0.00  0.00     0.059 C 
HETATM    2  C   UNK N   1      41.120  44.009  47.049  0.00  0.00    -0.040 A 
HETATM    3  C   UNK N   1      41.421  44.612  45.810  0.00  0.00    -0.048 A 
HETATM    4  C   UNK N   1      42.298  43.979  44.920  0.00  0.00     0.047 A 
HETATM    5  C   UNK N   1      42.866  42.729  45.231  0.00  0.00     0.101 A 
HETATM    6  C   UNK N   1      42.546  42.116  46.456  0.00  0.00     0.099 A 
HETATM    7  C   UNK N   1      41.678  42.753  47.351  0.00  0.00     0.047 A 
HETATM    8  C   UNK N   1      40.794  45.913  45.395  0.00  0.00     0.046 C 
HETATM    9  C   UNK N   1      39.486  46.222  46.154  0.00  0.00     0.020 C 
HETATM   10  C   UNK N   1      39.776  46.143  47.675  0.00  0.00     0.028 C 
ENDROOT
BRANCH   1  11
HETATM   11  C   UNK N   1      40.827  44.692  49.439  0.00  0.00    -0.046 A 
HETATM   12  C   UNK N   1      41.791  45.656  49.783  0.00  0.00     0.011 A 
HETATM   13  C   UNK N   1      42.354  45.666  51.060  0.00  0.00     0.040 A 
HETATM   14  C   UNK N   1      41.965  44.721  52.015  0.00  0.00     0.099 A 
HETATM   15  C   UNK N   1      41.002  43.746  51.687  0.00  0.00     0.101 A 
HETATM   16  C   UNK N   1      40.442  43.738  50.392  0.00  0.00     0.047 A 
BRANCH  14  17
HETATM   17  O   UNK N   1      42.524  44.765  53.243  0.00  0.00    -0.358 OA
HETATM   18  H   UNK N   1      43.457  44.982  53.382  0.00  0.00     0.218 HD
ENDBRANCH  14  17
BRANCH  15  19
HETATM   19  O   UNK N   1      40.631  42.838  52.632  0.00  0.00    -0.353 OA
HETATM   20  C   UNK N   1      39.447  42.873  53.340  0.00  0.00     0.210 C 
ENDBRANCH  15  19
ENDBRANCH   1  11
BRANCH  10  21
HETATM   21  C   UNK N   1      38.579  46.580  48.561  0.00  0.00     0.170 C 
BRANCH  21  22
HETATM   22  O   UNK N   1      37.779  45.479  48.893  0.00  0.00    -0.400 OA
HETATM   23  H   UNK N   1      38.170  45.089  49.719  0.00  0.00     0.209 HD
ENDBRANCH  21  22
ENDBRANCH  10  21
BRANCH   9  24
HETATM   24  C   UNK N   1      38.936  47.585  45.679  0.00  0.00     0.169 C 
BRANCH  24  25
HETATM   25  O   UNK N   1      39.737  48.094  44.648  0.00  0.00    -0.400 OA
HETATM   26  H   UNK N   1      40.478  47.446  44.526  0.00  0.00     0.209 HD
ENDBRANCH  24  25
ENDBRANCH   9  24
BRANCH   6  27
HETATM   27  O   UNK N   1      43.064  40.915  46.790  0.00  0.00    -0.358 OA
HETATM   28  H   UNK N   1      42.594  40.286  47.356  0.00  0.00     0.218 HD
ENDBRANCH   6  27
BRANCH   5  29
HETATM   29  O   UNK N   1      43.705  42.091  44.368  0.00  0.00    -0.353 OA
HETATM   30  C   UNK N   1      45.079  42.039  44.492  0.00  0.00     0.210 C 
ENDBRANCH   5  29
TORSDOF 9
ENDMDL
MODEL 2
REMARK VINA RESULT:      -5.6     13.481     16.773
REMARK  9 active torsions:
REMARK  status: ('A' for Active; 'I' for Inactive)
REMARK    1  A    between atoms: O_1  and  C_2 
REMARK    2  A    between atoms: C_3  and  O_4 
REMARK    3  A    between atoms: C_8  and  C_10 
REMARK    4  A    between atoms: C_14  and  O_15 
REMARK    5  A    between atoms: C_17  and  O_19 
REMARK    6  A    between atoms: C_22  and  C_23 
REMARK    7  A    between atoms: C_23  and  O_24 
REMARK    8  A    between atoms: C_26  and  C_27 
REMARK    9  A    between atoms: C_27  and  O_28 
ROOT
HETATM    1  C   UNK N   1      30.137  53.845  40.295  0.00  0.00     0.059 C 
HETATM    2  C   UNK N   1      30.714  54.179  41.665  0.00  0.00    -0.040 A 
HETATM    3  C   UNK N   1      30.694  55.496  42.169  0.00  0.00    -0.048 A 
HETATM    4  C   UNK N   1      31.211  55.764  43.443  0.00  0.00     0.047 A 
HETATM    5  C   UNK N   1      31.782  54.740  44.221  0.00  0.00     0.101 A 
HETATM    6  C   UNK N   1      31.824  53.431  43.708  0.00  0.00     0.099 A 
HETATM    7  C   UNK N   1      31.298  53.160  42.440  0.00  0.00     0.047 A 
HETATM    8  C   UNK N   1      30.159  56.641  41.356  0.00  0.00     0.046 C 
HETATM    9  C   UNK N   1      30.140  56.350  39.841  0.00  0.00     0.020 C 
HETATM   10  C   UNK N   1      29.368  55.025  39.610  0.00  0.00     0.028 C 
ENDROOT
BRANCH   1  11
HETATM   11  C   UNK N   1      29.206  52.640  40.390  0.00  0.00    -0.046 A 
HETATM   12  C   UNK N   1      27.810  52.804  40.373  0.00  0.00     0.011 A 
HETATM   13  C   UNK N   1      26.969  51.693  40.445  0.00  0.00     0.040 A 
HETATM   14  C   UNK N   1      27.502  50.403  40.531  0.00  0.00     0.099 A 
HETATM   15  C   UNK N   1      28.899  50.220  40.552  0.00  0.00     0.101 A 
HETATM   16  C   UNK N   1      29.744  51.348  40.486  0.00  0.00     0.047 A 
BRANCH  14  17
HETATM   17  O   UNK N   1      26.659  49.350  40.591  0.00  0.00    -0.358 OA
HETATM   18  H   UNK N   1      26.068  49.200  41.342  0.00  0.00     0.218 HD
ENDBRANCH  14  17
BRANCH  15  19
HETATM   19  O   UNK N   1      29.400  48.956  40.630  0.00  0.00    -0.353 OA
HETATM   20  C   UNK N   1      30.722  48.643  40.874  0.00  0.00     0.210 C 
ENDBRANCH  15  19
ENDBRANCH   1  11
BRANCH  10  21
HETATM   21  C   UNK N   1      29.143  54.689  38.111  0.00  0.00     0.170 C 
BRANCH  21  22
HETATM   22  O   UNK N   1      30.364  54.452  37.467  0.00  0.00    -0.400 OA
HETATM   23  H   UNK N   1      30.251  53.610  36.955  0.00  0.00     0.209 HD
ENDBRANCH  21  22
ENDBRANCH  10  21
BRANCH   9  24
HETATM   24  C   UNK N   1      29.551  57.570  39.099  0.00  0.00     0.169 C 
BRANCH  24  25
HETATM   25  O   UNK N   1      29.247  58.588  40.012  0.00  0.00    -0.400 OA
HETATM   26  H   UNK N   1      29.872  58.473  40.775  0.00  0.00     0.209 HD
ENDBRANCH  24  25
ENDBRANCH   9  24
BRANCH   6  27
HETATM   27  O   UNK N   1      32.368  52.421  44.421  0.00  0.00    -0.358 OA
HETATM   28  H   UNK N   1      32.524  51.544  44.042  0.00  0.00     0.218 HD
ENDBRANCH   6  27
BRANCH   5  29
HETATM   29  O   UNK N   1      32.307  54.988  45.453  0.00  0.00    -0.353 OA
HETATM   30  C   UNK N   1      33.535  55.575  45.686  0.00  0.00     0.210 C 
ENDBRANCH   5  29
TORSDOF 9
ENDMDL
MODEL 3
REMARK VINA RESULT:      -5.1     13.636     16.401
REMARK  9 active torsions:
REMARK  status: ('A' for Active; 'I' for Inactive)
REMARK    1  A    between atoms: O_1  and  C_2 
REMARK    2  A    between atoms: C_3  and  O_4 
REMARK    3  A    between atoms: C_8  and  C_10 
REMARK    4  A    between atoms: C_14  and  O_15 
REMARK    5  A    between atoms: C_17  and  O_19 
REMARK    6  A    between atoms: C_22  and  C_23 
REMARK    7  A    between atoms: C_23  and  O_24 
REMARK    8  A    between atoms: C_26  and  C_27 
REMARK    9  A    between atoms: C_27  and  O_28 
ROOT
HETATM    1  C   UNK N   1      34.593  44.119  63.128  0.00  0.00     0.059 C 
HETATM    2  C   UNK N   1      33.851  43.728  61.856  0.00  0.00    -0.040 A 
HETATM    3  C   UNK N   1      32.442  43.731  61.796  0.00  0.00    -0.048 A 
HETATM    4  C   UNK N   1      31.793  43.390  60.603  0.00  0.00     0.047 A 
HETATM    5  C   UNK N   1      32.527  43.014  59.463  0.00  0.00     0.101 A 
HETATM    6  C   UNK N   1      33.931  42.987  59.529  0.00  0.00     0.099 A 
HETATM    7  C   UNK N   1      34.582  43.338  60.718  0.00  0.00     0.047 A 
HETATM    8  C   UNK N   1      31.605  44.059  63.001  0.00  0.00     0.046 C 
HETATM    9  C   UNK N   1      32.364  43.874  64.332  0.00  0.00     0.020 C 
HETATM   10  C   UNK N   1      33.678  44.694  64.261  0.00  0.00     0.028 C 
ENDROOT
BRANCH   1  11
HETATM   11  C   UNK N   1      35.687  45.134  62.815  0.00  0.00    -0.046 A 
HETATM   12  C   UNK N   1      36.985  44.715  62.476  0.00  0.00     0.011 A 
HETATM   13  C   UNK N   1      37.973  45.653  62.176  0.00  0.00     0.040 A 
HETATM   14  C   UNK N   1      37.686  47.022  62.204  0.00  0.00     0.099 A 
HETATM   15  C   UNK N   1      36.390  47.460  62.545  0.00  0.00     0.101 A 
HETATM   16  C   UNK N   1      35.398  46.507  62.854  0.00  0.00     0.047 A 
BRANCH  14  17
HETATM   17  O   UNK N   1      38.663  47.902  61.901  0.00  0.00    -0.358 OA
HETATM   18  H   UNK N   1      38.477  48.779  61.537  0.00  0.00     0.218 HD
ENDBRANCH  14  17
BRANCH  15  19
HETATM   19  O   UNK N   1      36.127  48.796  62.562  0.00  0.00    -0.353 OA
HETATM   20  C   UNK N   1      35.085  49.389  63.246  0.00  0.00     0.210 C 
ENDBRANCH  15  19
ENDBRANCH   1  11
BRANCH  10  21
HETATM   21  C   UNK N   1      34.470  44.718  65.596  0.00  0.00     0.170 C 
BRANCH  21  22
HETATM   22  O   UNK N   1      35.501  43.770  65.578  0.00  0.00    -0.400 OA
HETATM   23  H   UNK N   1      35.817  43.718  64.639  0.00  0.00     0.209 HD
ENDBRANCH  21  22
ENDBRANCH  10  21
BRANCH   9  24
HETATM   24  C   UNK N   1      31.432  44.261  65.502  0.00  0.00     0.169 C 
BRANCH  24  25
HETATM   25  O   UNK N   1      30.942  45.561  65.319  0.00  0.00    -0.400 OA
HETATM   26  H   UNK N   1      31.435  45.936  64.543  0.00  0.00     0.209 HD
ENDBRANCH  24  25
ENDBRANCH   9  24
BRANCH   6  27
HETATM   27  O   UNK N   1      34.672  42.626  58.460  0.00  0.00    -0.358 OA
HETATM   28  H   UNK N   1      34.485  41.829  57.943  0.00  0.00     0.218 HD
ENDBRANCH   6  27
BRANCH   5  29
HETATM   29  O   UNK N   1      31.909  42.660  58.301  0.00  0.00    -0.353 OA
HETATM   30  C   UNK N   1      31.323  43.542  57.415  0.00  0.00     0.210 C 
ENDBRANCH   5  29
TORSDOF 9
ENDMDL
MODEL 4
REMARK VINA RESULT:      -5.1     13.456     18.035
REMARK  9 active torsions:
REMARK  status: ('A' for Active; 'I' for Inactive)
REMARK    1  A    between atoms: O_1  and  C_2 
REMARK    2  A    between atoms: C_3  and  O_4 
REMARK    3  A    between atoms: C_8  and  C_10 
REMARK    4  A    between atoms: C_14  and  O_15 
REMARK    5  A    between atoms: C_17  and  O_19 
REMARK    6  A    between atoms: C_22  and  C_23 
REMARK    7  A    between atoms: C_23  and  O_24 
REMARK    8  A    between atoms: C_26  and  C_27 
REMARK    9  A    between atoms: C_27  and  O_28 
ROOT
HETATM    1  C   UNK N   1      29.317  54.910  39.714  0.00  0.00     0.059 C 
HETATM    2  C   UNK N   1      29.976  54.513  41.030  0.00  0.00    -0.040 A 
HETATM    3  C   UNK N   1      29.936  55.360  42.156  0.00  0.00    -0.048 A 
HETATM    4  C   UNK N   1      30.531  54.953  43.358  0.00  0.00     0.047 A 
HETATM    5  C   UNK N   1      31.197  53.718  43.452  0.00  0.00     0.101 A 
HETATM    6  C   UNK N   1      31.258  52.883  42.322  0.00  0.00     0.099 A 
HETATM    7  C   UNK N   1      30.655  53.284  41.124  0.00  0.00     0.047 A 
HETATM    8  C   UNK N   1      29.298  56.719  42.096  0.00  0.00     0.046 C 
HETATM    9  C   UNK N   1      29.184  57.270  40.659  0.00  0.00     0.020 C 
HETATM   10  C   UNK N   1      28.453  56.214  39.790  0.00  0.00     0.028 C 
ENDROOT
BRANCH   1  11
HETATM   11  C   UNK N   1      28.447  53.772  39.191  0.00  0.00    -0.046 A 
HETATM   12  C   UNK N   1      28.640  53.253  37.899  0.00  0.00     0.011 A 
HETATM   13  C   UNK N   1      27.848  52.201  37.437  0.00  0.00     0.040 A 
HETATM   14  C   UNK N   1      26.856  51.647  38.252  0.00  0.00     0.099 A 
HETATM   15  C   UNK N   1      26.647  52.157  39.550  0.00  0.00     0.101 A 
HETATM   16  C   UNK N   1      27.447  53.225  40.008  0.00  0.00     0.047 A 
BRANCH  14  17
HETATM   17  O   UNK N   1      26.113  50.624  37.777  0.00  0.00    -0.358 OA
HETATM   18  H   UNK N   1      25.742  49.941  38.353  0.00  0.00     0.218 HD
ENDBRANCH  14  17
BRANCH  15  19
HETATM   19  O   UNK N   1      25.681  51.601  40.332  0.00  0.00    -0.353 OA
HETATM   20  C   UNK N   1      25.883  50.565  41.222  0.00  0.00     0.210 C 
ENDBRANCH  15  19
ENDBRANCH   1  11
BRANCH  10  21
HETATM   21  C   UNK N   1      28.137  56.703  38.351  0.00  0.00     0.170 C 
BRANCH  21  22
HETATM   22  O   UNK N   1      29.285  57.223  37.740  0.00  0.00    -0.400 OA
HETATM   23  H   UNK N   1      30.047  56.673  38.061  0.00  0.00     0.209 HD
ENDBRANCH  21  22
ENDBRANCH  10  21
BRANCH   9  24
HETATM   24  C   UNK N   1      28.493  58.651  40.701  0.00  0.00     0.169 C 
BRANCH  24  25
HETATM   25  O   UNK N   1      29.184  59.560  39.888  0.00  0.00    -0.400 OA
HETATM   26  H   UNK N   1      29.105  59.217  38.960  0.00  0.00     0.209 HD
ENDBRANCH  24  25
ENDBRANCH   9  24
BRANCH   6  27
HETATM   27  O   UNK N   1      31.893  51.692  42.368  0.00  0.00    -0.358 OA
HETATM   28  H   UNK N   1      32.088  51.176  41.573  0.00  0.00     0.218 HD
ENDBRANCH   6  27
BRANCH   5  29
HETATM   29  O   UNK N   1      31.798  53.316  44.607  0.00  0.00    -0.353 OA
HETATM   30  C   UNK N   1      33.107  53.587  44.954  0.00  0.00     0.210 C 
ENDBRANCH   5  29
TORSDOF 9
ENDMDL
MODEL 5
REMARK VINA RESULT:      -4.9     13.497     18.038
REMARK  9 active torsions:
REMARK  status: ('A' for Active; 'I' for Inactive)
REMARK    1  A    between atoms: O_1  and  C_2 
REMARK    2  A    between atoms: C_3  and  O_4 
REMARK    3  A    between atoms: C_8  and  C_10 
REMARK    4  A    between atoms: C_14  and  O_15 
REMARK    5  A    between atoms: C_17  and  O_19 
REMARK    6  A    between atoms: C_22  and  C_23 
REMARK    7  A    between atoms: C_23  and  O_24 
REMARK    8  A    between atoms: C_26  and  C_27 
REMARK    9  A    between atoms: C_27  and  O_28 
ROOT
HETATM    1  C   UNK N   1      28.901  54.472  40.102  0.00  0.00     0.059 C 
HETATM    2  C   UNK N   1      29.851  54.188  41.259  0.00  0.00    -0.040 A 
HETATM    3  C   UNK N   1      30.115  55.159  42.247  0.00  0.00    -0.048 A 
HETATM    4  C   UNK N   1      30.975  54.856  43.311  0.00  0.00     0.047 A 
HETATM    5  C   UNK N   1      31.608  53.602  43.395  0.00  0.00     0.101 A 
HETATM    6  C   UNK N   1      31.364  52.643  42.395  0.00  0.00     0.099 A 
HETATM    7  C   UNK N   1      30.496  52.940  41.338  0.00  0.00     0.047 A 
HETATM    8  C   UNK N   1      29.521  56.538  42.175  0.00  0.00     0.046 C 
HETATM    9  C   UNK N   1      29.073  56.928  40.750  0.00  0.00     0.020 C 
HETATM   10  C   UNK N   1      28.121  55.824  40.221  0.00  0.00     0.028 C 
ENDROOT
BRANCH   1  11
HETATM   11  C   UNK N   1      27.896  53.335  39.949  0.00  0.00    -0.046 A 
HETATM   12  C   UNK N   1      27.047  52.976  41.011  0.00  0.00     0.011 A 
HETATM   13  C   UNK N   1      26.120  51.944  40.854  0.00  0.00     0.040 A 
HETATM   14  C   UNK N   1      26.021  51.257  39.640  0.00  0.00     0.099 A 
HETATM   15  C   UNK N   1      26.866  51.602  38.566  0.00  0.00     0.101 A 
HETATM   16  C   UNK N   1      27.805  52.641  38.734  0.00  0.00     0.047 A 
BRANCH  14  17
HETATM   17  O   UNK N   1      25.108  50.269  39.520  0.00  0.00    -0.358 OA
HETATM   18  H   UNK N   1      25.357  49.336  39.466  0.00  0.00     0.218 HD
ENDBRANCH  14  17
BRANCH  15  19
HETATM   19  O   UNK N   1      26.751  50.925  37.390  0.00  0.00    -0.353 OA
HETATM   20  C   UNK N   1      25.917  51.284  36.350  0.00  0.00     0.210 C 
ENDBRANCH  15  19
ENDBRANCH   1  11
BRANCH  10  21
HETATM   21  C   UNK N   1      27.474  56.165  38.851  0.00  0.00     0.170 C 
BRANCH  21  22
HETATM   22  O   UNK N   1      26.079  56.212  38.959  0.00  0.00    -0.400 OA
HETATM   23  H   UNK N   1      25.874  56.904  39.640  0.00  0.00     0.209 HD
ENDBRANCH  21  22
ENDBRANCH  10  21
BRANCH   9  24
HETATM   24  C   UNK N   1      28.455  58.342  40.785  0.00  0.00     0.169 C 
BRANCH  24  25
HETATM   25  O   UNK N   1      29.263  59.239  40.074  0.00  0.00    -0.400 OA
HETATM   26  H   UNK N   1      29.083  59.072  39.112  0.00  0.00     0.209 HD
ENDBRANCH  24  25
ENDBRANCH   9  24
BRANCH   6  27
HETATM   27  O   UNK N   1      31.956  51.430  42.435  0.00  0.00    -0.358 OA
HETATM   28  H   UNK N   1      32.909  51.321  42.558  0.00  0.00     0.218 HD
ENDBRANCH   6  27
BRANCH   5  29
HETATM   29  O   UNK N   1      32.463  53.300  44.411  0.00  0.00    -0.353 OA
HETATM   30  C   UNK N   1      33.375  54.176  44.966  0.00  0.00     0.210 C 
ENDBRANCH   5  29
TORSDOF 9
ENDMDL
MODEL 6
REMARK VINA RESULT:      -4.8     13.831     16.947
REMARK  9 active torsions:
REMARK  status: ('A' for Active; 'I' for Inactive)
REMARK    1  A    between atoms: O_1  and  C_2 
REMARK    2  A    between atoms: C_3  and  O_4 
REMARK    3  A    between atoms: C_8  and  C_10 
REMARK    4  A    between atoms: C_14  and  O_15 
REMARK    5  A    between atoms: C_17  and  O_19 
REMARK    6  A    between atoms: C_22  and  C_23 
REMARK    7  A    between atoms: C_23  and  O_24 
REMARK    8  A    between atoms: C_26  and  C_27 
REMARK    9  A    between atoms: C_27  and  O_28 
ROOT
HETATM    1  C   UNK N   1      28.606  48.874  58.797  0.00  0.00     0.059 C 
HETATM    2  C   UNK N   1      29.196  47.480  58.619  0.00  0.00    -0.040 A 
HETATM    3  C   UNK N   1      30.287  47.249  57.757  0.00  0.00    -0.048 A 
HETATM    4  C   UNK N   1      30.821  45.960  57.636  0.00  0.00     0.047 A 
HETATM    5  C   UNK N   1      30.264  44.878  58.343  0.00  0.00     0.101 A 
HETATM    6  C   UNK N   1      29.160  45.103  59.184  0.00  0.00     0.099 A 
HETATM    7  C   UNK N   1      28.633  46.394  59.314  0.00  0.00     0.047 A 
HETATM    8  C   UNK N   1      30.880  48.352  56.926  0.00  0.00     0.046 C 
HETATM    9  C   UNK N   1      29.914  49.537  56.716  0.00  0.00     0.020 C 
HETATM   10  C   UNK N   1      29.424  50.017  58.107  0.00  0.00     0.028 C 
ENDROOT
BRANCH   1  11
HETATM   11  C   UNK N   1      28.454  49.201  60.278  0.00  0.00    -0.046 A 
HETATM   12  C   UNK N   1      27.183  49.273  60.875  0.00  0.00     0.011 A 
HETATM   13  C   UNK N   1      27.057  49.558  62.235  0.00  0.00     0.040 A 
HETATM   14  C   UNK N   1      28.192  49.773  63.024  0.00  0.00     0.099 A 
HETATM   15  C   UNK N   1      29.474  49.708  62.442  0.00  0.00     0.101 A 
HETATM   16  C   UNK N   1      29.593  49.426  61.065  0.00  0.00     0.047 A 
BRANCH  14  17
HETATM   17  O   UNK N   1      28.035  50.039  64.338  0.00  0.00    -0.358 OA
HETATM   18  H   UNK N   1      28.579  50.688  64.805  0.00  0.00     0.218 HD
ENDBRANCH  14  17
BRANCH  15  19
HETATM   19  O   UNK N   1      30.568  49.914  63.226  0.00  0.00    -0.353 OA
HETATM   20  C   UNK N   1      31.368  48.917  63.745  0.00  0.00     0.210 C 
ENDBRANCH  15  19
ENDBRANCH   1  11
BRANCH  10  21
HETATM   21  C   UNK N   1      28.559  51.304  58.052  0.00  0.00     0.170 C 
BRANCH  21  22
HETATM   22  O   UNK N   1      29.129  52.319  58.831  0.00  0.00    -0.400 OA
HETATM   23  H   UNK N   1      29.049  52.024  59.776  0.00  0.00     0.209 HD
ENDBRANCH  21  22
ENDBRANCH  10  21
BRANCH   9  24
HETATM   24  C   UNK N   1      30.622  50.624  55.878  0.00  0.00     0.169 C 
BRANCH  24  25
HETATM   25  O   UNK N   1      31.995  50.632  56.161  0.00  0.00    -0.400 OA
HETATM   26  H   UNK N   1      32.412  51.233  55.490  0.00  0.00     0.209 HD
ENDBRANCH  24  25
ENDBRANCH   9  24
BRANCH   6  27
HETATM   27  O   UNK N   1      28.593  44.092  59.875  0.00  0.00    -0.358 OA
HETATM   28  H   UNK N   1      28.400  44.153  60.821  0.00  0.00     0.218 HD
ENDBRANCH   6  27
BRANCH   5  29
HETATM   29  O   UNK N   1      30.759  43.614  58.220  0.00  0.00    -0.353 OA
HETATM   30  C   UNK N   1      31.954  43.288  57.611  0.00  0.00     0.210 C 
ENDBRANCH   5  29
TORSDOF 9
ENDMDL
MODEL 7
REMARK VINA RESULT:      -4.8     12.906     15.221
REMARK  9 active torsions:
REMARK  status: ('A' for Active; 'I' for Inactive)
REMARK    1  A    between atoms: O_1  and  C_2 
REMARK    2  A    between atoms: C_3  and  O_4 
REMARK    3  A    between atoms: C_8  and  C_10 
REMARK    4  A    between atoms: C_14  and  O_15 
REMARK    5  A    between atoms: C_17  and  O_19 
REMARK    6  A    between atoms: C_22  and  C_23 
REMARK    7  A    between atoms: C_23  and  O_24 
REMARK    8  A    between atoms: C_26  and  C_27 
REMARK    9  A    between atoms: C_27  and  O_28 
ROOT
HETATM    1  C   UNK N   1      29.338  40.656  55.707  0.00  0.00     0.059 C 
HETATM    2  C   UNK N   1      28.747  40.954  54.334  0.00  0.00    -0.040 A 
HETATM    3  C   UNK N   1      27.531  40.374  53.917  0.00  0.00    -0.048 A 
HETATM    4  C   UNK N   1      27.003  40.689  52.658  0.00  0.00     0.047 A 
HETATM    5  C   UNK N   1      27.685  41.556  51.785  0.00  0.00     0.101 A 
HETATM    6  C   UNK N   1      28.910  42.115  52.191  0.00  0.00     0.099 A 
HETATM    7  C   UNK N   1      29.433  41.810  53.453  0.00  0.00     0.047 A 
HETATM    8  C   UNK N   1      26.792  39.389  54.779  0.00  0.00     0.046 C 
HETATM    9  C   UNK N   1      27.693  38.717  55.837  0.00  0.00     0.020 C 
HETATM   10  C   UNK N   1      28.400  39.831  56.651  0.00  0.00     0.028 C 
ENDROOT
BRANCH   1  11
HETATM   11  C   UNK N   1      29.729  41.952  56.409  0.00  0.00    -0.046 A 
HETATM   12  C   UNK N   1      28.756  42.906  56.756  0.00  0.00     0.011 A 
HETATM   13  C   UNK N   1      29.124  44.081  57.412  0.00  0.00     0.040 A 
HETATM   14  C   UNK N   1      30.463  44.324  57.737  0.00  0.00     0.099 A 
HETATM   15  C   UNK N   1      31.451  43.379  57.395  0.00  0.00     0.101 A 
HETATM   16  C   UNK N   1      31.073  42.197  56.725  0.00  0.00     0.047 A 
BRANCH  14  17
HETATM   17  O   UNK N   1      30.782  45.467  58.380  0.00  0.00    -0.358 OA
HETATM   18  H   UNK N   1      30.676  45.572  59.336  0.00  0.00     0.218 HD
ENDBRANCH  14  17
BRANCH  15  19
HETATM   19  O   UNK N   1      32.748  43.630  57.725  0.00  0.00    -0.353 OA
HETATM   20  C   UNK N   1      33.456  42.970  58.710  0.00  0.00     0.210 C 
ENDBRANCH  15  19
ENDBRANCH   1  11
BRANCH  10  21
HETATM   21  C   UNK N   1      29.225  39.295  57.852  0.00  0.00     0.170 C 
BRANCH  21  22
HETATM   22  O   UNK N   1      29.974  38.173  57.477  0.00  0.00    -0.400 OA
HETATM   23  H   UNK N   1      30.637  38.489  56.810  0.00  0.00     0.209 HD
ENDBRANCH  21  22
ENDBRANCH  10  21
BRANCH   9  24
HETATM   24  C   UNK N   1      26.840  37.749  56.685  0.00  0.00     0.169 C 
BRANCH  24  25
HETATM   25  O   UNK N   1      27.465  36.497  56.763  0.00  0.00    -0.400 OA
HETATM   26  H   UNK N   1      28.411  36.643  56.503  0.00  0.00     0.209 HD
ENDBRANCH  24  25
ENDBRANCH   9  24
BRANCH   6  27
HETATM   27  O   UNK N   1      29.599  42.947  51.381  0.00  0.00    -0.358 OA
HETATM   28  H   UNK N   1      30.565  42.941  51.331  0.00  0.00     0.218 HD
ENDBRANCH   6  27
BRANCH   5  29
HETATM   29  O   UNK N   1      27.195  41.856  50.549  0.00  0.00    -0.353 OA
HETATM   30  C   UNK N   1      26.008  42.519  50.308  0.00  0.00     0.210 C 
ENDBRANCH   5  29
TORSDOF 9
ENDMDL
MODEL 8
REMARK VINA RESULT:      -4.7     14.781     17.070
REMARK  9 active torsions:
REMARK  status: ('A' for Active; 'I' for Inactive)
REMARK    1  A    between atoms: O_1  and  C_2 
REMARK    2  A    between atoms: C_3  and  O_4 
REMARK    3  A    between atoms: C_8  and  C_10 
REMARK    4  A    between atoms: C_14  and  O_15 
REMARK    5  A    between atoms: C_17  and  O_19 
REMARK    6  A    between atoms: C_22  and  C_23 
REMARK    7  A    between atoms: C_23  and  O_24 
REMARK    8  A    between atoms: C_26  and  C_27 
REMARK    9  A    between atoms: C_27  and  O_28 
ROOT
HETATM    1  C   UNK N   1      50.907  56.475  40.457  0.00  0.00     0.059 C 
HETATM    2  C   UNK N   1      49.672  56.191  39.611  0.00  0.00    -0.040 A 
HETATM    3  C   UNK N   1      49.762  55.487  38.393  0.00  0.00    -0.048 A 
HETATM    4  C   UNK N   1      48.604  55.222  37.652  0.00  0.00     0.047 A 
HETATM    5  C   UNK N   1      47.346  55.675  38.090  0.00  0.00     0.101 A 
HETATM    6  C   UNK N   1      47.259  56.399  39.293  0.00  0.00     0.099 A 
HETATM    7  C   UNK N   1      48.414  56.655  40.040  0.00  0.00     0.047 A 
HETATM    8  C   UNK N   1      51.086  55.036  37.841  0.00  0.00     0.046 C 
HETATM    9  C   UNK N   1      52.280  55.829  38.414  0.00  0.00     0.020 C 
HETATM   10  C   UNK N   1      52.210  55.763  39.961  0.00  0.00     0.028 C 
ENDROOT
BRANCH   1  11
HETATM   11  C   UNK N   1      50.656  56.087  41.911  0.00  0.00    -0.046 A 
HETATM   12  C   UNK N   1      50.324  54.765  42.257  0.00  0.00     0.011 A 
HETATM   13  C   UNK N   1      50.111  54.419  43.592  0.00  0.00     0.040 A 
HETATM   14  C   UNK N   1      50.229  55.378  44.603  0.00  0.00     0.099 A 
HETATM   15  C   UNK N   1      50.558  56.709  44.273  0.00  0.00     0.101 A 
HETATM   16  C   UNK N   1      50.765  57.054  42.921  0.00  0.00     0.047 A 
BRANCH  14  17
HETATM   17  O   UNK N   1      50.025  55.007  45.884  0.00  0.00    -0.358 OA
HETATM   18  H   UNK N   1      49.268  54.468  46.154  0.00  0.00     0.218 HD
ENDBRANCH  14  17
BRANCH  15  19
HETATM   19  O   UNK N   1      50.675  57.628  45.271  0.00  0.00    -0.353 OA
HETATM   20  C   UNK N   1      49.679  58.500  45.664  0.00  0.00     0.210 C 
ENDBRANCH  15  19
ENDBRANCH   1  11
BRANCH  10  21
HETATM   21  C   UNK N   1      53.440  56.395  40.668  0.00  0.00     0.170 C 
BRANCH  21  22
HETATM   22  O   UNK N   1      53.460  57.782  40.480  0.00  0.00    -0.400 OA
HETATM   23  H   UNK N   1      52.539  58.103  40.663  0.00  0.00     0.209 HD
ENDBRANCH  21  22
ENDBRANCH  10  21
BRANCH   9  24
HETATM   24  C   UNK N   1      53.589  55.275  37.810  0.00  0.00     0.169 C 
BRANCH  24  25
HETATM   25  O   UNK N   1      53.381  53.983  37.310  0.00  0.00    -0.400 OA
HETATM   26  H   UNK N   1      52.918  54.093  36.439  0.00  0.00     0.209 HD
ENDBRANCH  24  25
ENDBRANCH   9  24
BRANCH   6  27
HETATM   27  O   UNK N   1      46.072  56.857  39.745  0.00  0.00    -0.358 OA
HETATM   28  H   UNK N   1      45.838  56.853  40.684  0.00  0.00     0.218 HD
ENDBRANCH   6  27
BRANCH   5  29
HETATM   29  O   UNK N   1      46.212  55.443  37.371  0.00  0.00    -0.353 OA
HETATM   30  C   UNK N   1      45.730  56.261  36.368  0.00  0.00     0.210 C 
ENDBRANCH   5  29
TORSDOF 9
ENDMDL
MODEL 9
REMARK VINA RESULT:      -4.7     12.475     16.531
REMARK  9 active torsions:
REMARK  status: ('A' for Active; 'I' for Inactive)
REMARK    1  A    between atoms: O_1  and  C_2 
REMARK    2  A    between atoms: C_3  and  O_4 
REMARK    3  A    between atoms: C_8  and  C_10 
REMARK    4  A    between atoms: C_14  and  O_15 
REMARK    5  A    between atoms: C_17  and  O_19 
REMARK    6  A    between atoms: C_22  and  C_23 
REMARK    7  A    between atoms: C_23  and  O_24 
REMARK    8  A    between atoms: C_26  and  C_27 
REMARK    9  A    between atoms: C_27  and  O_28 
ROOT
HETATM    1  C   UNK N   1      30.038  43.393  59.184  0.00  0.00     0.059 C 
HETATM    2  C   UNK N   1      29.650  44.867  59.185  0.00  0.00    -0.040 A 
HETATM    3  C   UNK N   1      30.135  45.753  60.169  0.00  0.00    -0.048 A 
HETATM    4  C   UNK N   1      29.777  47.107  60.126  0.00  0.00     0.047 A 
HETATM    5  C   UNK N   1      28.912  47.595  59.129  0.00  0.00     0.101 A 
HETATM    6  C   UNK N   1      28.409  46.706  58.163  0.00  0.00     0.099 A 
HETATM    7  C   UNK N   1      28.774  45.355  58.198  0.00  0.00     0.047 A 
HETATM    8  C   UNK N   1      31.007  45.277  61.296  0.00  0.00     0.046 C 
HETATM    9  C   UNK N   1      30.882  43.761  61.558  0.00  0.00     0.020 C 
HETATM   10  C   UNK N   1      31.145  43.014  60.225  0.00  0.00     0.028 C 
ENDROOT
BRANCH   1  11
HETATM   11  C   UNK N   1      30.501  42.967  57.795  0.00  0.00    -0.046 A 
HETATM   12  C   UNK N   1      31.739  43.395  57.284  0.00  0.00     0.011 A 
HETATM   13  C   UNK N   1      32.158  42.986  56.018  0.00  0.00     0.040 A 
HETATM   14  C   UNK N   1      31.357  42.143  55.242  0.00  0.00     0.099 A 
HETATM   15  C   UNK N   1      30.111  41.706  55.737  0.00  0.00     0.101 A 
HETATM   16  C   UNK N   1      29.690  42.129  57.015  0.00  0.00     0.047 A 
BRANCH  14  17
HETATM   17  O   UNK N   1      31.797  41.759  54.024  0.00  0.00    -0.358 OA
HETATM   18  H   UNK N   1      31.655  42.293  53.230  0.00  0.00     0.218 HD
ENDBRANCH  14  17
BRANCH  15  19
HETATM   19  O   UNK N   1      29.347  40.880  54.970  0.00  0.00    -0.353 OA
HETATM   20  C   UNK N   1      29.312  39.505  55.081  0.00  0.00     0.210 C 
ENDBRANCH  15  19
ENDBRANCH   1  11
BRANCH  10  21
HETATM   21  C   UNK N   1      31.198  41.470  60.376  0.00  0.00     0.170 C 
BRANCH  21  22
HETATM   22  O   UNK N   1      32.494  40.993  60.140  0.00  0.00    -0.400 OA
HETATM   23  H   UNK N   1      33.093  41.495  60.751  0.00  0.00     0.209 HD
ENDBRANCH  21  22
ENDBRANCH  10  21
BRANCH   9  24
HETATM   24  C   UNK N   1      31.832  43.367  62.709  0.00  0.00     0.169 C 
BRANCH  24  25
HETATM   25  O   UNK N   1      31.139  42.622  63.673  0.00  0.00    -0.400 OA
HETATM   26  H   UNK N   1      30.787  41.822  63.204  0.00  0.00     0.209 HD
ENDBRANCH  24  25
ENDBRANCH   9  24
BRANCH   6  27
HETATM   27  O   UNK N   1      27.572  47.132  57.193  0.00  0.00    -0.358 OA
HETATM   28  H   UNK N   1      26.613  47.011  57.244  0.00  0.00     0.218 HD
ENDBRANCH   6  27
BRANCH   5  29
HETATM   29  O   UNK N   1      28.539  48.904  59.085  0.00  0.00    -0.353 OA
HETATM   30  C   UNK N   1      29.336  49.941  58.641  0.00  0.00     0.210 C 
ENDBRANCH   5  29
TORSDOF 9
ENDMDL
