MODEL 1
REMARK VINA RESULT:      -6.3      0.000      0.000
REMARK  10 active torsions:
REMARK  status: ('A' for Active; 'I' for Inactive)
REMARK    1  A    between atoms: C_6  and  C_10 
REMARK    2  A    between atoms: C_7  and  O_8 
REMARK    3  A    between atoms: C_12  and  O_13 
REMARK    4  A    between atoms: C_17  and  C_18 
REMARK    5  A    between atoms: C_20  and  O_21 
REMARK    6  A    between atoms: C_23  and  O_24 
REMARK    7  A    between atoms: C_28  and  C_29 
REMARK    8  A    between atoms: C_29  and  O_30 
REMARK    9  A    between atoms: C_35  and  O_36 
REMARK   10  A    between atoms: C_39  and  O_40 
ROOT
HETATM    1  C   UNK N   1      28.362  42.011  56.824  0.00  0.00    -0.023 A 
HETATM    2  C   UNK N   1      27.125  42.240  57.482  0.00  0.00     0.049 A 
HETATM    3  C   UNK N   1      26.911  43.423  58.216  0.00  0.00     0.100 A 
HETATM    4  C   UNK N   1      27.944  44.357  58.280  0.00  0.00     0.109 A 
HETATM    5  O   UNK N   1      27.933  45.508  58.955  0.00  0.00    -0.337 OA
HETATM    6  C   UNK N   1      29.215  46.040  58.997  0.00  0.00     0.172 C 
HETATM    7  C   UNK N   1      29.990  45.344  57.825  0.00  0.00     0.079 C 
HETATM    8  C   UNK N   1      29.123  44.155  57.638  0.00  0.00    -0.012 A 
HETATM    9  C   UNK N   1      29.367  43.008  56.896  0.00  0.00     0.020 A 
ENDROOT
BRANCH   1  10
HETATM   10  C   UNK N   1      28.555  40.692  56.085  0.00  0.00     0.198 C 
HETATM   11  O   UNK N   1      27.496  40.517  55.212  0.00  0.00    -0.337 OA
HETATM   12  C   UNK N   1      27.411  41.206  54.046  0.00  0.00     0.089 A 
HETATM   13  C   UNK N   1      28.579  41.722  53.420  0.00  0.00     0.079 A 
HETATM   14  C   UNK N   1      26.157  41.397  53.464  0.00  0.00     0.074 A 
HETATM   15  C   UNK N   1      29.888  41.398  54.074  0.00  0.00     0.196 C 
HETATM   16  C   UNK N   1      28.441  42.456  52.206  0.00  0.00     0.085 A 
HETATM   17  O   UNK N   1      30.956  41.684  53.558  0.00  0.00    -0.289 OA
HETATM   18  C   UNK N   1      29.890  40.545  55.317  0.00  0.00     0.227 C 
HETATM   19  C   UNK N   1      27.167  42.638  51.652  0.00  0.00     0.074 A 
HETATM   20  C   UNK N   1      26.032  42.109  52.271  0.00  0.00     0.071 A 
BRANCH  18  21
HETATM   21  O   UNK N   1      30.127  39.207  54.961  0.00  0.00    -0.385 OA
HETATM   22  H   UNK N   1      31.070  39.135  54.657  0.00  0.00     0.210 HD
ENDBRANCH  18  21
BRANCH  16  23
HETATM   23  O   UNK N   1      29.486  42.998  51.536  0.00  0.00    -0.360 OA
HETATM   24  H   UNK N   1      29.654  43.936  51.422  0.00  0.00     0.217 HD
ENDBRANCH  16  23
BRANCH  20  25
HETATM   25  O   UNK N   1      24.821  42.298  51.708  0.00  0.00    -0.361 OA
HETATM   26  H   UNK N   1      24.686  42.945  51.001  0.00  0.00     0.217 HD
ENDBRANCH  20  25
ENDBRANCH   1  10
BRANCH   3  27
HETATM   27  O   UNK N   1      25.747  43.647  58.859  0.00  0.00    -0.358 OA
HETATM   28  H   UNK N   1      24.969  43.985  58.392  0.00  0.00     0.218 HD
ENDBRANCH   3  27
BRANCH   7  29
HETATM   29  C   UNK N   1      31.466  45.069  58.120  0.00  0.00     0.176 C 
BRANCH  29  30
HETATM   30  O   UNK N   1      32.234  45.194  56.957  0.00  0.00    -0.400 OA
HETATM   31  H   UNK N   1      33.085  45.617  57.238  0.00  0.00     0.209 HD
ENDBRANCH  29  30
ENDBRANCH   7  29
BRANCH   6  32
HETATM   32  C   UNK N   1      29.250  47.540  58.942  0.00  0.00    -0.025 A 
HETATM   33  C   UNK N   1      29.550  48.194  57.742  0.00  0.00     0.049 A 
HETATM   34  C   UNK N   1      29.592  49.601  57.683  0.00  0.00     0.101 A 
HETATM   35  C   UNK N   1      29.326  50.348  58.849  0.00  0.00     0.099 A 
HETATM   36  C   UNK N   1      29.025  49.688  60.047  0.00  0.00     0.040 A 
HETATM   37  C   UNK N   1      28.987  48.295  60.094  0.00  0.00     0.012 A 
BRANCH  34  38
HETATM   38  O   UNK N   1      29.886  50.256  56.527  0.00  0.00    -0.353 OA
HETATM   39  C   UNK N   1      31.052  50.087  55.807  0.00  0.00     0.210 C 
ENDBRANCH  34  38
BRANCH  35  40
HETATM   40  O   UNK N   1      29.355  51.697  58.835  0.00  0.00    -0.358 OA
HETATM   41  H   UNK N   1      28.563  52.229  58.677  0.00  0.00     0.218 HD
ENDBRANCH  35  40
ENDBRANCH   6  32
TORSDOF 10
ENDMDL
MODEL 2
REMARK VINA RESULT:      -5.9      1.751      2.865
REMARK  10 active torsions:
REMARK  status: ('A' for Active; 'I' for Inactive)
REMARK    1  A    between atoms: C_6  and  C_10 
REMARK    2  A    between atoms: C_7  and  O_8 
REMARK    3  A    between atoms: C_12  and  O_13 
REMARK    4  A    between atoms: C_17  and  C_18 
REMARK    5  A    between atoms: C_20  and  O_21 
REMARK    6  A    between atoms: C_23  and  O_24 
REMARK    7  A    between atoms: C_28  and  C_29 
REMARK    8  A    between atoms: C_29  and  O_30 
REMARK    9  A    between atoms: C_35  and  O_36 
REMARK   10  A    between atoms: C_39  and  O_40 
ROOT
HETATM    1  C   UNK N   1      29.566  42.862  56.895  0.00  0.00    -0.023 A 
HETATM    2  C   UNK N   1      30.937  43.228  56.889  0.00  0.00     0.049 A 
HETATM    3  C   UNK N   1      31.349  44.475  57.399  0.00  0.00     0.100 A 
HETATM    4  C   UNK N   1      30.376  45.335  57.905  0.00  0.00     0.109 A 
HETATM    5  O   UNK N   1      30.576  46.562  58.389  0.00  0.00    -0.337 OA
HETATM    6  C   UNK N   1      29.358  47.207  58.554  0.00  0.00     0.172 C 
HETATM    7  C   UNK N   1      28.286  46.063  58.591  0.00  0.00     0.079 C 
HETATM    8  C   UNK N   1      29.065  44.986  57.932  0.00  0.00    -0.012 A 
HETATM    9  C   UNK N   1      28.622  43.762  57.450  0.00  0.00     0.020 A 
ENDROOT
BRANCH   1  10
HETATM   10  C   UNK N   1      29.172  41.520  56.287  0.00  0.00     0.198 C 
HETATM   11  O   UNK N   1      27.862  41.604  55.847  0.00  0.00    -0.337 OA
HETATM   12  C   UNK N   1      27.533  42.264  54.709  0.00  0.00     0.089 A 
HETATM   13  C   UNK N   1      28.489  42.448  53.672  0.00  0.00     0.079 A 
HETATM   14  C   UNK N   1      26.236  42.758  54.564  0.00  0.00     0.074 A 
HETATM   15  C   UNK N   1      29.831  41.812  53.879  0.00  0.00     0.196 C 
HETATM   16  C   UNK N   1      28.106  43.163  52.500  0.00  0.00     0.085 A 
HETATM   17  O   UNK N   1      30.683  41.800  53.006  0.00  0.00    -0.289 OA
HETATM   18  C   UNK N   1      30.074  41.017  55.137  0.00  0.00     0.227 C 
HETATM   19  C   UNK N   1      26.798  43.654  52.391  0.00  0.00     0.074 A 
HETATM   20  C   UNK N   1      25.867  43.451  53.411  0.00  0.00     0.071 A 
BRANCH  18  21
HETATM   21  O   UNK N   1      29.851  39.654  54.874  0.00  0.00    -0.385 OA
HETATM   22  H   UNK N   1      30.223  39.133  55.633  0.00  0.00     0.210 HD
ENDBRANCH  18  21
BRANCH  16  23
HETATM   23  O   UNK N   1      28.942  43.402  51.462  0.00  0.00    -0.360 OA
HETATM   24  H   UNK N   1      29.032  44.236  50.994  0.00  0.00     0.217 HD
ENDBRANCH  16  23
BRANCH  20  25
HETATM   25  O   UNK N   1      24.614  43.932  53.271  0.00  0.00    -0.361 OA
HETATM   26  H   UNK N   1      23.860  43.518  53.716  0.00  0.00     0.217 HD
ENDBRANCH  20  25
ENDBRANCH   1  10
BRANCH   3  27
HETATM   27  O   UNK N   1      32.646  44.842  57.384  0.00  0.00    -0.358 OA
HETATM   28  H   UNK N   1      32.928  45.714  57.698  0.00  0.00     0.218 HD
ENDBRANCH   3  27
BRANCH   7  29
HETATM   29  C   UNK N   1      26.950  46.429  57.942  0.00  0.00     0.176 C 
BRANCH  29  30
HETATM   30  O   UNK N   1      27.133  47.396  56.947  0.00  0.00    -0.400 OA
HETATM   31  H   UNK N   1      27.871  47.976  57.265  0.00  0.00     0.209 HD
ENDBRANCH  29  30
ENDBRANCH   7  29
BRANCH   6  32
HETATM   32  C   UNK N   1      29.312  48.121  59.745  0.00  0.00    -0.025 A 
HETATM   33  C   UNK N   1      28.848  49.434  59.607  0.00  0.00     0.049 A 
HETATM   34  C   UNK N   1      28.808  50.300  60.718  0.00  0.00     0.101 A 
HETATM   35  C   UNK N   1      29.239  49.829  61.976  0.00  0.00     0.099 A 
HETATM   36  C   UNK N   1      29.701  48.514  62.107  0.00  0.00     0.040 A 
HETATM   37  C   UNK N   1      29.737  47.665  61.001  0.00  0.00     0.012 A 
BRANCH  34  38
HETATM   38  O   UNK N   1      28.364  51.582  60.605  0.00  0.00    -0.353 OA
HETATM   39  C   UNK N   1      28.315  52.290  59.422  0.00  0.00     0.210 C 
ENDBRANCH  34  38
BRANCH  35  40
HETATM   40  O   UNK N   1      29.217  50.626  63.064  0.00  0.00    -0.358 OA
HETATM   41  H   UNK N   1      28.451  50.673  63.653  0.00  0.00     0.218 HD
ENDBRANCH  35  40
ENDBRANCH   6  32
TORSDOF 10
ENDMDL
MODEL 3
REMARK VINA RESULT:      -5.7     15.867     19.585
REMARK  10 active torsions:
REMARK  status: ('A' for Active; 'I' for Inactive)
REMARK    1  A    between atoms: C_6  and  C_10 
REMARK    2  A    between atoms: C_7  and  O_8 
REMARK    3  A    between atoms: C_12  and  O_13 
REMARK    4  A    between atoms: C_17  and  C_18 
REMARK    5  A    between atoms: C_20  and  O_21 
REMARK    6  A    between atoms: C_23  and  O_24 
REMARK    7  A    between atoms: C_28  and  C_29 
REMARK    8  A    between atoms: C_29  and  O_30 
REMARK    9  A    between atoms: C_35  and  O_36 
REMARK   10  A    between atoms: C_39  and  O_40 
ROOT
HETATM    1  C   UNK N   1      26.446  54.855  39.354  0.00  0.00    -0.023 A 
HETATM    2  C   UNK N   1      25.628  53.752  39.713  0.00  0.00     0.049 A 
HETATM    3  C   UNK N   1      26.205  52.527  40.101  0.00  0.00     0.100 A 
HETATM    4  C   UNK N   1      27.595  52.429  40.121  0.00  0.00     0.109 A 
HETATM    5  O   UNK N   1      28.310  51.344  40.424  0.00  0.00    -0.337 OA
HETATM    6  C   UNK N   1      29.641  51.548  40.086  0.00  0.00     0.172 C 
HETATM    7  C   UNK N   1      29.807  53.104  39.985  0.00  0.00     0.079 C 
HETATM    8  C   UNK N   1      28.385  53.484  39.799  0.00  0.00    -0.012 A 
HETATM    9  C   UNK N   1      27.854  54.710  39.423  0.00  0.00     0.020 A 
ENDROOT
BRANCH   1  10
HETATM   10  C   UNK N   1      25.768  56.141  38.896  0.00  0.00     0.198 C 
HETATM   11  O   UNK N   1      24.852  56.524  39.860  0.00  0.00    -0.337 OA
HETATM   12  C   UNK N   1      25.243  57.097  41.027  0.00  0.00     0.089 A 
HETATM   13  C   UNK N   1      26.482  57.789  41.118  0.00  0.00     0.079 A 
HETATM   14  C   UNK N   1      24.406  57.003  42.139  0.00  0.00     0.074 A 
HETATM   15  C   UNK N   1      27.276  57.910  39.851  0.00  0.00     0.196 C 
HETATM   16  C   UNK N   1      26.861  58.360  42.368  0.00  0.00     0.085 A 
HETATM   17  O   UNK N   1      28.289  58.586  39.787  0.00  0.00    -0.289 OA
HETATM   18  C   UNK N   1      26.716  57.322  38.582  0.00  0.00     0.227 C 
HETATM   19  C   UNK N   1      26.002  58.240  43.468  0.00  0.00     0.074 A 
HETATM   20  C   UNK N   1      24.781  57.571  43.357  0.00  0.00     0.071 A 
BRANCH  18  21
HETATM   21  O   UNK N   1      26.053  58.328  37.858  0.00  0.00    -0.385 OA
HETATM   22  H   UNK N   1      25.843  57.967  36.957  0.00  0.00     0.210 HD
ENDBRANCH  18  21
BRANCH  16  23
HETATM   23  O   UNK N   1      28.021  59.029  42.564  0.00  0.00    -0.360 OA
HETATM   24  H   UNK N   1      28.165  59.729  43.205  0.00  0.00     0.217 HD
ENDBRANCH  16  23
BRANCH  20  25
HETATM   25  O   UNK N   1      23.974  57.478  44.434  0.00  0.00    -0.361 OA
HETATM   26  H   UNK N   1      23.985  56.700  45.009  0.00  0.00     0.217 HD
ENDBRANCH  20  25
ENDBRANCH   1  10
BRANCH   3  27
HETATM   27  O   UNK N   1      25.440  51.466  40.428  0.00  0.00    -0.358 OA
HETATM   28  H   UNK N   1      25.465  50.647  39.912  0.00  0.00     0.218 HD
ENDBRANCH   3  27
BRANCH   7  29
HETATM   29  C   UNK N   1      30.781  53.565  38.899  0.00  0.00     0.176 C 
BRANCH  29  30
HETATM   30  O   UNK N   1      31.429  54.744  39.284  0.00  0.00    -0.400 OA
HETATM   31  H   UNK N   1      31.573  54.667  40.262  0.00  0.00     0.209 HD
ENDBRANCH  29  30
ENDBRANCH   7  29
BRANCH   6  32
HETATM   32  C   UNK N   1      30.612  50.893  41.026  0.00  0.00    -0.025 A 
HETATM   33  C   UNK N   1      31.425  51.675  41.854  0.00  0.00     0.049 A 
HETATM   34  C   UNK N   1      32.344  51.069  42.734  0.00  0.00     0.101 A 
HETATM   35  C   UNK N   1      32.435  49.662  42.775  0.00  0.00     0.099 A 
HETATM   36  C   UNK N   1      31.618  48.886  41.945  0.00  0.00     0.040 A 
HETATM   37  C   UNK N   1      30.713  49.496  41.076  0.00  0.00     0.012 A 
BRANCH  34  38
HETATM   38  O   UNK N   1      33.147  51.811  43.545  0.00  0.00    -0.353 OA
HETATM   39  C   UNK N   1      32.691  52.663  44.530  0.00  0.00     0.210 C 
ENDBRANCH  34  38
BRANCH  35  40
HETATM   40  O   UNK N   1      33.302  49.043  43.603  0.00  0.00    -0.358 OA
HETATM   41  H   UNK N   1      33.850  48.300  43.316  0.00  0.00     0.218 HD
ENDBRANCH  35  40
ENDBRANCH   6  32
TORSDOF 10
ENDMDL
MODEL 4
REMARK VINA RESULT:      -5.6      5.193      8.683
REMARK  10 active torsions:
REMARK  status: ('A' for Active; 'I' for Inactive)
REMARK    1  A    between atoms: C_6  and  C_10 
REMARK    2  A    between atoms: C_7  and  O_8 
REMARK    3  A    between atoms: C_12  and  O_13 
REMARK    4  A    between atoms: C_17  and  C_18 
REMARK    5  A    between atoms: C_20  and  O_21 
REMARK    6  A    between atoms: C_23  and  O_24 
REMARK    7  A    between atoms: C_28  and  C_29 
REMARK    8  A    between atoms: C_29  and  O_30 
REMARK    9  A    between atoms: C_35  and  O_36 
REMARK   10  A    between atoms: C_39  and  O_40 
ROOT
HETATM    1  C   UNK N   1      29.723  46.577  61.817  0.00  0.00    -0.023 A 
HETATM    2  C   UNK N   1      29.969  47.714  62.631  0.00  0.00     0.049 A 
HETATM    3  C   UNK N   1      31.143  47.803  63.403  0.00  0.00     0.100 A 
HETATM    4  C   UNK N   1      32.052  46.748  63.347  0.00  0.00     0.109 A 
HETATM    5  O   UNK N   1      33.191  46.644  64.034  0.00  0.00    -0.337 OA
HETATM    6  C   UNK N   1      33.694  45.355  63.919  0.00  0.00     0.172 C 
HETATM    7  C   UNK N   1      33.001  44.754  62.647  0.00  0.00     0.079 C 
HETATM    8  C   UNK N   1      31.835  45.666  62.557  0.00  0.00    -0.012 A 
HETATM    9  C   UNK N   1      30.695  45.547  61.773  0.00  0.00     0.020 A 
ENDROOT
BRANCH   1  10
HETATM   10  C   UNK N   1      28.412  46.512  61.041  0.00  0.00     0.198 C 
HETATM   11  O   UNK N   1      28.043  47.799  60.691  0.00  0.00    -0.337 OA
HETATM   12  C   UNK N   1      28.656  48.467  59.682  0.00  0.00     0.089 A 
HETATM   13  C   UNK N   1      29.307  47.761  58.633  0.00  0.00     0.079 A 
HETATM   14  C   UNK N   1      28.635  49.862  59.683  0.00  0.00     0.074 A 
HETATM   15  C   UNK N   1      29.208  46.265  58.670  0.00  0.00     0.196 C 
HETATM   16  C   UNK N   1      29.954  48.503  57.602  0.00  0.00     0.085 A 
HETATM   17  O   UNK N   1      29.622  45.568  57.758  0.00  0.00    -0.289 OA
HETATM   18  C   UNK N   1      28.425  45.615  59.781  0.00  0.00     0.227 C 
HETATM   19  C   UNK N   1      29.922  49.904  57.638  0.00  0.00     0.074 A 
HETATM   20  C   UNK N   1      29.264  50.581  58.667  0.00  0.00     0.071 A 
BRANCH  18  21
HETATM   21  O   UNK N   1      27.120  45.347  59.334  0.00  0.00    -0.385 OA
HETATM   22  H   UNK N   1      26.654  46.215  59.216  0.00  0.00     0.210 HD
ENDBRANCH  18  21
BRANCH  16  23
HETATM   23  O   UNK N   1      30.610  47.929  56.565  0.00  0.00    -0.360 OA
HETATM   24  H   UNK N   1      30.576  47.000  56.324  0.00  0.00     0.217 HD
ENDBRANCH  16  23
BRANCH  20  25
HETATM   25  O   UNK N   1      29.246  51.930  58.668  0.00  0.00    -0.361 OA
HETATM   26  H   UNK N   1      29.040  52.432  59.469  0.00  0.00     0.217 HD
ENDBRANCH  20  25
ENDBRANCH   1  10
BRANCH   3  27
HETATM   27  O   UNK N   1      31.382  48.870  64.192  0.00  0.00    -0.358 OA
HETATM   28  H   UNK N   1      31.783  49.678  63.842  0.00  0.00     0.218 HD
ENDBRANCH   3  27
BRANCH   7  29
HETATM   29  C   UNK N   1      32.688  43.259  62.747  0.00  0.00     0.176 C 
BRANCH  29  30
HETATM   30  O   UNK N   1      32.160  42.949  64.006  0.00  0.00    -0.400 OA
HETATM   31  H   UNK N   1      31.420  42.310  63.839  0.00  0.00     0.209 HD
ENDBRANCH  29  30
ENDBRANCH   7  29
BRANCH   6  32
HETATM   32  C   UNK N   1      35.194  45.290  63.881  0.00  0.00    -0.025 A 
HETATM   33  C   UNK N   1      35.910  46.096  62.989  0.00  0.00     0.049 A 
HETATM   34  C   UNK N   1      37.317  46.037  62.942  0.00  0.00     0.101 A 
HETATM   35  C   UNK N   1      38.000  45.157  63.807  0.00  0.00     0.099 A 
HETATM   36  C   UNK N   1      37.277  44.354  64.698  0.00  0.00     0.040 A 
HETATM   37  C   UNK N   1      35.885  44.420  64.735  0.00  0.00     0.012 A 
BRANCH  34  38
HETATM   38  O   UNK N   1      38.033  46.809  62.079  0.00  0.00    -0.353 OA
HETATM   39  C   UNK N   1      38.541  48.055  62.382  0.00  0.00     0.210 C 
ENDBRANCH  34  38
BRANCH  35  40
HETATM   40  O   UNK N   1      39.346  45.070  63.793  0.00  0.00    -0.358 OA
HETATM   41  H   UNK N   1      39.848  44.948  62.975  0.00  0.00     0.218 HD
ENDBRANCH  35  40
ENDBRANCH   6  32
TORSDOF 10
ENDMDL
MODEL 5
REMARK VINA RESULT:      -5.4      1.941      8.427
REMARK  10 active torsions:
REMARK  status: ('A' for Active; 'I' for Inactive)
REMARK    1  A    between atoms: C_6  and  C_10 
REMARK    2  A    between atoms: C_7  and  O_8 
REMARK    3  A    between atoms: C_12  and  O_13 
REMARK    4  A    between atoms: C_17  and  C_18 
REMARK    5  A    between atoms: C_20  and  O_21 
REMARK    6  A    between atoms: C_23  and  O_24 
REMARK    7  A    between atoms: C_28  and  C_29 
REMARK    8  A    between atoms: C_29  and  O_30 
REMARK    9  A    between atoms: C_35  and  O_36 
REMARK   10  A    between atoms: C_39  and  O_40 
ROOT
HETATM    1  C   UNK N   1      29.604  46.047  59.163  0.00  0.00    -0.023 A 
HETATM    2  C   UNK N   1      30.834  46.045  58.455  0.00  0.00     0.049 A 
HETATM    3  C   UNK N   1      31.167  44.979  57.598  0.00  0.00     0.100 A 
HETATM    4  C   UNK N   1      30.259  43.929  57.466  0.00  0.00     0.109 A 
HETATM    5  O   UNK N   1      30.422  42.826  56.734  0.00  0.00    -0.337 OA
HETATM    6  C   UNK N   1      29.437  41.900  57.052  0.00  0.00     0.172 C 
HETATM    7  C   UNK N   1      28.293  42.732  57.731  0.00  0.00     0.079 C 
HETATM    8  C   UNK N   1      29.072  43.931  58.124  0.00  0.00    -0.012 A 
HETATM    9  C   UNK N   1      28.704  44.970  58.969  0.00  0.00     0.020 A 
ENDROOT
BRANCH   1  10
HETATM   10  C   UNK N   1      29.317  47.203  60.114  0.00  0.00     0.198 C 
HETATM   11  O   UNK N   1      29.939  48.340  59.626  0.00  0.00    -0.337 OA
HETATM   12  C   UNK N   1      29.437  49.028  58.570  0.00  0.00     0.089 A 
HETATM   13  C   UNK N   1      28.054  48.958  58.248  0.00  0.00     0.079 A 
HETATM   14  C   UNK N   1      30.298  49.816  57.806  0.00  0.00     0.074 A 
HETATM   15  C   UNK N   1      27.190  48.154  59.173  0.00  0.00     0.196 C 
HETATM   16  C   UNK N   1      27.572  49.684  57.119  0.00  0.00     0.085 A 
HETATM   17  O   UNK N   1      25.975  48.127  59.062  0.00  0.00    -0.289 OA
HETATM   18  C   UNK N   1      27.822  47.500  60.375  0.00  0.00     0.227 C 
HETATM   19  C   UNK N   1      28.466  50.458  56.367  0.00  0.00     0.074 A 
HETATM   20  C   UNK N   1      29.818  50.529  56.708  0.00  0.00     0.071 A 
BRANCH  18  21
HETATM   21  O   UNK N   1      27.656  48.332  61.496  0.00  0.00    -0.385 OA
HETATM   22  H   UNK N   1      27.140  47.826  62.177  0.00  0.00     0.210 HD
ENDBRANCH  18  21
BRANCH  16  23
HETATM   23  O   UNK N   1      26.279  49.677  56.720  0.00  0.00    -0.360 OA
HETATM   24  H   UNK N   1      25.905  49.115  56.036  0.00  0.00     0.217 HD
ENDBRANCH  16  23
BRANCH  20  25
HETATM   25  O   UNK N   1      30.651  51.289  55.965  0.00  0.00    -0.361 OA
HETATM   26  H   UNK N   1      30.315  51.906  55.300  0.00  0.00     0.217 HD
ENDBRANCH  20  25
ENDBRANCH   1  10
BRANCH   3  27
HETATM   27  O   UNK N   1      32.339  44.956  56.932  0.00  0.00    -0.358 OA
HETATM   28  H   UNK N   1      33.141  44.591  57.333  0.00  0.00     0.218 HD
ENDBRANCH   3  27
BRANCH   7  29
HETATM   29  C   UNK N   1      27.563  41.997  58.857  0.00  0.00     0.176 C 
BRANCH  29  30
HETATM   30  O   UNK N   1      28.478  41.432  59.753  0.00  0.00    -0.400 OA
HETATM   31  H   UNK N   1      27.934  40.992  60.455  0.00  0.00     0.209 HD
ENDBRANCH  29  30
ENDBRANCH   7  29
BRANCH   6  32
HETATM   32  C   UNK N   1      28.977  41.078  55.882  0.00  0.00    -0.025 A 
HETATM   33  C   UNK N   1      28.934  41.640  54.601  0.00  0.00     0.049 A 
HETATM   34  C   UNK N   1      28.498  40.878  53.499  0.00  0.00     0.101 A 
HETATM   35  C   UNK N   1      28.106  39.538  53.699  0.00  0.00     0.099 A 
HETATM   36  C   UNK N   1      28.153  38.982  54.983  0.00  0.00     0.040 A 
HETATM   37  C   UNK N   1      28.585  39.745  56.067  0.00  0.00     0.012 A 
BRANCH  34  38
HETATM   38  O   UNK N   1      28.444  41.406  52.246  0.00  0.00    -0.353 OA
HETATM   39  C   UNK N   1      28.837  42.688  51.920  0.00  0.00     0.210 C 
ENDBRANCH  34  38
BRANCH  35  40
HETATM   40  O   UNK N   1      27.682  38.774  52.671  0.00  0.00    -0.358 OA
HETATM   41  H   UNK N   1      27.823  37.818  52.646  0.00  0.00     0.218 HD
ENDBRANCH  35  40
ENDBRANCH   6  32
TORSDOF 10
ENDMDL
MODEL 6
REMARK VINA RESULT:      -5.3      3.203      5.391
REMARK  10 active torsions:
REMARK  status: ('A' for Active; 'I' for Inactive)
REMARK    1  A    between atoms: C_6  and  C_10 
REMARK    2  A    between atoms: C_7  and  O_8 
REMARK    3  A    between atoms: C_12  and  O_13 
REMARK    4  A    between atoms: C_17  and  C_18 
REMARK    5  A    between atoms: C_20  and  O_21 
REMARK    6  A    between atoms: C_23  and  O_24 
REMARK    7  A    between atoms: C_28  and  C_29 
REMARK    8  A    between atoms: C_29  and  O_30 
REMARK    9  A    between atoms: C_35  and  O_36 
REMARK   10  A    between atoms: C_39  and  O_40 
ROOT
HETATM    1  C   UNK N   1      31.403  45.153  58.091  0.00  0.00    -0.023 A 
HETATM    2  C   UNK N   1      31.013  45.062  59.453  0.00  0.00     0.049 A 
HETATM    3  C   UNK N   1      30.292  46.105  60.065  0.00  0.00     0.100 A 
HETATM    4  C   UNK N   1      29.974  47.226  59.298  0.00  0.00     0.109 A 
HETATM    5  O   UNK N   1      29.334  48.319  59.718  0.00  0.00    -0.337 OA
HETATM    6  C   UNK N   1      29.430  49.317  58.758  0.00  0.00     0.172 C 
HETATM    7  C   UNK N   1      29.788  48.575  57.424  0.00  0.00     0.079 C 
HETATM    8  C   UNK N   1      30.325  47.313  57.990  0.00  0.00    -0.012 A 
HETATM    9  C   UNK N   1      31.027  46.301  57.350  0.00  0.00     0.020 A 
ENDROOT
BRANCH   1  10
HETATM   10  C   UNK N   1      32.224  44.015  57.495  0.00  0.00     0.198 C 
HETATM   11  O   UNK N   1      32.420  43.055  58.472  0.00  0.00    -0.337 OA
HETATM   12  C   UNK N   1      31.431  42.203  58.842  0.00  0.00     0.089 A 
HETATM   13  C   UNK N   1      30.366  41.894  57.951  0.00  0.00     0.079 A 
HETATM   14  C   UNK N   1      31.476  41.626  60.111  0.00  0.00     0.074 A 
HETATM   15  C   UNK N   1      30.444  42.495  56.580  0.00  0.00     0.196 C 
HETATM   16  C   UNK N   1      29.338  41.008  58.388  0.00  0.00     0.085 A 
HETATM   17  O   UNK N   1      29.653  42.200  55.699  0.00  0.00    -0.289 OA
HETATM   18  C   UNK N   1      31.631  43.355  56.228  0.00  0.00     0.227 C 
HETATM   19  C   UNK N   1      29.409  40.452  59.673  0.00  0.00     0.074 A 
HETATM   20  C   UNK N   1      30.470  40.753  60.528  0.00  0.00     0.071 A 
BRANCH  18  21
HETATM   21  O   UNK N   1      32.592  42.572  55.566  0.00  0.00    -0.385 OA
HETATM   22  H   UNK N   1      33.043  43.146  54.893  0.00  0.00     0.210 HD
ENDBRANCH  18  21
BRANCH  16  23
HETATM   23  O   UNK N   1      28.277  40.657  57.623  0.00  0.00    -0.360 OA
HETATM   24  H   UNK N   1      28.319  40.318  56.726  0.00  0.00     0.217 HD
ENDBRANCH  16  23
BRANCH  20  25
HETATM   25  O   UNK N   1      30.510  40.197  61.757  0.00  0.00    -0.361 OA
HETATM   26  H   UNK N   1      31.349  40.039  62.214  0.00  0.00     0.217 HD
ENDBRANCH  20  25
ENDBRANCH   1  10
BRANCH   3  27
HETATM   27  O   UNK N   1      29.930  46.040  61.362  0.00  0.00    -0.358 OA
HETATM   28  H   UNK N   1      29.691  46.834  61.860  0.00  0.00     0.218 HD
ENDBRANCH   3  27
BRANCH   7  29
HETATM   29  C   UNK N   1      30.724  49.357  56.500  0.00  0.00     0.176 C 
BRANCH  29  30
HETATM   30  O   UNK N   1      30.008  49.930  55.442  0.00  0.00    -0.400 OA
HETATM   31  H   UNK N   1      30.527  49.727  54.623  0.00  0.00     0.209 HD
ENDBRANCH  29  30
ENDBRANCH   7  29
BRANCH   6  32
HETATM   32  C   UNK N   1      28.206  50.184  58.661  0.00  0.00    -0.025 A 
HETATM   33  C   UNK N   1      27.166  49.837  57.791  0.00  0.00     0.049 A 
HETATM   34  C   UNK N   1      26.018  50.648  57.688  0.00  0.00     0.101 A 
HETATM   35  C   UNK N   1      25.925  51.815  58.475  0.00  0.00     0.099 A 
HETATM   36  C   UNK N   1      26.969  52.154  59.344  0.00  0.00     0.040 A 
HETATM   37  C   UNK N   1      28.101  51.346  59.437  0.00  0.00     0.012 A 
BRANCH  34  38
HETATM   38  O   UNK N   1      24.997  50.332  56.845  0.00  0.00    -0.353 OA
HETATM   39  C   UNK N   1      24.108  49.297  57.049  0.00  0.00     0.210 C 
ENDBRANCH  34  38
BRANCH  35  40
HETATM   40  O   UNK N   1      24.843  52.617  58.407  0.00  0.00    -0.358 OA
HETATM   41  H   UNK N   1      24.340  52.738  57.589  0.00  0.00     0.218 HD
ENDBRANCH  35  40
ENDBRANCH   6  32
TORSDOF 10
ENDMDL
MODEL 7
REMARK VINA RESULT:      -5.3     18.063     22.137
REMARK  10 active torsions:
REMARK  status: ('A' for Active; 'I' for Inactive)
REMARK    1  A    between atoms: C_6  and  C_10 
REMARK    2  A    between atoms: C_7  and  O_8 
REMARK    3  A    between atoms: C_12  and  O_13 
REMARK    4  A    between atoms: C_17  and  C_18 
REMARK    5  A    between atoms: C_20  and  O_21 
REMARK    6  A    between atoms: C_23  and  O_24 
REMARK    7  A    between atoms: C_28  and  C_29 
REMARK    8  A    between atoms: C_29  and  O_30 
REMARK    9  A    between atoms: C_35  and  O_36 
REMARK   10  A    between atoms: C_39  and  O_40 
ROOT
HETATM    1  C   UNK N   1      47.033  54.237  61.644  0.00  0.00    -0.023 A 
HETATM    2  C   UNK N   1      45.976  55.061  61.177  0.00  0.00     0.049 A 
HETATM    3  C   UNK N   1      46.109  55.789  59.979  0.00  0.00     0.100 A 
HETATM    4  C   UNK N   1      47.304  55.678  59.269  0.00  0.00     0.109 A 
HETATM    5  O   UNK N   1      47.619  56.319  58.142  0.00  0.00    -0.337 OA
HETATM    6  C   UNK N   1      48.973  56.162  57.875  0.00  0.00     0.172 C 
HETATM    7  C   UNK N   1      49.414  54.907  58.704  0.00  0.00     0.079 C 
HETATM    8  C   UNK N   1      48.312  54.878  59.698  0.00  0.00    -0.012 A 
HETATM    9  C   UNK N   1      48.214  54.137  60.867  0.00  0.00     0.020 A 
ENDROOT
BRANCH   1  10
HETATM   10  C   UNK N   1      46.852  53.510  62.972  0.00  0.00     0.198 C 
HETATM   11  O   UNK N   1      45.650  52.824  62.939  0.00  0.00    -0.337 OA
HETATM   12  C   UNK N   1      45.507  51.670  62.240  0.00  0.00     0.089 A 
HETATM   13  C   UNK N   1      46.633  50.851  61.951  0.00  0.00     0.079 A 
HETATM   14  C   UNK N   1      44.234  51.292  61.812  0.00  0.00     0.074 A 
HETATM   15  C   UNK N   1      47.948  51.294  62.521  0.00  0.00     0.196 C 
HETATM   16  C   UNK N   1      46.440  49.656  61.198  0.00  0.00     0.085 A 
HETATM   17  O   UNK N   1      48.952  50.605  62.441  0.00  0.00    -0.289 OA
HETATM   18  C   UNK N   1      47.992  52.542  63.365  0.00  0.00     0.227 C 
HETATM   19  C   UNK N   1      45.150  49.310  60.775  0.00  0.00     0.074 A 
HETATM   20  C   UNK N   1      44.053  50.117  61.082  0.00  0.00     0.071 A 
BRANCH  18  21
HETATM   21  O   UNK N   1      47.912  52.187  64.723  0.00  0.00    -0.385 OA
HETATM   22  H   UNK N   1      48.631  52.670  65.207  0.00  0.00     0.210 HD
ENDBRANCH  18  21
BRANCH  16  23
HETATM   23  O   UNK N   1      47.445  48.813  60.861  0.00  0.00    -0.360 OA
HETATM   24  H   UNK N   1      47.517  48.327  60.036  0.00  0.00     0.217 HD
ENDBRANCH  16  23
BRANCH  20  25
HETATM   25  O   UNK N   1      42.823  49.752  60.665  0.00  0.00    -0.361 OA
HETATM   26  H   UNK N   1      42.638  49.569  59.732  0.00  0.00     0.217 HD
ENDBRANCH  20  25
ENDBRANCH   1  10
BRANCH   3  27
HETATM   27  O   UNK N   1      45.120  56.588  59.532  0.00  0.00    -0.358 OA
HETATM   28  H   UNK N   1      44.214  56.506  59.865  0.00  0.00     0.218 HD
ENDBRANCH   3  27
BRANCH   7  29
HETATM   29  C   UNK N   1      50.834  54.991  59.268  0.00  0.00     0.176 C 
BRANCH  29  30
HETATM   30  O   UNK N   1      51.565  53.844  58.939  0.00  0.00    -0.400 OA
HETATM   31  H   UNK N   1      52.427  53.925  59.422  0.00  0.00     0.209 HD
ENDBRANCH  29  30
ENDBRANCH   7  29
BRANCH   6  32
HETATM   32  C   UNK N   1      49.294  56.065  56.410  0.00  0.00    -0.025 A 
HETATM   33  C   UNK N   1      48.917  57.092  55.538  0.00  0.00     0.049 A 
HETATM   34  C   UNK N   1      49.208  57.006  54.162  0.00  0.00     0.101 A 
HETATM   35  C   UNK N   1      49.888  55.873  53.670  0.00  0.00     0.099 A 
HETATM   36  C   UNK N   1      50.264  54.850  54.549  0.00  0.00     0.040 A 
HETATM   37  C   UNK N   1      49.970  54.944  55.909  0.00  0.00     0.012 A 
BRANCH  34  38
HETATM   38  O   UNK N   1      48.846  57.992  53.296  0.00  0.00    -0.353 OA
HETATM   39  C   UNK N   1      48.742  59.327  53.630  0.00  0.00     0.210 C 
ENDBRANCH  34  38
BRANCH  35  40
HETATM   40  O   UNK N   1      50.186  55.753  52.360  0.00  0.00    -0.358 OA
HETATM   41  H   UNK N   1      51.097  55.755  52.036  0.00  0.00     0.218 HD
ENDBRANCH  35  40
ENDBRANCH   6  32
TORSDOF 10
ENDMDL
MODEL 8
REMARK VINA RESULT:      -5.1     21.827     25.060
REMARK  10 active torsions:
REMARK  status: ('A' for Active; 'I' for Inactive)
REMARK    1  A    between atoms: C_6  and  C_10 
REMARK    2  A    between atoms: C_7  and  O_8 
REMARK    3  A    between atoms: C_12  and  O_13 
REMARK    4  A    between atoms: C_17  and  C_18 
REMARK    5  A    between atoms: C_20  and  O_21 
REMARK    6  A    between atoms: C_23  and  O_24 
REMARK    7  A    between atoms: C_28  and  C_29 
REMARK    8  A    between atoms: C_29  and  O_30 
REMARK    9  A    between atoms: C_35  and  O_36 
REMARK   10  A    between atoms: C_39  and  O_40 
ROOT
HETATM    1  C   UNK N   1      50.609  55.340  54.306  0.00  0.00    -0.023 A 
HETATM    2  C   UNK N   1      51.695  54.791  53.576  0.00  0.00     0.049 A 
HETATM    3  C   UNK N   1      52.369  53.646  54.046  0.00  0.00     0.100 A 
HETATM    4  C   UNK N   1      51.941  53.072  55.242  0.00  0.00     0.109 A 
HETATM    5  O   UNK N   1      52.480  52.016  55.853  0.00  0.00    -0.337 OA
HETATM    6  C   UNK N   1      51.959  51.898  57.135  0.00  0.00     0.172 C 
HETATM    7  C   UNK N   1      50.624  52.720  57.116  0.00  0.00     0.079 C 
HETATM    8  C   UNK N   1      50.891  53.579  55.936  0.00  0.00    -0.012 A 
HETATM    9  C   UNK N   1      50.195  54.699  55.500  0.00  0.00     0.020 A 
ENDROOT
BRANCH   1  10
HETATM   10  C   UNK N   1      49.948  56.608  53.776  0.00  0.00     0.198 C 
HETATM   11  O   UNK N   1      48.726  56.765  54.406  0.00  0.00    -0.337 OA
HETATM   12  C   UNK N   1      48.636  57.203  55.687  0.00  0.00     0.089 A 
HETATM   13  C   UNK N   1      49.673  57.989  56.261  0.00  0.00     0.079 A 
HETATM   14  C   UNK N   1      47.504  56.876  56.436  0.00  0.00     0.074 A 
HETATM   15  C   UNK N   1      50.810  58.360  55.358  0.00  0.00     0.196 C 
HETATM   16  C   UNK N   1      49.545  58.413  57.616  0.00  0.00     0.085 A 
HETATM   17  O   UNK N   1      51.689  59.131  55.708  0.00  0.00    -0.289 OA
HETATM   18  C   UNK N   1      50.778  57.905  53.922  0.00  0.00     0.227 C 
HETATM   19  C   UNK N   1      48.400  58.060  58.343  0.00  0.00     0.074 A 
HETATM   20  C   UNK N   1      47.383  57.301  57.758  0.00  0.00     0.071 A 
BRANCH  18  21
HETATM   21  O   UNK N   1      50.256  58.935  53.120  0.00  0.00    -0.385 OA
HETATM   22  H   UNK N   1      50.795  59.753  53.285  0.00  0.00     0.210 HD
ENDBRANCH  18  21
BRANCH  16  23
HETATM   23  O   UNK N   1      50.477  59.155  58.260  0.00  0.00    -0.360 OA
HETATM   24  H   UNK N   1      51.383  59.291  57.971  0.00  0.00     0.217 HD
ENDBRANCH  16  23
BRANCH  20  25
HETATM   25  O   UNK N   1      46.291  56.984  58.484  0.00  0.00    -0.361 OA
HETATM   26  H   UNK N   1      45.901  56.099  58.451  0.00  0.00     0.217 HD
ENDBRANCH  20  25
ENDBRANCH   1  10
BRANCH   3  27
HETATM   27  O   UNK N   1      53.413  53.123  53.372  0.00  0.00    -0.358 OA
HETATM   28  H   UNK N   1      54.004  53.680  52.844  0.00  0.00     0.218 HD
ENDBRANCH   3  27
BRANCH   7  29
HETATM   29  C   UNK N   1      50.311  53.444  58.426  0.00  0.00     0.176 C 
BRANCH  29  30
HETATM   30  O   UNK N   1      49.300  52.779  59.129  0.00  0.00    -0.400 OA
HETATM   31  H   UNK N   1      49.045  52.003  58.568  0.00  0.00     0.209 HD
ENDBRANCH  29  30
ENDBRANCH   7  29
BRANCH   6  32
HETATM   32  C   UNK N   1      51.791  50.477  57.592  0.00  0.00    -0.025 A 
HETATM   33  C   UNK N   1      51.693  49.443  56.654  0.00  0.00     0.049 A 
HETATM   34  C   UNK N   1      51.527  48.108  57.073  0.00  0.00     0.101 A 
HETATM   35  C   UNK N   1      51.464  47.822  58.453  0.00  0.00     0.099 A 
HETATM   36  C   UNK N   1      51.565  48.861  59.386  0.00  0.00     0.040 A 
HETATM   37  C   UNK N   1      51.727  50.178  58.960  0.00  0.00     0.012 A 
BRANCH  34  38
HETATM   38  O   UNK N   1      51.425  47.089  56.177  0.00  0.00    -0.353 OA
HETATM   39  C   UNK N   1      50.292  46.803  55.443  0.00  0.00     0.210 C 
ENDBRANCH  34  38
BRANCH  35  40
HETATM   40  O   UNK N   1      51.307  46.557  58.896  0.00  0.00    -0.358 OA
HETATM   41  H   UNK N   1      52.032  46.056  59.294  0.00  0.00     0.218 HD
ENDBRANCH  35  40
ENDBRANCH   6  32
TORSDOF 10
ENDMDL
MODEL 9
REMARK VINA RESULT:      -5.1     19.433     23.419
REMARK  10 active torsions:
REMARK  status: ('A' for Active; 'I' for Inactive)
REMARK    1  A    between atoms: C_6  and  C_10 
REMARK    2  A    between atoms: C_7  and  O_8 
REMARK    3  A    between atoms: C_12  and  O_13 
REMARK    4  A    between atoms: C_17  and  C_18 
REMARK    5  A    between atoms: C_20  and  O_21 
REMARK    6  A    between atoms: C_23  and  O_24 
REMARK    7  A    between atoms: C_28  and  C_29 
REMARK    8  A    between atoms: C_29  and  O_30 
REMARK    9  A    between atoms: C_35  and  O_36 
REMARK   10  A    between atoms: C_39  and  O_40 
ROOT
HETATM    1  C   UNK N   1      50.089  55.740  58.322  0.00  0.00    -0.023 A 
HETATM    2  C   UNK N   1      49.442  54.538  58.712  0.00  0.00     0.049 A 
HETATM    3  C   UNK N   1      48.122  54.561  59.203  0.00  0.00     0.100 A 
HETATM    4  C   UNK N   1      47.473  55.791  59.296  0.00  0.00     0.109 A 
HETATM    5  O   UNK N   1      46.244  56.006  59.769  0.00  0.00    -0.337 OA
HETATM    6  C   UNK N   1      46.041  57.368  59.947  0.00  0.00     0.172 C 
HETATM    7  C   UNK N   1      47.120  58.068  59.050  0.00  0.00     0.079 C 
HETATM    8  C   UNK N   1      48.077  56.943  58.907  0.00  0.00    -0.012 A 
HETATM    9  C   UNK N   1      49.372  56.959  58.407  0.00  0.00     0.020 A 
ENDROOT
BRANCH   1  10
HETATM   10  C   UNK N   1      51.535  55.662  57.844  0.00  0.00     0.198 C 
HETATM   11  O   UNK N   1      51.589  54.832  56.737  0.00  0.00    -0.337 OA
HETATM   12  C   UNK N   1      51.163  55.244  55.516  0.00  0.00     0.089 A 
HETATM   13  C   UNK N   1      51.133  56.627  55.185  0.00  0.00     0.079 A 
HETATM   14  C   UNK N   1      50.759  54.288  54.583  0.00  0.00     0.074 A 
HETATM   15  C   UNK N   1      51.664  57.575  56.219  0.00  0.00     0.196 C 
HETATM   16  C   UNK N   1      50.662  57.016  53.897  0.00  0.00     0.085 A 
HETATM   17  O   UNK N   1      51.800  58.766  55.994  0.00  0.00    -0.289 OA
HETATM   18  C   UNK N   1      52.203  57.016  57.510  0.00  0.00     0.227 C 
HETATM   19  C   UNK N   1      50.255  56.032  52.987  0.00  0.00     0.074 A 
HETATM   20  C   UNK N   1      50.306  54.677  53.323  0.00  0.00     0.071 A 
BRANCH  18  21
HETATM   21  O   UNK N   1      53.599  56.884  57.412  0.00  0.00    -0.385 OA
HETATM   22  H   UNK N   1      53.961  57.735  57.050  0.00  0.00     0.210 HD
ENDBRANCH  18  21
BRANCH  16  23
HETATM   23  O   UNK N   1      50.584  58.304  53.486  0.00  0.00    -0.360 OA
HETATM   24  H   UNK N   1      50.155  59.020  53.962  0.00  0.00     0.217 HD
ENDBRANCH  16  23
BRANCH  20  25
HETATM   25  O   UNK N   1      49.912  53.754  52.420  0.00  0.00    -0.361 OA
HETATM   26  H   UNK N   1      49.202  53.126  52.616  0.00  0.00     0.217 HD
ENDBRANCH  20  25
ENDBRANCH   1  10
BRANCH   3  27
HETATM   27  O   UNK N   1      47.501  53.429  59.592  0.00  0.00    -0.358 OA
HETATM   28  H   UNK N   1      46.887  53.422  60.341  0.00  0.00     0.218 HD
ENDBRANCH   3  27
BRANCH   7  29
HETATM   29  C   UNK N   1      47.682  59.365  59.634  0.00  0.00     0.176 C 
BRANCH  29  30
HETATM   30  O   UNK N   1      47.966  59.211  60.996  0.00  0.00    -0.400 OA
HETATM   31  H   UNK N   1      47.417  59.889  61.466  0.00  0.00     0.209 HD
ENDBRANCH  29  30
ENDBRANCH   7  29
BRANCH   6  32
HETATM   32  C   UNK N   1      44.635  57.814  59.664  0.00  0.00    -0.025 A 
HETATM   33  C   UNK N   1      43.582  57.381  60.478  0.00  0.00     0.049 A 
HETATM   34  C   UNK N   1      42.259  57.788  60.215  0.00  0.00     0.101 A 
HETATM   35  C   UNK N   1      42.004  58.640  59.121  0.00  0.00     0.099 A 
HETATM   36  C   UNK N   1      43.062  59.071  58.311  0.00  0.00     0.040 A 
HETATM   37  C   UNK N   1      44.368  58.661  58.579  0.00  0.00     0.012 A 
BRANCH  34  38
HETATM   38  O   UNK N   1      41.221  57.375  60.993  0.00  0.00    -0.353 OA
HETATM   39  C   UNK N   1      41.076  57.681  62.330  0.00  0.00     0.210 C 
ENDBRANCH  34  38
BRANCH  35  40
HETATM   40  O   UNK N   1      40.752  59.053  58.836  0.00  0.00    -0.358 OA
HETATM   41  H   UNK N   1      40.504  59.382  57.960  0.00  0.00     0.218 HD
ENDBRANCH  35  40
ENDBRANCH   6  32
TORSDOF 10
ENDMDL
