MODEL 1
REMARK VINA RESULT:      -5.9      0.000      0.000
REMARK  3 active torsions:
REMARK  status: ('A' for Active; 'I' for Inactive)
REMARK    1  A    between atoms: C_6  and  C_8 
REMARK    2  A    between atoms: C_20  and  O_21 
REMARK    3  A    between atoms: O_21  and  C_22 
ROOT
HETATM    1  O   UNK N   1      29.574  36.200  57.212  0.00  0.00    -0.287 OA
HETATM    2  C   UNK N   1      29.571  37.413  57.328  0.00  0.00     0.187 A 
HETATM    3  C   UNK N   1      29.738  38.019  58.582  0.00  0.00     0.049 A 
HETATM    4  C   UNK N   1      29.730  39.435  58.648  0.00  0.00     0.100 A 
HETATM    5  O   UNK N   1      29.514  40.162  57.556  0.00  0.00    -0.308 OA
HETATM    6  C   UNK N   1      29.361  39.615  56.351  0.00  0.00     0.090 A 
HETATM    7  C   UNK N   1      29.406  38.219  56.200  0.00  0.00     0.094 A 
HETATM    8  C   UNK N   1      29.965  40.051  59.881  0.00  0.00     0.022 A 
HETATM    9  C   UNK N   1      30.138  39.315  61.007  0.00  0.00     0.082 A 
HETATM   10  O   UNK N   1      30.349  40.082  62.075  0.00  0.00    -0.319 OA
HETATM   11  C   UNK N   1      30.445  41.421  61.720  0.00  0.00     0.278 C 
HETATM   12  O   UNK N   1      31.805  41.822  61.850  0.00  0.00    -0.347 OA
HETATM   13  C   UNK N   1      32.325  42.066  60.554  0.00  0.00     0.084 C 
HETATM   14  C   UNK N   1      31.116  42.383  59.662  0.00  0.00     0.179 C 
HETATM   15  C   UNK N   1      30.024  41.502  60.222  0.00  0.00     0.112 C 
HETATM   16  C   UNK N   1      33.145  40.843  60.076  0.00  0.00     0.048 C 
HETATM   17  C   UNK N   1      33.273  43.278  60.617  0.00  0.00     0.048 C 
HETATM   18  C   UNK N   1      30.113  37.922  60.994  0.00  0.00     0.038 A 
HETATM   19  C   UNK N   1      29.921  37.264  59.768  0.00  0.00     0.021 A 
ENDROOT
BRANCH   6  20
HETATM   20  C   UNK N   1      29.144  40.498  55.189  0.00  0.00    -0.002 A 
HETATM   21  C   UNK N   1      27.835  40.803  54.778  0.00  0.00     0.014 A 
HETATM   22  C   UNK N   1      27.618  41.636  53.677  0.00  0.00     0.001 A 
HETATM   23  C   UNK N   1      28.703  42.199  53.001  0.00  0.00     0.000 A 
HETATM   24  C   UNK N   1      30.007  41.917  53.414  0.00  0.00     0.001 A 
HETATM   25  C   UNK N   1      30.231  41.057  54.493  0.00  0.00     0.014 A 
ENDBRANCH   6  20
BRANCH  14  26
HETATM   26  O   UNK N   1      31.347  42.205  58.306  0.00  0.00    -0.312 OA
BRANCH  26  27
HETATM   27  C   UNK N   1      31.234  43.186  57.372  0.00  0.00     0.255 C 
HETATM   28  O   UNK N   1      32.224  43.642  56.815  0.00  0.00    -0.266 OA
HETATM   29  C   UNK N   1      29.878  43.697  57.004  0.00  0.00     0.126 C 
ENDBRANCH  26  27
ENDBRANCH  14  26
TORSDOF 3
ENDMDL
MODEL 2
REMARK VINA RESULT:      -5.4     18.268     21.171
REMARK  3 active torsions:
REMARK  status: ('A' for Active; 'I' for Inactive)
REMARK    1  A    between atoms: C_6  and  C_8 
REMARK    2  A    between atoms: C_20  and  O_21 
REMARK    3  A    between atoms: O_21  and  C_22 
ROOT
HETATM    1  O   UNK N   1      29.310  48.726  40.817  0.00  0.00    -0.287 OA
HETATM    2  C   UNK N   1      29.930  49.755  41.023  0.00  0.00     0.187 A 
HETATM    3  C   UNK N   1      29.575  50.952  40.385  0.00  0.00     0.049 A 
HETATM    4  C   UNK N   1      30.333  52.115  40.672  0.00  0.00     0.100 A 
HETATM    5  O   UNK N   1      31.385  52.054  41.483  0.00  0.00    -0.308 OA
HETATM    6  C   UNK N   1      31.740  50.934  42.110  0.00  0.00     0.090 A 
HETATM    7  C   UNK N   1      31.006  49.753  41.913  0.00  0.00     0.094 A 
HETATM    8  C   UNK N   1      29.945  53.329  40.096  0.00  0.00     0.022 A 
HETATM    9  C   UNK N   1      28.903  53.388  39.229  0.00  0.00     0.082 A 
HETATM   10  O   UNK N   1      28.691  54.628  38.791  0.00  0.00    -0.319 OA
HETATM   11  C   UNK N   1      29.527  55.535  39.429  0.00  0.00     0.278 C 
HETATM   12  O   UNK N   1      28.741  56.311  40.328  0.00  0.00    -0.347 OA
HETATM   13  C   UNK N   1      29.106  55.965  41.654  0.00  0.00     0.084 C 
HETATM   14  C   UNK N   1      30.532  55.401  41.570  0.00  0.00     0.179 C 
HETATM   15  C   UNK N   1      30.550  54.684  40.240  0.00  0.00     0.112 C 
HETATM   16  C   UNK N   1      28.077  54.968  42.240  0.00  0.00     0.048 C 
HETATM   17  C   UNK N   1      29.087  57.235  42.523  0.00  0.00     0.048 C 
HETATM   18  C   UNK N   1      28.157  52.262  38.888  0.00  0.00     0.038 A 
HETATM   19  C   UNK N   1      28.488  51.032  39.478  0.00  0.00     0.021 A 
ENDROOT
BRANCH   6  20
HETATM   20  C   UNK N   1      32.911  50.960  43.009  0.00  0.00    -0.002 A 
HETATM   21  C   UNK N   1      34.093  50.299  42.634  0.00  0.00     0.014 A 
HETATM   22  C   UNK N   1      35.207  50.315  43.478  0.00  0.00     0.001 A 
HETATM   23  C   UNK N   1      35.161  51.019  44.683  0.00  0.00     0.000 A 
HETATM   24  C   UNK N   1      33.996  51.694  45.056  0.00  0.00     0.001 A 
HETATM   25  C   UNK N   1      32.868  51.653  44.232  0.00  0.00     0.014 A 
ENDBRANCH   6  20
BRANCH  14  26
HETATM   26  O   UNK N   1      30.893  54.604  42.646  0.00  0.00    -0.312 OA
BRANCH  26  27
HETATM   27  C   UNK N   1      31.771  54.974  43.615  0.00  0.00     0.255 C 
HETATM   28  O   UNK N   1      32.862  55.448  43.329  0.00  0.00    -0.266 OA
HETATM   29  C   UNK N   1      31.386  54.819  45.052  0.00  0.00     0.126 C 
ENDBRANCH  26  27
ENDBRANCH  14  26
TORSDOF 3
ENDMDL
MODEL 3
REMARK VINA RESULT:      -5.3     17.744     21.505
REMARK  3 active torsions:
REMARK  status: ('A' for Active; 'I' for Inactive)
REMARK    1  A    between atoms: C_6  and  C_8 
REMARK    2  A    between atoms: C_20  and  O_21 
REMARK    3  A    between atoms: O_21  and  C_22 
ROOT
HETATM    1  O   UNK N   1      32.729  55.977  44.649  0.00  0.00    -0.287 OA
HETATM    2  C   UNK N   1      32.230  55.052  44.032  0.00  0.00     0.187 A 
HETATM    3  C   UNK N   1      31.066  55.236  43.272  0.00  0.00     0.049 A 
HETATM    4  C   UNK N   1      30.538  54.121  42.574  0.00  0.00     0.100 A 
HETATM    5  O   UNK N   1      31.103  52.923  42.685  0.00  0.00    -0.308 OA
HETATM    6  C   UNK N   1      32.215  52.720  43.392  0.00  0.00     0.090 A 
HETATM    7  C   UNK N   1      32.823  53.789  44.071  0.00  0.00     0.094 A 
HETATM    8  C   UNK N   1      29.418  54.309  41.757  0.00  0.00     0.022 A 
HETATM    9  C   UNK N   1      28.807  55.517  41.678  0.00  0.00     0.082 A 
HETATM   10  O   UNK N   1      27.763  55.493  40.851  0.00  0.00    -0.319 OA
HETATM   11  C   UNK N   1      27.657  54.264  40.213  0.00  0.00     0.278 C 
HETATM   12  O   UNK N   1      28.030  54.434  38.850  0.00  0.00    -0.347 OA
HETATM   13  C   UNK N   1      29.258  53.758  38.634  0.00  0.00     0.084 C 
HETATM   14  C   UNK N   1      29.346  52.677  39.721  0.00  0.00     0.179 C 
HETATM   15  C   UNK N   1      28.681  53.323  40.915  0.00  0.00     0.112 C 
HETATM   16  C   UNK N   1      30.429  54.771  38.669  0.00  0.00     0.048 C 
HETATM   17  C   UNK N   1      29.231  53.110  37.238  0.00  0.00     0.048 C 
HETATM   18  C   UNK N   1      29.268  56.629  42.379  0.00  0.00     0.038 A 
HETATM   19  C   UNK N   1      30.415  56.492  43.177  0.00  0.00     0.021 A 
ENDROOT
BRANCH   6  20
HETATM   20  C   UNK N   1      32.787  51.361  43.446  0.00  0.00    -0.002 A 
HETATM   21  C   UNK N   1      34.163  51.174  43.232  0.00  0.00     0.014 A 
HETATM   22  C   UNK N   1      34.715  49.891  43.278  0.00  0.00     0.001 A 
HETATM   23  C   UNK N   1      33.907  48.791  43.574  0.00  0.00     0.000 A 
HETATM   24  C   UNK N   1      32.541  48.969  43.806  0.00  0.00     0.001 A 
HETATM   25  C   UNK N   1      31.977  50.246  43.727  0.00  0.00     0.014 A 
ENDBRANCH   6  20
BRANCH  14  26
HETATM   26  O   UNK N   1      30.632  52.222  39.968  0.00  0.00    -0.312 OA
BRANCH  26  27
HETATM   27  C   UNK N   1      30.944  50.941  40.300  0.00  0.00     0.255 C 
HETATM   28  O   UNK N   1      32.097  50.538  40.239  0.00  0.00    -0.266 OA
HETATM   29  C   UNK N   1      29.862  50.021  40.767  0.00  0.00     0.126 C 
ENDBRANCH  26  27
ENDBRANCH  14  26
TORSDOF 3
ENDMDL
MODEL 4
REMARK VINA RESULT:      -5.3     20.918     23.504
REMARK  3 active torsions:
REMARK  status: ('A' for Active; 'I' for Inactive)
REMARK    1  A    between atoms: C_6  and  C_8 
REMARK    2  A    between atoms: C_20  and  O_21 
REMARK    3  A    between atoms: O_21  and  C_22 
ROOT
HETATM    1  O   UNK N   1      31.343  51.766  41.312  0.00  0.00    -0.287 OA
HETATM    2  C   UNK N   1      30.360  52.388  40.949  0.00  0.00     0.187 A 
HETATM    3  C   UNK N   1      30.124  53.695  41.401  0.00  0.00     0.049 A 
HETATM    4  C   UNK N   1      28.966  54.365  40.937  0.00  0.00     0.100 A 
HETATM    5  O   UNK N   1      28.100  53.748  40.139  0.00  0.00    -0.308 OA
HETATM    6  C   UNK N   1      28.302  52.511  39.686  0.00  0.00     0.090 A 
HETATM    7  C   UNK N   1      29.453  51.802  40.064  0.00  0.00     0.094 A 
HETATM    8  C   UNK N   1      28.757  55.693  41.325  0.00  0.00     0.022 A 
HETATM    9  C   UNK N   1      29.611  56.312  42.178  0.00  0.00     0.082 A 
HETATM   10  O   UNK N   1      29.242  57.568  42.425  0.00  0.00    -0.319 OA
HETATM   11  C   UNK N   1      28.147  57.930  41.653  0.00  0.00     0.278 C 
HETATM   12  O   UNK N   1      28.588  58.841  40.651  0.00  0.00    -0.347 OA
HETATM   13  C   UNK N   1      28.499  58.197  39.390  0.00  0.00     0.084 C 
HETATM   14  C   UNK N   1      27.448  57.089  39.551  0.00  0.00     0.179 C 
HETATM   15  C   UNK N   1      27.644  56.621  40.974  0.00  0.00     0.112 C 
HETATM   16  C   UNK N   1      29.893  57.674  38.967  0.00  0.00     0.048 C 
HETATM   17  C   UNK N   1      28.037  59.222  38.339  0.00  0.00     0.048 C 
HETATM   18  C   UNK N   1      30.739  55.676  42.690  0.00  0.00     0.038 A 
HETATM   19  C   UNK N   1      31.007  54.357  42.291  0.00  0.00     0.021 A 
ENDROOT
BRANCH   6  20
HETATM   20  C   UNK N   1      27.298  51.908  38.787  0.00  0.00    -0.002 A 
HETATM   21  C   UNK N   1      27.441  52.037  37.395  0.00  0.00     0.014 A 
HETATM   22  C   UNK N   1      26.495  51.473  36.535  0.00  0.00     0.001 A 
HETATM   23  C   UNK N   1      25.422  50.746  37.055  0.00  0.00     0.000 A 
HETATM   24  C   UNK N   1      25.282  50.596  38.437  0.00  0.00     0.001 A 
HETATM   25  C   UNK N   1      26.206  51.188  39.303  0.00  0.00     0.014 A 
ENDBRANCH   6  20
BRANCH  14  26
HETATM   26  O   UNK N   1      27.538  56.078  38.606  0.00  0.00    -0.312 OA
BRANCH  26  27
HETATM   27  C   UNK N   1      26.539  55.734  37.751  0.00  0.00     0.255 C 
HETATM   28  O   UNK N   1      26.620  55.982  36.556  0.00  0.00    -0.266 OA
HETATM   29  C   UNK N   1      25.335  55.022  38.279  0.00  0.00     0.126 C 
ENDBRANCH  26  27
ENDBRANCH  14  26
TORSDOF 3
ENDMDL
MODEL 5
REMARK VINA RESULT:      -5.2     19.176     23.062
REMARK  3 active torsions:
REMARK  status: ('A' for Active; 'I' for Inactive)
REMARK    1  A    between atoms: C_6  and  C_8 
REMARK    2  A    between atoms: C_20  and  O_21 
REMARK    3  A    between atoms: O_21  and  C_22 
ROOT
HETATM    1  O   UNK N   1      28.683  58.784  41.964  0.00  0.00    -0.287 OA
HETATM    2  C   UNK N   1      28.576  57.571  41.930  0.00  0.00     0.187 A 
HETATM    3  C   UNK N   1      27.501  56.958  41.269  0.00  0.00     0.049 A 
HETATM    4  C   UNK N   1      27.437  55.543  41.263  0.00  0.00     0.100 A 
HETATM    5  O   UNK N   1      28.344  54.821  41.913  0.00  0.00    -0.308 OA
HETATM    6  C   UNK N   1      29.381  55.374  42.542  0.00  0.00     0.090 A 
HETATM    7  C   UNK N   1      29.537  56.770  42.549  0.00  0.00     0.094 A 
HETATM    8  C   UNK N   1      26.409  54.920  40.548  0.00  0.00     0.022 A 
HETATM    9  C   UNK N   1      25.452  55.651  39.923  0.00  0.00     0.082 A 
HETATM   10  O   UNK N   1      24.565  54.878  39.299  0.00  0.00    -0.319 OA
HETATM   11  C   UNK N   1      24.928  53.540  39.370  0.00  0.00     0.278 C 
HETATM   12  O   UNK N   1      25.367  53.127  38.079  0.00  0.00    -0.347 OA
HETATM   13  C   UNK N   1      26.762  52.883  38.138  0.00  0.00     0.084 C 
HETATM   14  C   UNK N   1      27.081  52.579  39.609  0.00  0.00     0.179 C 
HETATM   15  C   UNK N   1      26.122  53.468  40.368  0.00  0.00     0.112 C 
HETATM   16  C   UNK N   1      27.534  54.102  37.575  0.00  0.00     0.048 C 
HETATM   17  C   UNK N   1      27.092  51.664  37.258  0.00  0.00     0.048 C 
HETATM   18  C   UNK N   1      25.454  57.044  39.938  0.00  0.00     0.038 A 
HETATM   19  C   UNK N   1      26.494  57.707  40.610  0.00  0.00     0.021 A 
ENDROOT
BRANCH   6  20
HETATM   20  C   UNK N   1      30.353  54.497  43.224  0.00  0.00    -0.002 A 
HETATM   21  C   UNK N   1      30.607  54.670  44.595  0.00  0.00     0.014 A 
HETATM   22  C   UNK N   1      31.527  53.847  45.250  0.00  0.00     0.001 A 
HETATM   23  C   UNK N   1      32.172  52.823  44.552  0.00  0.00     0.000 A 
HETATM   24  C   UNK N   1      31.912  52.632  43.193  0.00  0.00     0.001 A 
HETATM   25  C   UNK N   1      31.018  53.474  42.524  0.00  0.00     0.014 A 
ENDBRANCH   6  20
BRANCH  14  26
HETATM   26  O   UNK N   1      28.412  52.761  39.953  0.00  0.00    -0.312 OA
BRANCH  26  27
HETATM   27  C   UNK N   1      29.327  51.760  40.035  0.00  0.00     0.255 C 
HETATM   28  O   UNK N   1      28.986  50.613  40.291  0.00  0.00    -0.266 OA
HETATM   29  C   UNK N   1      30.770  52.063  39.785  0.00  0.00     0.126 C 
ENDBRANCH  26  27
ENDBRANCH  14  26
TORSDOF 3
ENDMDL
MODEL 6
REMARK VINA RESULT:      -4.9     19.593     23.040
REMARK  3 active torsions:
REMARK  status: ('A' for Active; 'I' for Inactive)
REMARK    1  A    between atoms: C_6  and  C_8 
REMARK    2  A    between atoms: C_20  and  O_21 
REMARK    3  A    between atoms: O_21  and  C_22 
ROOT
HETATM    1  O   UNK N   1      24.504  50.721  39.455  0.00  0.00    -0.287 OA
HETATM    2  C   UNK N   1      25.507  51.410  39.509  0.00  0.00     0.187 A 
HETATM    3  C   UNK N   1      25.479  52.758  39.123  0.00  0.00     0.049 A 
HETATM    4  C   UNK N   1      26.679  53.506  39.214  0.00  0.00     0.100 A 
HETATM    5  O   UNK N   1      27.811  52.927  39.603  0.00  0.00    -0.308 OA
HETATM    6  C   UNK N   1      27.866  51.651  39.984  0.00  0.00     0.090 A 
HETATM    7  C   UNK N   1      26.705  50.860  39.967  0.00  0.00     0.094 A 
HETATM    8  C   UNK N   1      26.647  54.868  38.899  0.00  0.00     0.022 A 
HETATM    9  C   UNK N   1      25.508  55.455  38.454  0.00  0.00     0.082 A 
HETATM   10  O   UNK N   1      25.679  56.753  38.209  0.00  0.00    -0.319 OA
HETATM   11  C   UNK N   1      26.950  57.170  38.582  0.00  0.00     0.278 C 
HETATM   12  O   UNK N   1      26.832  57.972  39.752  0.00  0.00    -0.347 OA
HETATM   13  C   UNK N   1      27.404  57.265  40.840  0.00  0.00     0.084 C 
HETATM   14  C   UNK N   1      28.402  56.273  40.225  0.00  0.00     0.179 C 
HETATM   15  C   UNK N   1      27.747  55.875  38.923  0.00  0.00     0.112 C 
HETATM   16  C   UNK N   1      26.288  56.587  41.672  0.00  0.00     0.048 C 
HETATM   17  C   UNK N   1      28.138  58.263  41.753  0.00  0.00     0.048 C 
HETATM   18  C   UNK N   1      24.316  54.747  38.311  0.00  0.00     0.038 A 
HETATM   19  C   UNK N   1      24.296  53.387  38.658  0.00  0.00     0.021 A 
ENDROOT
BRANCH   6  20
HETATM   20  C   UNK N   1      29.161  51.092  40.420  0.00  0.00    -0.002 A 
HETATM   21  C   UNK N   1      30.297  51.917  40.462  0.00  0.00     0.014 A 
HETATM   22  C   UNK N   1      31.529  51.398  40.871  0.00  0.00     0.001 A 
HETATM   23  C   UNK N   1      31.628  50.064  41.274  0.00  0.00     0.000 A 
HETATM   24  C   UNK N   1      30.499  49.242  41.252  0.00  0.00     0.001 A 
HETATM   25  C   UNK N   1      29.272  49.746  40.812  0.00  0.00     0.014 A 
ENDBRANCH   6  20
BRANCH  14  26
HETATM   26  O   UNK N   1      28.720  55.202  41.048  0.00  0.00    -0.312 OA
BRANCH  26  27
HETATM   27  C   UNK N   1      29.831  55.137  41.828  0.00  0.00     0.255 C 
HETATM   28  O   UNK N   1      29.784  54.653  42.951  0.00  0.00    -0.266 OA
HETATM   29  C   UNK N   1      31.133  55.643  41.295  0.00  0.00     0.126 C 
ENDBRANCH  26  27
ENDBRANCH  14  26
TORSDOF 3
ENDMDL
MODEL 7
REMARK VINA RESULT:      -4.8     23.423     25.117
REMARK  3 active torsions:
REMARK  status: ('A' for Active; 'I' for Inactive)
REMARK    1  A    between atoms: C_6  and  C_8 
REMARK    2  A    between atoms: C_20  and  O_21 
REMARK    3  A    between atoms: O_21  and  C_22 
ROOT
HETATM    1  O   UNK N   1      49.348  57.932  52.842  0.00  0.00    -0.287 OA
HETATM    2  C   UNK N   1      49.186  57.357  53.904  0.00  0.00     0.187 A 
HETATM    3  C   UNK N   1      49.814  56.131  54.166  0.00  0.00     0.049 A 
HETATM    4  C   UNK N   1      49.589  55.516  55.422  0.00  0.00     0.100 A 
HETATM    5  O   UNK N   1      48.760  56.065  56.305  0.00  0.00    -0.308 OA
HETATM    6  C   UNK N   1      48.157  57.233  56.089  0.00  0.00     0.090 A 
HETATM    7  C   UNK N   1      48.371  57.925  54.886  0.00  0.00     0.094 A 
HETATM    8  C   UNK N   1      50.265  54.329  55.720  0.00  0.00     0.022 A 
HETATM    9  C   UNK N   1      51.073  53.738  54.805  0.00  0.00     0.082 A 
HETATM   10  O   UNK N   1      51.624  52.620  55.277  0.00  0.00    -0.319 OA
HETATM   11  C   UNK N   1      51.304  52.429  56.614  0.00  0.00     0.278 C 
HETATM   12  O   UNK N   1      52.470  52.675  57.393  0.00  0.00    -0.347 OA
HETATM   13  C   UNK N   1      52.267  53.863  58.140  0.00  0.00     0.084 C 
HETATM   14  C   UNK N   1      50.746  54.031  58.268  0.00  0.00     0.179 C 
HETATM   15  C   UNK N   1      50.221  53.495  56.956  0.00  0.00     0.112 C 
HETATM   16  C   UNK N   1      52.966  55.052  57.439  0.00  0.00     0.048 C 
HETATM   17  C   UNK N   1      52.902  53.691  59.532  0.00  0.00     0.048 C 
HETATM   18  C   UNK N   1      51.291  54.286  53.543  0.00  0.00     0.038 A 
HETATM   19  C   UNK N   1      50.664  55.501  53.221  0.00  0.00     0.021 A 
ENDROOT
BRANCH   6  20
HETATM   20  C   UNK N   1      47.267  57.780  57.132  0.00  0.00    -0.002 A 
HETATM   21  C   UNK N   1      46.753  56.930  58.127  0.00  0.00     0.014 A 
HETATM   22  C   UNK N   1      45.907  57.436  59.117  0.00  0.00     0.001 A 
HETATM   23  C   UNK N   1      45.597  58.797  59.144  0.00  0.00     0.000 A 
HETATM   24  C   UNK N   1      46.117  59.653  58.170  0.00  0.00     0.001 A 
HETATM   25  C   UNK N   1      46.936  59.146  57.157  0.00  0.00     0.014 A 
ENDBRANCH   6  20
BRANCH  14  26
HETATM   26  O   UNK N   1      50.338  55.325  58.554  0.00  0.00    -0.312 OA
BRANCH  26  27
HETATM   27  C   UNK N   1      49.786  55.713  59.733  0.00  0.00     0.255 C 
HETATM   28  O   UNK N   1      49.251  54.902  60.477  0.00  0.00    -0.266 OA
HETATM   29  C   UNK N   1      49.854  57.152  60.137  0.00  0.00     0.126 C 
ENDBRANCH  26  27
ENDBRANCH  14  26
TORSDOF 3
ENDMDL
MODEL 8
REMARK VINA RESULT:      -4.7     18.201     20.715
REMARK  3 active torsions:
REMARK  status: ('A' for Active; 'I' for Inactive)
REMARK    1  A    between atoms: C_6  and  C_8 
REMARK    2  A    between atoms: C_20  and  O_21 
REMARK    3  A    between atoms: O_21  and  C_22 
ROOT
HETATM    1  O   UNK N   1      49.803  54.288  59.862  0.00  0.00    -0.287 OA
HETATM    2  C   UNK N   1      48.708  53.891  60.220  0.00  0.00     0.187 A 
HETATM    3  C   UNK N   1      48.427  52.520  60.304  0.00  0.00     0.049 A 
HETATM    4  C   UNK N   1      47.136  52.124  60.733  0.00  0.00     0.100 A 
HETATM    5  O   UNK N   1      46.201  53.033  60.993  0.00  0.00    -0.308 OA
HETATM    6  C   UNK N   1      46.441  54.343  60.931  0.00  0.00     0.090 A 
HETATM    7  C   UNK N   1      47.713  54.810  60.561  0.00  0.00     0.094 A 
HETATM    8  C   UNK N   1      46.868  50.761  60.888  0.00  0.00     0.022 A 
HETATM    9  C   UNK N   1      47.801  49.826  60.576  0.00  0.00     0.082 A 
HETATM   10  O   UNK N   1      47.356  48.589  60.792  0.00  0.00    -0.319 OA
HETATM   11  C   UNK N   1      46.099  48.603  61.380  0.00  0.00     0.278 C 
HETATM   12  O   UNK N   1      46.237  48.197  62.738  0.00  0.00    -0.347 OA
HETATM   13  C   UNK N   1      45.972  49.315  63.569  0.00  0.00     0.084 C 
HETATM   14  C   UNK N   1      45.096  50.265  62.739  0.00  0.00     0.179 C 
HETATM   15  C   UNK N   1      45.615  50.084  61.332  0.00  0.00     0.112 C 
HETATM   16  C   UNK N   1      47.304  49.949  64.038  0.00  0.00     0.048 C 
HETATM   17  C   UNK N   1      45.207  48.838  64.817  0.00  0.00     0.048 C 
HETATM   18  C   UNK N   1      49.069  50.170  60.113  0.00  0.00     0.038 A 
HETATM   19  C   UNK N   1      49.392  51.530  59.984  0.00  0.00     0.021 A 
ENDROOT
BRANCH   6  20
HETATM   20  C   UNK N   1      45.350  55.283  61.255  0.00  0.00    -0.002 A 
HETATM   21  C   UNK N   1      44.691  55.187  62.492  0.00  0.00     0.014 A 
HETATM   22  C   UNK N   1      43.655  56.070  62.809  0.00  0.00     0.001 A 
HETATM   23  C   UNK N   1      43.295  57.077  61.911  0.00  0.00     0.000 A 
HETATM   24  C   UNK N   1      43.957  57.192  60.686  0.00  0.00     0.001 A 
HETATM   25  C   UNK N   1      44.971  56.290  60.350  0.00  0.00     0.014 A 
ENDBRANCH   6  20
BRANCH  14  26
HETATM   26  O   UNK N   1      45.106  51.580  63.180  0.00  0.00    -0.312 OA
BRANCH  26  27
HETATM   27  C   UNK N   1      44.123  52.147  63.926  0.00  0.00     0.255 C 
HETATM   28  O   UNK N   1      44.369  52.652  65.013  0.00  0.00    -0.266 OA
HETATM   29  C   UNK N   1      42.724  52.174  63.399  0.00  0.00     0.126 C 
ENDBRANCH  26  27
ENDBRANCH  14  26
TORSDOF 3
ENDMDL
MODEL 9
REMARK VINA RESULT:      -4.7     19.523     23.856
REMARK  3 active torsions:
REMARK  status: ('A' for Active; 'I' for Inactive)
REMARK    1  A    between atoms: C_6  and  C_8 
REMARK    2  A    between atoms: C_20  and  O_21 
REMARK    3  A    between atoms: O_21  and  C_22 
ROOT
HETATM    1  O   UNK N   1      28.868  50.812  39.753  0.00  0.00    -0.287 OA
HETATM    2  C   UNK N   1      29.257  51.951  39.939  0.00  0.00     0.187 A 
HETATM    3  C   UNK N   1      29.097  52.940  38.958  0.00  0.00     0.049 A 
HETATM    4  C   UNK N   1      29.567  54.246  39.239  0.00  0.00     0.100 A 
HETATM    5  O   UNK N   1      30.193  54.509  40.382  0.00  0.00    -0.308 OA
HETATM    6  C   UNK N   1      30.353  53.593  41.337  0.00  0.00     0.090 A 
HETATM    7  C   UNK N   1      29.868  52.288  41.149  0.00  0.00     0.094 A 
HETATM    8  C   UNK N   1      29.350  55.256  38.297  0.00  0.00     0.022 A 
HETATM    9  C   UNK N   1      28.756  54.984  37.108  0.00  0.00     0.082 A 
HETATM   10  O   UNK N   1      28.639  56.074  36.350  0.00  0.00    -0.319 OA
HETATM   11  C   UNK N   1      29.058  57.208  37.033  0.00  0.00     0.278 C 
HETATM   12  O   UNK N   1      27.909  57.984  37.358  0.00  0.00    -0.347 OA
HETATM   13  C   UNK N   1      27.724  57.944  38.763  0.00  0.00     0.084 C 
HETATM   14  C   UNK N   1      29.100  57.624  39.365  0.00  0.00     0.179 C 
HETATM   15  C   UNK N   1      29.724  56.699  38.347  0.00  0.00     0.112 C 
HETATM   16  C   UNK N   1      26.633  56.904  39.121  0.00  0.00     0.048 C 
HETATM   17  C   UNK N   1      27.240  59.324  39.242  0.00  0.00     0.048 C 
HETATM   18  C   UNK N   1      28.315  53.706  36.774  0.00  0.00     0.038 A 
HETATM   19  C   UNK N   1      28.477  52.673  37.711  0.00  0.00     0.021 A 
ENDROOT
BRANCH   6  20
HETATM   20  C   UNK N   1      31.043  53.975  42.584  0.00  0.00    -0.002 A 
HETATM   21  C   UNK N   1      31.525  52.978  43.449  0.00  0.00     0.014 A 
HETATM   22  C   UNK N   1      32.178  53.328  44.634  0.00  0.00     0.001 A 
HETATM   23  C   UNK N   1      32.386  54.674  44.946  0.00  0.00     0.000 A 
HETATM   24  C   UNK N   1      31.927  55.672  44.084  0.00  0.00     0.001 A 
HETATM   25  C   UNK N   1      31.243  55.327  42.914  0.00  0.00     0.014 A 
ENDBRANCH   6  20
BRANCH  14  26
HETATM   26  O   UNK N   1      29.053  57.102  40.649  0.00  0.00    -0.312 OA
BRANCH  26  27
HETATM   27  C   UNK N   1      28.364  57.658  41.680  0.00  0.00     0.255 C 
HETATM   28  O   UNK N   1      28.586  58.807  42.039  0.00  0.00    -0.266 OA
HETATM   29  C   UNK N   1      27.304  56.861  42.369  0.00  0.00     0.126 C 
ENDBRANCH  26  27
ENDBRANCH  14  26
TORSDOF 3
ENDMDL
