MODEL 1
REMARK VINA RESULT:      -7.8      0.000      0.000
REMARK  8 active torsions:
REMARK  status: ('A' for Active; 'I' for Inactive)
REMARK    1  A    between atoms: C_3  and  C_17 
REMARK    2  A    between atoms: C_4  and  C_6 
REMARK    3  A    between atoms: C_6  and  C_7 
REMARK    4  A    between atoms: C_9  and  O_10 
REMARK    5  A    between atoms: C_12  and  O_13 
REMARK    6  A    between atoms: C_17  and  C_18 
REMARK    7  A    between atoms: C_20  and  O_21 
REMARK    8  A    between atoms: C_23  and  O_24 
ROOT
HETATM    1  O   UNK N   1      41.976  45.065  45.334  0.00  0.00    -0.390 OA
HETATM    2  C   UNK N   1      41.396  46.345  45.156  0.00  0.00     0.172 C 
HETATM    3  C   UNK N   1      40.303  46.509  46.205  0.00  0.00     0.020 C 
HETATM    4  C   UNK N   1      40.933  45.767  47.349  0.00  0.00     0.020 C 
HETATM    5  C   UNK N   1      41.533  44.588  46.592  0.00  0.00     0.172 C 
ENDROOT
BRANCH   3   6
HETATM    6  C   UNK N   1      39.993  47.985  46.539  0.00  0.00     0.045 C 
BRANCH   6   7
HETATM    7  C   UNK N   1      39.784  48.821  45.311  0.00  0.00    -0.055 A 
HETATM    8  C   UNK N   1      38.698  48.529  44.477  0.00  0.00     0.046 A 
HETATM    9  C   UNK N   1      38.445  49.297  43.328  0.00  0.00     0.101 A 
HETATM   10  C   UNK N   1      39.300  50.374  43.023  0.00  0.00     0.099 A 
HETATM   11  C   UNK N   1      40.388  50.663  43.860  0.00  0.00     0.040 A 
HETATM   12  C   UNK N   1      40.631  49.891  45.000  0.00  0.00     0.010 A 
BRANCH   9  13
HETATM   13  O   UNK N   1      37.392  49.026  42.508  0.00  0.00    -0.353 OA
HETATM   14  C   UNK N   1      36.494  47.991  42.692  0.00  0.00     0.210 C 
ENDBRANCH   9  13
BRANCH  10  15
HETATM   15  O   UNK N   1      39.090  51.141  41.932  0.00  0.00    -0.358 OA
HETATM   16  H   UNK N   1      39.605  51.943  41.757  0.00  0.00     0.218 HD
ENDBRANCH  10  15
ENDBRANCH   6   7
ENDBRANCH   3   6
BRANCH   4  17
HETATM   17  C   UNK N   1      39.914  45.343  48.429  0.00  0.00     0.045 C 
BRANCH  17  18
HETATM   18  C   UNK N   1      40.551  45.124  49.770  0.00  0.00    -0.055 A 
HETATM   19  C   UNK N   1      40.098  44.061  50.563  0.00  0.00     0.046 A 
HETATM   20  C   UNK N   1      40.679  43.799  51.815  0.00  0.00     0.101 A 
HETATM   21  C   UNK N   1      41.732  44.620  52.268  0.00  0.00     0.099 A 
HETATM   22  C   UNK N   1      42.182  45.682  51.471  0.00  0.00     0.040 A 
HETATM   23  C   UNK N   1      41.596  45.935  50.227  0.00  0.00     0.010 A 
BRANCH  20  24
HETATM   24  O   UNK N   1      40.251  42.769  52.597  0.00  0.00    -0.353 OA
HETATM   25  C   UNK N   1      39.392  42.900  53.672  0.00  0.00     0.210 C 
ENDBRANCH  20  24
BRANCH  21  26
HETATM   26  O   UNK N   1      42.321  44.398  53.461  0.00  0.00    -0.358 OA
HETATM   27  H   UNK N   1      42.688  45.116  53.998  0.00  0.00     0.218 HD
ENDBRANCH  21  26
ENDBRANCH  17  18
ENDBRANCH   4  17
TORSDOF 8
ENDMDL
MODEL 2
REMARK VINA RESULT:      -7.8      0.076      8.776
REMARK  8 active torsions:
REMARK  status: ('A' for Active; 'I' for Inactive)
REMARK    1  A    between atoms: C_3  and  C_17 
REMARK    2  A    between atoms: C_4  and  C_6 
REMARK    3  A    between atoms: C_6  and  C_7 
REMARK    4  A    between atoms: C_9  and  O_10 
REMARK    5  A    between atoms: C_12  and  O_13 
REMARK    6  A    between atoms: C_17  and  C_18 
REMARK    7  A    between atoms: C_20  and  O_21 
REMARK    8  A    between atoms: C_23  and  O_24 
ROOT
HETATM    1  O   UNK N   1      41.965  45.034  45.270  0.00  0.00    -0.390 OA
HETATM    2  C   UNK N   1      41.531  44.551  46.529  0.00  0.00     0.172 C 
HETATM    3  C   UNK N   1      40.947  45.728  47.302  0.00  0.00     0.020 C 
HETATM    4  C   UNK N   1      40.318  46.489  46.171  0.00  0.00     0.020 C 
HETATM    5  C   UNK N   1      41.403  46.325  45.114  0.00  0.00     0.172 C 
ENDROOT
BRANCH   3   6
HETATM    6  C   UNK N   1      39.931  45.304  48.385  0.00  0.00     0.045 C 
BRANCH   6   7
HETATM    7  C   UNK N   1      40.570  45.113  49.729  0.00  0.00    -0.055 A 
HETATM    8  C   UNK N   1      40.137  44.051  50.533  0.00  0.00     0.046 A 
HETATM    9  C   UNK N   1      40.719  43.816  51.791  0.00  0.00     0.101 A 
HETATM   10  C   UNK N   1      41.753  44.663  52.236  0.00  0.00     0.099 A 
HETATM   11  C   UNK N   1      42.183  45.726  51.428  0.00  0.00     0.040 A 
HETATM   12  C   UNK N   1      41.595  45.952  50.180  0.00  0.00     0.010 A 
BRANCH   9  13
HETATM   13  O   UNK N   1      40.310  42.787  52.583  0.00  0.00    -0.353 OA
HETATM   14  C   UNK N   1      39.382  42.896  53.602  0.00  0.00     0.210 C 
ENDBRANCH   9  13
BRANCH  10  15
HETATM   15  O   UNK N   1      42.343  44.469  53.434  0.00  0.00    -0.358 OA
HETATM   16  H   UNK N   1      42.400  45.168  54.101  0.00  0.00     0.218 HD
ENDBRANCH  10  15
ENDBRANCH   6   7
ENDBRANCH   3   6
BRANCH   4  17
HETATM   17  C   UNK N   1      40.027  47.965  46.523  0.00  0.00     0.045 C 
BRANCH  17  18
HETATM   18  C   UNK N   1      39.822  48.819  45.307  0.00  0.00    -0.055 A 
HETATM   19  C   UNK N   1      38.786  48.491  44.422  0.00  0.00     0.046 A 
HETATM   20  C   UNK N   1      38.538  49.274  43.282  0.00  0.00     0.101 A 
HETATM   21  C   UNK N   1      39.346  50.402  43.035  0.00  0.00     0.099 A 
HETATM   22  C   UNK N   1      40.383  50.726  43.922  0.00  0.00     0.040 A 
HETATM   23  C   UNK N   1      40.621  49.940  45.054  0.00  0.00     0.010 A 
BRANCH  20  24
HETATM   24  O   UNK N   1      37.534  48.968  42.414  0.00  0.00    -0.353 OA
HETATM   25  C   UNK N   1      36.494  48.098  42.685  0.00  0.00     0.210 C 
ENDBRANCH  20  24
BRANCH  21  26
HETATM   26  O   UNK N   1      39.137  51.183  41.956  0.00  0.00    -0.358 OA
HETATM   27  H   UNK N   1      39.204  52.148  41.995  0.00  0.00     0.218 HD
ENDBRANCH  21  26
ENDBRANCH  17  18
ENDBRANCH   4  17
TORSDOF 8
ENDMDL
MODEL 3
REMARK VINA RESULT:      -6.8      2.974      8.100
REMARK  8 active torsions:
REMARK  status: ('A' for Active; 'I' for Inactive)
REMARK    1  A    between atoms: C_3  and  C_17 
REMARK    2  A    between atoms: C_4  and  C_6 
REMARK    3  A    between atoms: C_6  and  C_7 
REMARK    4  A    between atoms: C_9  and  O_10 
REMARK    5  A    between atoms: C_12  and  O_13 
REMARK    6  A    between atoms: C_17  and  C_18 
REMARK    7  A    between atoms: C_20  and  O_21 
REMARK    8  A    between atoms: C_23  and  O_24 
ROOT
HETATM    1  O   UNK N   1      42.693  47.164  48.432  0.00  0.00    -0.390 OA
HETATM    2  C   UNK N   1      42.074  45.934  48.101  0.00  0.00     0.172 C 
HETATM    3  C   UNK N   1      40.652  46.238  47.646  0.00  0.00     0.020 C 
HETATM    4  C   UNK N   1      40.882  47.545  46.943  0.00  0.00     0.020 C 
HETATM    5  C   UNK N   1      41.865  48.190  47.914  0.00  0.00     0.172 C 
ENDROOT
BRANCH   3   6
HETATM    6  C   UNK N   1      40.061  45.150  46.722  0.00  0.00     0.045 C 
BRANCH   6   7
HETATM    7  C   UNK N   1      41.120  44.377  45.993  0.00  0.00    -0.055 A 
HETATM    8  C   UNK N   1      41.702  43.274  46.628  0.00  0.00     0.046 A 
HETATM    9  C   UNK N   1      42.682  42.502  45.978  0.00  0.00     0.101 A 
HETATM   10  C   UNK N   1      43.072  42.852  44.670  0.00  0.00     0.099 A 
HETATM   11  C   UNK N   1      42.487  43.959  44.038  0.00  0.00     0.040 A 
HETATM   12  C   UNK N   1      41.515  44.720  44.695  0.00  0.00     0.010 A 
BRANCH   9  13
HETATM   13  O   UNK N   1      43.256  41.425  46.582  0.00  0.00    -0.353 OA
HETATM   14  C   UNK N   1      42.680  40.172  46.675  0.00  0.00     0.210 C 
ENDBRANCH   9  13
BRANCH  10  15
HETATM   15  O   UNK N   1      44.005  42.136  44.009  0.00  0.00    -0.358 OA
HETATM   16  H   UNK N   1      44.152  42.233  43.057  0.00  0.00     0.218 HD
ENDBRANCH  10  15
ENDBRANCH   6   7
ENDBRANCH   3   6
BRANCH   4  17
HETATM   17  C   UNK N   1      39.588  48.365  46.751  0.00  0.00     0.045 C 
BRANCH  17  18
HETATM   18  C   UNK N   1      39.516  49.023  45.405  0.00  0.00    -0.055 A 
HETATM   19  C   UNK N   1      38.539  48.593  44.498  0.00  0.00     0.046 A 
HETATM   20  C   UNK N   1      38.415  49.195  43.234  0.00  0.00     0.101 A 
HETATM   21  C   UNK N   1      39.290  50.245  42.885  0.00  0.00     0.099 A 
HETATM   22  C   UNK N   1      40.267  50.672  43.796  0.00  0.00     0.040 A 
HETATM   23  C   UNK N   1      40.381  50.065  45.051  0.00  0.00     0.010 A 
BRANCH  20  24
HETATM   24  O   UNK N   1      37.470  48.789  42.342  0.00  0.00    -0.353 OA
HETATM   25  C   UNK N   1      36.356  48.036  42.661  0.00  0.00     0.210 C 
ENDBRANCH  20  24
BRANCH  21  26
HETATM   26  O   UNK N   1      39.200  50.853  41.685  0.00  0.00    -0.358 OA
HETATM   27  H   UNK N   1      39.828  50.677  40.968  0.00  0.00     0.218 HD
ENDBRANCH  21  26
ENDBRANCH  17  18
ENDBRANCH   4  17
TORSDOF 8
ENDMDL
MODEL 4
REMARK VINA RESULT:      -6.5     10.939     14.755
REMARK  8 active torsions:
REMARK  status: ('A' for Active; 'I' for Inactive)
REMARK    1  A    between atoms: C_3  and  C_17 
REMARK    2  A    between atoms: C_4  and  C_6 
REMARK    3  A    between atoms: C_6  and  C_7 
REMARK    4  A    between atoms: C_9  and  O_10 
REMARK    5  A    between atoms: C_12  and  O_13 
REMARK    6  A    between atoms: C_17  and  C_18 
REMARK    7  A    between atoms: C_20  and  O_21 
REMARK    8  A    between atoms: C_23  and  O_24 
ROOT
HETATM    1  O   UNK N   1      26.576  54.992  42.376  0.00  0.00    -0.390 OA
HETATM    2  C   UNK N   1      27.738  55.339  43.107  0.00  0.00     0.172 C 
HETATM    3  C   UNK N   1      28.948  54.946  42.268  0.00  0.00     0.020 C 
HETATM    4  C   UNK N   1      28.416  55.244  40.896  0.00  0.00     0.020 C 
HETATM    5  C   UNK N   1      26.994  54.718  41.051  0.00  0.00     0.172 C 
ENDROOT
BRANCH   3   6
HETATM    6  C   UNK N   1      30.219  55.753  42.613  0.00  0.00     0.045 C 
BRANCH   6   7
HETATM    7  C   UNK N   1      31.232  54.940  43.363  0.00  0.00    -0.055 A 
HETATM    8  C   UNK N   1      32.341  55.592  43.916  0.00  0.00     0.046 A 
HETATM    9  C   UNK N   1      33.306  54.879  44.648  0.00  0.00     0.101 A 
HETATM   10  C   UNK N   1      33.143  53.490  44.823  0.00  0.00     0.099 A 
HETATM   11  C   UNK N   1      32.032  52.840  44.266  0.00  0.00     0.040 A 
HETATM   12  C   UNK N   1      31.080  53.560  43.539  0.00  0.00     0.010 A 
BRANCH   9  13
HETATM   13  O   UNK N   1      34.388  55.499  45.194  0.00  0.00    -0.353 OA
HETATM   14  C   UNK N   1      34.326  56.550  46.090  0.00  0.00     0.210 C 
ENDBRANCH   9  13
BRANCH  10  15
HETATM   15  O   UNK N   1      34.043  52.768  45.523  0.00  0.00    -0.358 OA
HETATM   16  H   UNK N   1      34.997  52.920  45.450  0.00  0.00     0.218 HD
ENDBRANCH  10  15
ENDBRANCH   6   7
ENDBRANCH   3   6
BRANCH   4  17
HETATM   17  C   UNK N   1      29.209  54.539  39.774  0.00  0.00     0.045 C 
BRANCH  17  18
HETATM   18  C   UNK N   1      29.475  53.094  40.075  0.00  0.00    -0.055 A 
HETATM   19  C   UNK N   1      28.390  52.208  40.129  0.00  0.00     0.046 A 
HETATM   20  C   UNK N   1      28.589  50.841  40.383  0.00  0.00     0.101 A 
HETATM   21  C   UNK N   1      29.900  50.364  40.583  0.00  0.00     0.099 A 
HETATM   22  C   UNK N   1      30.983  51.253  40.529  0.00  0.00     0.040 A 
HETATM   23  C   UNK N   1      30.773  52.613  40.276  0.00  0.00     0.010 A 
BRANCH  20  24
HETATM   24  O   UNK N   1      27.545  49.968  40.438  0.00  0.00    -0.353 OA
HETATM   25  C   UNK N   1      26.268  50.290  40.860  0.00  0.00     0.210 C 
ENDBRANCH  20  24
BRANCH  21  26
HETATM   26  O   UNK N   1      30.135  49.057  40.824  0.00  0.00    -0.358 OA
HETATM   27  H   UNK N   1      29.419  48.413  40.923  0.00  0.00     0.218 HD
ENDBRANCH  21  26
ENDBRANCH  17  18
ENDBRANCH   4  17
TORSDOF 8
ENDMDL
MODEL 5
REMARK VINA RESULT:      -6.5     10.988     14.134
REMARK  8 active torsions:
REMARK  status: ('A' for Active; 'I' for Inactive)
REMARK    1  A    between atoms: C_3  and  C_17 
REMARK    2  A    between atoms: C_4  and  C_6 
REMARK    3  A    between atoms: C_6  and  C_7 
REMARK    4  A    between atoms: C_9  and  O_10 
REMARK    5  A    between atoms: C_12  and  O_13 
REMARK    6  A    between atoms: C_17  and  C_18 
REMARK    7  A    between atoms: C_20  and  O_21 
REMARK    8  A    between atoms: C_23  and  O_24 
ROOT
HETATM    1  O   UNK N   1      26.506  54.988  42.369  0.00  0.00    -0.390 OA
HETATM    2  C   UNK N   1      26.918  54.718  41.041  0.00  0.00     0.172 C 
HETATM    3  C   UNK N   1      28.340  55.244  40.881  0.00  0.00     0.020 C 
HETATM    4  C   UNK N   1      28.877  54.948  42.252  0.00  0.00     0.020 C 
HETATM    5  C   UNK N   1      27.670  55.344  43.093  0.00  0.00     0.172 C 
ENDROOT
BRANCH   3   6
HETATM    6  C   UNK N   1      29.129  54.538  39.756  0.00  0.00     0.045 C 
BRANCH   6   7
HETATM    7  C   UNK N   1      29.408  53.097  40.066  0.00  0.00    -0.055 A 
HETATM    8  C   UNK N   1      28.334  52.198  40.105  0.00  0.00     0.046 A 
HETATM    9  C   UNK N   1      28.546  50.834  40.368  0.00  0.00     0.101 A 
HETATM   10  C   UNK N   1      29.859  50.375  40.590  0.00  0.00     0.099 A 
HETATM   11  C   UNK N   1      30.932  51.278  40.552  0.00  0.00     0.040 A 
HETATM   12  C   UNK N   1      30.709  52.633  40.291  0.00  0.00     0.010 A 
BRANCH   9  13
HETATM   13  O   UNK N   1      27.512  49.948  40.407  0.00  0.00    -0.353 OA
HETATM   14  C   UNK N   1      26.286  50.192  40.997  0.00  0.00     0.210 C 
ENDBRANCH   9  13
BRANCH  10  15
HETATM   15  O   UNK N   1      30.107  49.072  40.840  0.00  0.00    -0.358 OA
HETATM   16  H   UNK N   1      30.002  48.686  41.722  0.00  0.00     0.218 HD
ENDBRANCH  10  15
ENDBRANCH   6   7
ENDBRANCH   3   6
BRANCH   4  17
HETATM   17  C   UNK N   1      30.149  55.758  42.590  0.00  0.00     0.045 C 
BRANCH  17  18
HETATM   18  C   UNK N   1      31.168  54.947  43.335  0.00  0.00    -0.055 A 
HETATM   19  C   UNK N   1      32.290  55.599  43.862  0.00  0.00     0.046 A 
HETATM   20  C   UNK N   1      33.261  54.888  44.589  0.00  0.00     0.101 A 
HETATM   21  C   UNK N   1      33.092  53.503  44.785  0.00  0.00     0.099 A 
HETATM   22  C   UNK N   1      31.968  52.854  44.255  0.00  0.00     0.040 A 
HETATM   23  C   UNK N   1      31.008  53.571  43.533  0.00  0.00     0.010 A 
BRANCH  20  24
HETATM   24  O   UNK N   1      34.356  55.509  45.108  0.00  0.00    -0.353 OA
HETATM   25  C   UNK N   1      34.316  56.558  46.007  0.00  0.00     0.210 C 
ENDBRANCH  20  24
BRANCH  21  26
HETATM   26  O   UNK N   1      33.997  52.785  45.482  0.00  0.00    -0.358 OA
HETATM   27  H   UNK N   1      33.741  52.181  46.195  0.00  0.00     0.218 HD
ENDBRANCH  21  26
ENDBRANCH  17  18
ENDBRANCH   4  17
TORSDOF 8
ENDMDL
MODEL 6
REMARK VINA RESULT:      -6.3     10.159     13.752
REMARK  8 active torsions:
REMARK  status: ('A' for Active; 'I' for Inactive)
REMARK    1  A    between atoms: C_3  and  C_17 
REMARK    2  A    between atoms: C_4  and  C_6 
REMARK    3  A    between atoms: C_6  and  C_7 
REMARK    4  A    between atoms: C_9  and  O_10 
REMARK    5  A    between atoms: C_12  and  O_13 
REMARK    6  A    between atoms: C_17  and  C_18 
REMARK    7  A    between atoms: C_20  and  O_21 
REMARK    8  A    between atoms: C_23  and  O_24 
ROOT
HETATM    1  O   UNK N   1      26.823  54.979  42.592  0.00  0.00    -0.390 OA
HETATM    2  C   UNK N   1      27.166  54.691  41.249  0.00  0.00     0.172 C 
HETATM    3  C   UNK N   1      28.596  55.169  41.023  0.00  0.00     0.020 C 
HETATM    4  C   UNK N   1      29.184  54.860  42.369  0.00  0.00     0.020 C 
HETATM    5  C   UNK N   1      28.030  55.297  43.262  0.00  0.00     0.172 C 
ENDROOT
BRANCH   3   6
HETATM    6  C   UNK N   1      29.310  54.434  39.867  0.00  0.00     0.045 C 
BRANCH   6   7
HETATM    7  C   UNK N   1      29.489  52.970  40.140  0.00  0.00    -0.055 A 
HETATM    8  C   UNK N   1      28.356  52.148  40.167  0.00  0.00     0.046 A 
HETATM    9  C   UNK N   1      28.474  50.766  40.395  0.00  0.00     0.101 A 
HETATM   10  C   UNK N   1      29.754  50.211  40.595  0.00  0.00     0.099 A 
HETATM   11  C   UNK N   1      30.887  51.038  40.569  0.00  0.00     0.040 A 
HETATM   12  C   UNK N   1      30.757  52.412  40.342  0.00  0.00     0.010 A 
BRANCH   9  13
HETATM   13  O   UNK N   1      27.382  49.953  40.423  0.00  0.00    -0.353 OA
HETATM   14  C   UNK N   1      26.212  50.227  41.108  0.00  0.00     0.210 C 
ENDBRANCH   9  13
BRANCH  10  15
HETATM   15  O   UNK N   1      29.912  48.889  40.812  0.00  0.00    -0.358 OA
HETATM   16  H   UNK N   1      29.159  48.285  40.895  0.00  0.00     0.218 HD
ENDBRANCH  10  15
ENDBRANCH   6   7
ENDBRANCH   3   6
BRANCH   4  17
HETATM   17  C   UNK N   1      30.496  55.627  42.646  0.00  0.00     0.045 C 
BRANCH  17  18
HETATM   18  C   UNK N   1      31.469  54.830  43.464  0.00  0.00    -0.055 A 
HETATM   19  C   UNK N   1      31.325  53.437  43.509  0.00  0.00     0.046 A 
HETATM   20  C   UNK N   1      32.225  52.644  44.241  0.00  0.00     0.101 A 
HETATM   21  C   UNK N   1      33.284  53.268  44.932  0.00  0.00     0.099 A 
HETATM   22  C   UNK N   1      33.424  54.662  44.884  0.00  0.00     0.040 A 
HETATM   23  C   UNK N   1      32.522  55.442  44.153  0.00  0.00     0.010 A 
BRANCH  20  24
HETATM   24  O   UNK N   1      32.099  51.289  44.294  0.00  0.00    -0.353 OA
HETATM   25  C   UNK N   1      32.824  50.398  43.524  0.00  0.00     0.210 C 
ENDBRANCH  20  24
BRANCH  21  26
HETATM   26  O   UNK N   1      34.173  52.542  45.641  0.00  0.00    -0.358 OA
HETATM   27  H   UNK N   1      34.558  52.862  46.470  0.00  0.00     0.218 HD
ENDBRANCH  21  26
ENDBRANCH  17  18
ENDBRANCH   4  17
TORSDOF 8
ENDMDL
MODEL 7
REMARK VINA RESULT:      -6.2      1.570      1.997
REMARK  8 active torsions:
REMARK  status: ('A' for Active; 'I' for Inactive)
REMARK    1  A    between atoms: C_3  and  C_17 
REMARK    2  A    between atoms: C_4  and  C_6 
REMARK    3  A    between atoms: C_6  and  C_7 
REMARK    4  A    between atoms: C_9  and  O_10 
REMARK    5  A    between atoms: C_12  and  O_13 
REMARK    6  A    between atoms: C_17  and  C_18 
REMARK    7  A    between atoms: C_20  and  O_21 
REMARK    8  A    between atoms: C_23  and  O_24 
ROOT
HETATM    1  O   UNK N   1      37.884  45.305  48.264  0.00  0.00    -0.390 OA
HETATM    2  C   UNK N   1      38.503  46.057  47.235  0.00  0.00     0.172 C 
HETATM    3  C   UNK N   1      40.004  45.800  47.312  0.00  0.00     0.020 C 
HETATM    4  C   UNK N   1      39.995  44.358  47.728  0.00  0.00     0.020 C 
HETATM    5  C   UNK N   1      38.853  44.387  48.737  0.00  0.00     0.172 C 
ENDROOT
BRANCH   3   6
HETATM    6  C   UNK N   1      40.733  46.038  45.971  0.00  0.00     0.045 C 
BRANCH   6   7
HETATM    7  C   UNK N   1      40.613  47.456  45.495  0.00  0.00    -0.055 A 
HETATM    8  C   UNK N   1      39.429  47.854  44.862  0.00  0.00     0.046 A 
HETATM    9  C   UNK N   1      39.258  49.177  44.419  0.00  0.00     0.101 A 
HETATM   10  C   UNK N   1      40.298  50.106  44.621  0.00  0.00     0.099 A 
HETATM   11  C   UNK N   1      41.483  49.703  45.254  0.00  0.00     0.040 A 
HETATM   12  C   UNK N   1      41.642  48.385  45.689  0.00  0.00     0.010 A 
BRANCH   9  13
HETATM   13  O   UNK N   1      38.112  49.579  43.804  0.00  0.00    -0.353 OA
HETATM   14  C   UNK N   1      37.899  49.554  42.438  0.00  0.00     0.210 C 
ENDBRANCH   9  13
BRANCH  10  15
HETATM   15  O   UNK N   1      40.173  51.387  44.216  0.00  0.00    -0.358 OA
HETATM   16  H   UNK N   1      39.314  51.779  43.999  0.00  0.00     0.218 HD
ENDBRANCH  10  15
ENDBRANCH   6   7
ENDBRANCH   3   6
BRANCH   4  17
HETATM   17  C   UNK N   1      41.337  43.897  48.338  0.00  0.00     0.045 C 
BRANCH  17  18
HETATM   18  C   UNK N   1      41.492  44.311  49.772  0.00  0.00    -0.055 A 
HETATM   19  C   UNK N   1      41.024  43.451  50.774  0.00  0.00     0.046 A 
HETATM   20  C   UNK N   1      41.167  43.782  52.132  0.00  0.00     0.101 A 
HETATM   21  C   UNK N   1      41.794  44.996  52.479  0.00  0.00     0.099 A 
HETATM   22  C   UNK N   1      42.260  45.854  51.473  0.00  0.00     0.040 A 
HETATM   23  C   UNK N   1      42.111  45.515  50.125  0.00  0.00     0.010 A 
BRANCH  20  24
HETATM   24  O   UNK N   1      40.718  42.956  53.117  0.00  0.00    -0.353 OA
HETATM   25  C   UNK N   1      39.387  42.691  53.379  0.00  0.00     0.210 C 
ENDBRANCH  20  24
BRANCH  21  26
HETATM   26  O   UNK N   1      41.957  45.349  53.771  0.00  0.00    -0.358 OA
HETATM   27  H   UNK N   1      41.693  46.218  54.107  0.00  0.00     0.218 HD
ENDBRANCH  21  26
ENDBRANCH  17  18
ENDBRANCH   4  17
TORSDOF 8
ENDMDL
MODEL 8
REMARK VINA RESULT:      -6.1      2.067      6.812
REMARK  8 active torsions:
REMARK  status: ('A' for Active; 'I' for Inactive)
REMARK    1  A    between atoms: C_3  and  C_17 
REMARK    2  A    between atoms: C_4  and  C_6 
REMARK    3  A    between atoms: C_6  and  C_7 
REMARK    4  A    between atoms: C_9  and  O_10 
REMARK    5  A    between atoms: C_12  and  O_13 
REMARK    6  A    between atoms: C_17  and  C_18 
REMARK    7  A    between atoms: C_20  and  O_21 
REMARK    8  A    between atoms: C_23  and  O_24 
ROOT
HETATM    1  O   UNK N   1      42.307  44.747  52.211  0.00  0.00    -0.390 OA
HETATM    2  C   UNK N   1      41.473  43.701  51.747  0.00  0.00     0.172 C 
HETATM    3  C   UNK N   1      40.464  44.307  50.779  0.00  0.00     0.020 C 
HETATM    4  C   UNK N   1      41.324  45.357  50.137  0.00  0.00     0.020 C 
HETATM    5  C   UNK N   1      42.078  45.858  51.363  0.00  0.00     0.172 C 
ENDROOT
BRANCH   3   6
HETATM    6  C   UNK N   1      39.898  43.286  49.767  0.00  0.00     0.045 C 
BRANCH   6   7
HETATM    7  C   UNK N   1      40.287  43.601  48.353  0.00  0.00    -0.055 A 
HETATM    8  C   UNK N   1      41.564  43.234  47.911  0.00  0.00     0.046 A 
HETATM    9  C   UNK N   1      41.968  43.486  46.588  0.00  0.00     0.101 A 
HETATM   10  C   UNK N   1      41.068  44.113  45.705  0.00  0.00     0.099 A 
HETATM   11  C   UNK N   1      39.790  44.481  46.152  0.00  0.00     0.040 A 
HETATM   12  C   UNK N   1      39.400  44.227  47.470  0.00  0.00     0.010 A 
BRANCH   9  13
HETATM   13  O   UNK N   1      43.206  43.133  46.142  0.00  0.00    -0.353 OA
HETATM   14  C   UNK N   1      43.635  41.833  45.952  0.00  0.00     0.210 C 
ENDBRANCH   9  13
BRANCH  10  15
HETATM   15  O   UNK N   1      41.413  44.368  44.425  0.00  0.00    -0.358 OA
HETATM   16  H   UNK N   1      42.172  43.941  44.000  0.00  0.00     0.218 HD
ENDBRANCH  10  15
ENDBRANCH   6   7
ENDBRANCH   3   6
BRANCH   4  17
HETATM   17  C   UNK N   1      40.506  46.459  49.430  0.00  0.00     0.045 C 
BRANCH  17  18
HETATM   18  C   UNK N   1      41.281  47.146  48.344  0.00  0.00    -0.055 A 
HETATM   19  C   UNK N   1      40.605  47.534  47.179  0.00  0.00     0.046 A 
HETATM   20  C   UNK N   1      41.281  48.202  46.144  0.00  0.00     0.101 A 
HETATM   21  C   UNK N   1      42.655  48.482  46.290  0.00  0.00     0.099 A 
HETATM   22  C   UNK N   1      43.327  48.092  47.457  0.00  0.00     0.040 A 
HETATM   23  C   UNK N   1      42.645  47.427  48.481  0.00  0.00     0.010 A 
BRANCH  20  24
HETATM   24  O   UNK N   1      40.638  48.586  45.006  0.00  0.00    -0.353 OA
HETATM   25  C   UNK N   1      39.265  48.587  44.838  0.00  0.00     0.210 C 
ENDBRANCH  20  24
BRANCH  21  26
HETATM   26  O   UNK N   1      43.338  49.127  45.322  0.00  0.00    -0.358 OA
HETATM   27  H   UNK N   1      44.253  49.421  45.444  0.00  0.00     0.218 HD
ENDBRANCH  21  26
ENDBRANCH  17  18
ENDBRANCH   4  17
TORSDOF 8
ENDMDL
MODEL 9
REMARK VINA RESULT:      -5.7     12.024     16.088
REMARK  8 active torsions:
REMARK  status: ('A' for Active; 'I' for Inactive)
REMARK    1  A    between atoms: C_3  and  C_17 
REMARK    2  A    between atoms: C_4  and  C_6 
REMARK    3  A    between atoms: C_6  and  C_7 
REMARK    4  A    between atoms: C_9  and  O_10 
REMARK    5  A    between atoms: C_12  and  O_13 
REMARK    6  A    between atoms: C_17  and  C_18 
REMARK    7  A    between atoms: C_20  and  O_21 
REMARK    8  A    between atoms: C_23  and  O_24 
ROOT
HETATM    1  O   UNK N   1      27.950  57.168  38.708  0.00  0.00    -0.390 OA
HETATM    2  C   UNK N   1      28.809  57.223  39.833  0.00  0.00     0.172 C 
HETATM    3  C   UNK N   1      29.694  55.982  39.801  0.00  0.00     0.020 C 
HETATM    4  C   UNK N   1      29.878  55.838  38.318  0.00  0.00     0.020 C 
HETATM    5  C   UNK N   1      28.466  56.167  37.849  0.00  0.00     0.172 C 
ENDROOT
BRANCH   3   6
HETATM    6  C   UNK N   1      31.026  56.163  40.561  0.00  0.00     0.045 C 
BRANCH   6   7
HETATM    7  C   UNK N   1      30.988  55.570  41.939  0.00  0.00    -0.055 A 
HETATM    8  C   UNK N   1      32.193  55.406  42.633  0.00  0.00     0.046 A 
HETATM    9  C   UNK N   1      32.207  54.877  43.936  0.00  0.00     0.101 A 
HETATM   10  C   UNK N   1      30.988  54.513  44.541  0.00  0.00     0.099 A 
HETATM   11  C   UNK N   1      29.783  54.677  43.841  0.00  0.00     0.040 A 
HETATM   12  C   UNK N   1      29.781  55.203  42.546  0.00  0.00     0.010 A 
BRANCH   9  13
HETATM   13  O   UNK N   1      33.371  54.713  44.624  0.00  0.00    -0.353 OA
HETATM   14  C   UNK N   1      34.111  55.741  45.178  0.00  0.00     0.210 C 
ENDBRANCH   9  13
BRANCH  10  15
HETATM   15  O   UNK N   1      30.957  54.006  45.791  0.00  0.00    -0.358 OA
HETATM   16  H   UNK N   1      30.539  53.156  45.994  0.00  0.00     0.218 HD
ENDBRANCH  10  15
ENDBRANCH   6   7
ENDBRANCH   3   6
BRANCH   4  17
HETATM   17  C   UNK N   1      30.346  54.427  37.901  0.00  0.00     0.045 C 
BRANCH  17  18
HETATM   18  C   UNK N   1      29.619  53.338  38.634  0.00  0.00    -0.055 A 
HETATM   19  C   UNK N   1      28.343  52.966  38.190  0.00  0.00     0.046 A 
HETATM   20  C   UNK N   1      27.631  51.935  38.827  0.00  0.00     0.101 A 
HETATM   21  C   UNK N   1      28.218  51.272  39.924  0.00  0.00     0.099 A 
HETATM   22  C   UNK N   1      29.495  51.648  40.365  0.00  0.00     0.040 A 
HETATM   23  C   UNK N   1      30.194  52.676  39.724  0.00  0.00     0.010 A 
BRANCH  20  24
HETATM   24  O   UNK N   1      26.391  51.561  38.406  0.00  0.00    -0.353 OA
HETATM   25  C   UNK N   1      25.652  52.223  37.443  0.00  0.00     0.210 C 
ENDBRANCH  20  24
BRANCH  21  26
HETATM   26  O   UNK N   1      27.571  50.274  40.559  0.00  0.00    -0.358 OA
HETATM   27  H   UNK N   1      26.882  49.748  40.128  0.00  0.00     0.218 HD
ENDBRANCH  21  26
ENDBRANCH  17  18
ENDBRANCH   4  17
TORSDOF 8
ENDMDL
