MODEL 1
REMARK VINA RESULT:      -7.9      0.000      0.000
REMARK  4 active torsions:
REMARK  status: ('A' for Active; 'I' for Inactive)
REMARK    1  A    between atoms: C_8  and  O_10 
REMARK    2  A    between atoms: O_10  and  C_11 
REMARK    3  A    between atoms: C_11  and  C_12 
REMARK    4  A    between atoms: C_13  and  O_14 
ROOT
HETATM    1  C   UNK N   1      40.568  46.093  48.179  0.00  0.00     0.052 C 
HETATM    2  C   UNK N   1      39.406  45.239  47.519  0.00  0.00     0.060 C 
HETATM    3  C   UNK N   1      38.570  44.554  48.629  0.00  0.00     0.038 C 
HETATM    4  C   UNK N   1      39.409  43.785  49.660  0.00  0.00     0.009 C 
HETATM    5  C   UNK N   1      40.425  44.740  50.349  0.00  0.00     0.009 C 
HETATM    6  C   UNK N   1      41.055  44.179  51.689  0.00  0.00     0.017 C 
HETATM    7  C   UNK N   1      42.023  45.244  52.203  0.00  0.00     0.135 C 
HETATM    8  O   UNK N   1      41.920  45.703  53.333  0.00  0.00    -0.297 OA
HETATM    9  C   UNK N   1      43.054  45.813  51.277  0.00  0.00     0.080 C 
HETATM   10  C   UNK N   1      42.341  46.387  50.038  0.00  0.00     0.017 C 
HETATM   11  C   UNK N   1      41.443  45.338  49.286  0.00  0.00    -0.030 C 
HETATM   12  C   UNK N   1      42.392  44.278  48.640  0.00  0.00     0.016 C 
HETATM   13  C   UNK N   1      39.936  43.964  52.749  0.00  0.00     0.023 C 
HETATM   14  C   UNK N   1      41.779  42.820  51.540  0.00  0.00     0.023 C 
HETATM   15  C   UNK N   1      39.872  44.186  46.487  0.00  0.00     0.046 C 
ENDROOT
BRANCH   1  16
HETATM   16  C   UNK N   1      41.429  46.820  47.113  0.00  0.00     0.184 C 
BRANCH  16  17
HETATM   17  O   UNK N   1      41.100  48.156  47.011  0.00  0.00    -0.351 OA
BRANCH  17  18
HETATM   18  C   UNK N   1      40.558  48.713  45.895  0.00  0.00     0.071 A 
HETATM   19  C   UNK N   1      41.186  49.827  45.324  0.00  0.00     0.038 A 
HETATM   20  C   UNK N   1      40.659  50.429  44.177  0.00  0.00     0.017 A 
HETATM   21  C   UNK N   1      39.493  49.918  43.590  0.00  0.00    -0.002 A 
HETATM   22  C   UNK N   1      38.854  48.796  44.156  0.00  0.00     0.092 A 
HETATM   23  C   UNK N   1      38.936  50.495  42.446  0.00  0.00     0.020 A 
HETATM   24  O   UNK N   1      37.747  48.304  43.609  0.00  0.00    -0.275 OA
HETATM   25  C   UNK N   1      39.385  48.199  45.299  0.00  0.00     0.075 A 
HETATM   26  C   UNK N   1      37.193  48.833  42.520  0.00  0.00     0.288 A 
HETATM   27  O   UNK N   1      36.178  48.345  42.061  0.00  0.00    -0.260 OA
HETATM   28  C   UNK N   1      37.773  49.948  41.905  0.00  0.00     0.083 A 
ENDBRANCH  17  18
ENDBRANCH  16  17
ENDBRANCH   1  16
BRANCH   2  29
HETATM   29  O   UNK N   1      38.548  46.094  46.794  0.00  0.00    -0.390 OA
HETATM   30  H   UNK N   1      37.649  45.673  46.737  0.00  0.00     0.210 HD
ENDBRANCH   2  29
TORSDOF 4
ENDMDL
MODEL 2
REMARK VINA RESULT:      -7.7      9.318     15.552
REMARK  4 active torsions:
REMARK  status: ('A' for Active; 'I' for Inactive)
REMARK    1  A    between atoms: C_8  and  O_10 
REMARK    2  A    between atoms: O_10  and  C_11 
REMARK    3  A    between atoms: C_11  and  C_12 
REMARK    4  A    between atoms: C_13  and  O_14 
ROOT
HETATM    1  C   UNK N   1      29.407  55.923  40.827  0.00  0.00     0.052 C 
HETATM    2  C   UNK N   1      28.811  57.293  40.297  0.00  0.00     0.060 C 
HETATM    3  C   UNK N   1      27.434  57.040  39.636  0.00  0.00     0.038 C 
HETATM    4  C   UNK N   1      27.438  55.911  38.594  0.00  0.00     0.009 C 
HETATM    5  C   UNK N   1      27.906  54.579  39.246  0.00  0.00     0.009 C 
HETATM    6  C   UNK N   1      27.573  53.279  38.404  0.00  0.00     0.017 C 
HETATM    7  C   UNK N   1      28.116  52.089  39.194  0.00  0.00     0.135 C 
HETATM    8  O   UNK N   1      27.392  51.154  39.509  0.00  0.00    -0.297 OA
HETATM    9  C   UNK N   1      29.532  52.110  39.683  0.00  0.00     0.080 C 
HETATM   10  C   UNK N   1      29.739  53.374  40.538  0.00  0.00     0.017 C 
HETATM   11  C   UNK N   1      29.395  54.710  39.783  0.00  0.00    -0.030 C 
HETATM   12  C   UNK N   1      30.466  54.909  38.662  0.00  0.00     0.016 C 
HETATM   13  C   UNK N   1      26.032  53.125  38.259  0.00  0.00     0.023 C 
HETATM   14  C   UNK N   1      28.147  53.278  36.968  0.00  0.00     0.023 C 
HETATM   15  C   UNK N   1      29.726  58.072  39.325  0.00  0.00     0.046 C 
ENDROOT
BRANCH   1  16
HETATM   16  C   UNK N   1      30.781  56.117  41.519  0.00  0.00     0.184 C 
BRANCH  16  17
HETATM   17  O   UNK N   1      30.734  55.783  42.857  0.00  0.00    -0.351 OA
BRANCH  17  18
HETATM   18  C   UNK N   1      31.556  54.864  43.431  0.00  0.00     0.071 A 
HETATM   19  C   UNK N   1      32.513  55.300  44.356  0.00  0.00     0.038 A 
HETATM   20  C   UNK N   1      33.377  54.385  44.967  0.00  0.00     0.017 A 
HETATM   21  C   UNK N   1      33.289  53.021  44.655  0.00  0.00    -0.002 A 
HETATM   22  C   UNK N   1      32.327  52.573  43.727  0.00  0.00     0.092 A 
HETATM   23  C   UNK N   1      34.138  52.079  45.243  0.00  0.00     0.020 A 
HETATM   24  O   UNK N   1      32.236  51.282  43.422  0.00  0.00    -0.275 OA
HETATM   25  C   UNK N   1      31.468  53.488  43.122  0.00  0.00     0.075 A 
HETATM   26  C   UNK N   1      33.031  50.362  43.965  0.00  0.00     0.288 A 
HETATM   27  O   UNK N   1      32.906  49.194  43.650  0.00  0.00    -0.260 OA
HETATM   28  C   UNK N   1      34.008  50.736  44.894  0.00  0.00     0.083 A 
ENDBRANCH  17  18
ENDBRANCH  16  17
ENDBRANCH   1  16
BRANCH   2  29
HETATM   29  O   UNK N   1      28.615  58.172  41.385  0.00  0.00    -0.390 OA
HETATM   30  H   UNK N   1      27.850  58.771  41.179  0.00  0.00     0.210 HD
ENDBRANCH   2  29
TORSDOF 4
ENDMDL
MODEL 3
REMARK VINA RESULT:      -7.3      1.586      2.057
REMARK  4 active torsions:
REMARK  status: ('A' for Active; 'I' for Inactive)
REMARK    1  A    between atoms: C_8  and  O_10 
REMARK    2  A    between atoms: O_10  and  C_11 
REMARK    3  A    between atoms: C_11  and  C_12 
REMARK    4  A    between atoms: C_13  and  O_14 
ROOT
HETATM    1  C   UNK N   1      40.233  46.236  47.993  0.00  0.00     0.052 C 
HETATM    2  C   UNK N   1      39.138  45.308  47.320  0.00  0.00     0.060 C 
HETATM    3  C   UNK N   1      38.431  44.465  48.410  0.00  0.00     0.038 C 
HETATM    4  C   UNK N   1      39.393  43.724  49.351  0.00  0.00     0.009 C 
HETATM    5  C   UNK N   1      40.333  44.736  50.066  0.00  0.00     0.009 C 
HETATM    6  C   UNK N   1      41.080  44.159  51.337  0.00  0.00     0.017 C 
HETATM    7  C   UNK N   1      41.954  45.286  51.887  0.00  0.00     0.135 C 
HETATM    8  O   UNK N   1      41.855  45.656  53.050  0.00  0.00    -0.297 OA
HETATM    9  C   UNK N   1      42.875  46.023  50.964  0.00  0.00     0.080 C 
HETATM   10  C   UNK N   1      42.050  46.597  49.798  0.00  0.00     0.017 C 
HETATM   11  C   UNK N   1      41.233  45.509  49.009  0.00  0.00    -0.030 C 
HETATM   12  C   UNK N   1      42.258  44.603  48.254  0.00  0.00     0.016 C 
HETATM   13  C   UNK N   1      40.040  43.755  52.422  0.00  0.00     0.023 C 
HETATM   14  C   UNK N   1      41.935  42.899  51.065  0.00  0.00     0.023 C 
HETATM   15  C   UNK N   1      39.664  44.382  46.199  0.00  0.00     0.046 C 
ENDROOT
BRANCH   1  16
HETATM   16  C   UNK N   1      40.963  47.122  46.949  0.00  0.00     0.184 C 
BRANCH  16  17
HETATM   17  O   UNK N   1      40.392  48.373  46.847  0.00  0.00    -0.351 OA
BRANCH  17  18
HETATM   18  C   UNK N   1      40.017  48.934  45.665  0.00  0.00     0.071 A 
HETATM   19  C   UNK N   1      39.277  48.164  44.758  0.00  0.00     0.038 A 
HETATM   20  C   UNK N   1      38.874  48.705  43.533  0.00  0.00     0.017 A 
HETATM   21  C   UNK N   1      39.212  50.025  43.204  0.00  0.00    -0.002 A 
HETATM   22  C   UNK N   1      39.955  50.808  44.111  0.00  0.00     0.092 A 
HETATM   23  C   UNK N   1      38.830  50.597  41.988  0.00  0.00     0.020 A 
HETATM   24  O   UNK N   1      40.282  52.061  43.809  0.00  0.00    -0.275 OA
HETATM   25  C   UNK N   1      40.352  50.265  45.331  0.00  0.00     0.075 A 
HETATM   26  C   UNK N   1      39.934  52.632  42.658  0.00  0.00     0.288 A 
HETATM   27  O   UNK N   1      40.260  53.781  42.431  0.00  0.00    -0.260 OA
HETATM   28  C   UNK N   1      39.195  51.914  41.710  0.00  0.00     0.083 A 
ENDBRANCH  17  18
ENDBRANCH  16  17
ENDBRANCH   1  16
BRANCH   2  29
HETATM   29  O   UNK N   1      38.162  46.111  46.691  0.00  0.00    -0.390 OA
HETATM   30  H   UNK N   1      38.466  47.057  46.708  0.00  0.00     0.210 HD
ENDBRANCH   2  29
TORSDOF 4
ENDMDL
MODEL 4
REMARK VINA RESULT:      -7.1     13.975     17.322
REMARK  4 active torsions:
REMARK  status: ('A' for Active; 'I' for Inactive)
REMARK    1  A    between atoms: C_8  and  O_10 
REMARK    2  A    between atoms: O_10  and  C_11 
REMARK    3  A    between atoms: C_11  and  C_12 
REMARK    4  A    between atoms: C_13  and  O_14 
ROOT
HETATM    1  C   UNK N   1      31.043  44.580  59.591  0.00  0.00     0.052 C 
HETATM    2  C   UNK N   1      31.326  44.382  58.043  0.00  0.00     0.060 C 
HETATM    3  C   UNK N   1      31.408  45.764  57.350  0.00  0.00     0.038 C 
HETATM    4  C   UNK N   1      30.225  46.692  57.659  0.00  0.00     0.009 C 
HETATM    5  C   UNK N   1      30.117  46.933  59.192  0.00  0.00     0.009 C 
HETATM    6  C   UNK N   1      29.213  48.167  59.604  0.00  0.00     0.017 C 
HETATM    7  C   UNK N   1      29.223  48.233  61.131  0.00  0.00     0.135 C 
HETATM    8  O   UNK N   1      29.563  49.250  61.720  0.00  0.00    -0.297 OA
HETATM    9  C   UNK N   1      28.911  47.001  61.925  0.00  0.00     0.080 C 
HETATM   10  C   UNK N   1      29.878  45.881  61.498  0.00  0.00     0.017 C 
HETATM   11  C   UNK N   1      29.840  45.569  59.957  0.00  0.00    -0.030 C 
HETATM   12  C   UNK N   1      28.452  44.925  59.639  0.00  0.00     0.016 C 
HETATM   13  C   UNK N   1      29.827  49.482  59.042  0.00  0.00     0.023 C 
HETATM   14  C   UNK N   1      27.760  48.105  59.077  0.00  0.00     0.023 C 
HETATM   15  C   UNK N   1      30.310  43.482  57.302  0.00  0.00     0.046 C 
ENDROOT
BRANCH   1  16
HETATM   16  C   UNK N   1      30.970  43.226  60.344  0.00  0.00     0.184 C 
BRANCH  16  17
HETATM   17  O   UNK N   1      32.224  42.717  60.612  0.00  0.00    -0.351 OA
BRANCH  17  18
HETATM   18  C   UNK N   1      33.086  43.275  61.504  0.00  0.00     0.071 A 
HETATM   19  C   UNK N   1      32.622  43.579  62.790  0.00  0.00     0.038 A 
HETATM   20  C   UNK N   1      33.477  44.154  63.736  0.00  0.00     0.017 A 
HETATM   21  C   UNK N   1      34.809  44.431  63.399  0.00  0.00    -0.002 A 
HETATM   22  C   UNK N   1      35.286  44.126  62.108  0.00  0.00     0.092 A 
HETATM   23  C   UNK N   1      35.691  45.008  64.316  0.00  0.00     0.020 A 
HETATM   24  O   UNK N   1      36.548  44.385  61.777  0.00  0.00    -0.275 OA
HETATM   25  C   UNK N   1      34.430  43.552  61.170  0.00  0.00     0.075 A 
HETATM   26  C   UNK N   1      37.411  44.935  62.629  0.00  0.00     0.288 A 
HETATM   27  O   UNK N   1      38.553  45.154  62.275  0.00  0.00    -0.260 OA
HETATM   28  C   UNK N   1      37.006  45.264  63.928  0.00  0.00     0.083 A 
ENDBRANCH  17  18
ENDBRANCH  16  17
ENDBRANCH   1  16
BRANCH   2  29
HETATM   29  O   UNK N   1      32.569  43.734  57.871  0.00  0.00    -0.390 OA
HETATM   30  H   UNK N   1      33.132  44.279  57.260  0.00  0.00     0.210 HD
ENDBRANCH   2  29
TORSDOF 4
ENDMDL
MODEL 5
REMARK VINA RESULT:      -7.1     12.934     15.194
REMARK  4 active torsions:
REMARK  status: ('A' for Active; 'I' for Inactive)
REMARK    1  A    between atoms: C_8  and  O_10 
REMARK    2  A    between atoms: O_10  and  C_11 
REMARK    3  A    between atoms: C_11  and  C_12 
REMARK    4  A    between atoms: C_13  and  O_14 
ROOT
HETATM    1  C   UNK N   1      29.980  43.703  57.357  0.00  0.00     0.052 C 
HETATM    2  C   UNK N   1      31.518  43.324  57.322  0.00  0.00     0.060 C 
HETATM    3  C   UNK N   1      31.928  42.947  55.877  0.00  0.00     0.038 C 
HETATM    4  C   UNK N   1      31.009  41.910  55.216  0.00  0.00     0.009 C 
HETATM    5  C   UNK N   1      29.546  42.435  55.175  0.00  0.00     0.009 C 
HETATM    6  C   UNK N   1      28.593  41.658  54.176  0.00  0.00     0.017 C 
HETATM    7  C   UNK N   1      27.213  42.307  54.286  0.00  0.00     0.135 C 
HETATM    8  O   UNK N   1      26.639  42.747  53.299  0.00  0.00    -0.297 OA
HETATM    9  C   UNK N   1      26.595  42.504  55.636  0.00  0.00     0.080 C 
HETATM   10  C   UNK N   1      27.566  43.318  56.510  0.00  0.00     0.017 C 
HETATM   11  C   UNK N   1      28.991  42.666  56.645  0.00  0.00    -0.030 C 
HETATM   12  C   UNK N   1      28.834  41.357  57.484  0.00  0.00     0.016 C 
HETATM   13  C   UNK N   1      29.110  41.822  52.718  0.00  0.00     0.023 C 
HETATM   14  C   UNK N   1      28.494  40.137  54.434  0.00  0.00     0.023 C 
HETATM   15  C   UNK N   1      31.937  42.199  58.297  0.00  0.00     0.046 C 
ENDROOT
BRANCH   1  16
HETATM   16  C   UNK N   1      29.514  44.110  58.780  0.00  0.00     0.184 C 
BRANCH  16  17
HETATM   17  O   UNK N   1      29.892  45.399  59.095  0.00  0.00    -0.351 OA
BRANCH  17  18
HETATM   18  C   UNK N   1      29.454  46.496  58.421  0.00  0.00     0.071 A 
HETATM   19  C   UNK N   1      28.074  46.706  58.297  0.00  0.00     0.038 A 
HETATM   20  C   UNK N   1      27.585  47.822  57.610  0.00  0.00     0.017 A 
HETATM   21  C   UNK N   1      28.477  48.740  57.038  0.00  0.00    -0.002 A 
HETATM   22  C   UNK N   1      29.867  48.538  57.159  0.00  0.00     0.092 A 
HETATM   23  C   UNK N   1      28.024  49.863  56.342  0.00  0.00     0.020 A 
HETATM   24  O   UNK N   1      30.722  49.402  56.620  0.00  0.00    -0.275 OA
HETATM   25  C   UNK N   1      30.349  47.426  57.846  0.00  0.00     0.075 A 
HETATM   26  C   UNK N   1      30.321  50.481  55.950  0.00  0.00     0.288 A 
HETATM   27  O   UNK N   1      31.145  51.238  55.475  0.00  0.00    -0.260 OA
HETATM   28  C   UNK N   1      28.955  50.743  55.792  0.00  0.00     0.083 A 
ENDBRANCH  17  18
ENDBRANCH  16  17
ENDBRANCH   1  16
BRANCH   2  29
HETATM   29  O   UNK N   1      32.287  44.440  57.715  0.00  0.00    -0.390 OA
HETATM   30  H   UNK N   1      31.901  44.819  58.548  0.00  0.00     0.210 HD
ENDBRANCH   2  29
TORSDOF 4
ENDMDL
MODEL 6
REMARK VINA RESULT:      -6.5     13.396     16.190
REMARK  4 active torsions:
REMARK  status: ('A' for Active; 'I' for Inactive)
REMARK    1  A    between atoms: C_8  and  O_10 
REMARK    2  A    between atoms: O_10  and  C_11 
REMARK    3  A    between atoms: C_11  and  C_12 
REMARK    4  A    between atoms: C_13  and  O_14 
ROOT
HETATM    1  C   UNK N   1      30.133  45.455  61.295  0.00  0.00     0.052 C 
HETATM    2  C   UNK N   1      30.624  45.598  62.796  0.00  0.00     0.060 C 
HETATM    3  C   UNK N   1      32.125  45.227  62.889  0.00  0.00     0.038 C 
HETATM    4  C   UNK N   1      32.480  43.884  62.236  0.00  0.00     0.009 C 
HETATM    5  C   UNK N   1      32.084  43.894  60.732  0.00  0.00     0.009 C 
HETATM    6  C   UNK N   1      32.751  42.749  59.865  0.00  0.00     0.017 C 
HETATM    7  C   UNK N   1      32.237  42.919  58.436  0.00  0.00     0.135 C 
HETATM    8  O   UNK N   1      33.009  43.042  57.494  0.00  0.00    -0.297 OA
HETATM    9  C   UNK N   1      30.764  43.042  58.191  0.00  0.00     0.080 C 
HETATM   10  C   UNK N   1      30.221  44.215  59.027  0.00  0.00     0.017 C 
HETATM   11  C   UNK N   1      30.516  44.083  60.566  0.00  0.00    -0.030 C 
HETATM   12  C   UNK N   1      29.665  42.889  61.109  0.00  0.00     0.016 C 
HETATM   13  C   UNK N   1      34.298  42.920  59.865  0.00  0.00     0.023 C 
HETATM   14  C   UNK N   1      32.473  41.314  60.370  0.00  0.00     0.023 C 
HETATM   15  C   UNK N   1      29.816  44.779  63.829  0.00  0.00     0.046 C 
ENDROOT
BRANCH   1  16
HETATM   16  C   UNK N   1      28.637  45.833  61.136  0.00  0.00     0.184 C 
BRANCH  16  17
HETATM   17  O   UNK N   1      28.452  47.200  61.112  0.00  0.00    -0.351 OA
BRANCH  17  18
HETATM   18  C   UNK N   1      28.401  47.931  59.966  0.00  0.00     0.071 A 
HETATM   19  C   UNK N   1      27.162  48.423  59.535  0.00  0.00     0.038 A 
HETATM   20  C   UNK N   1      27.067  49.178  58.362  0.00  0.00     0.017 A 
HETATM   21  C   UNK N   1      28.217  49.447  57.607  0.00  0.00    -0.002 A 
HETATM   22  C   UNK N   1      29.469  48.958  58.034  0.00  0.00     0.092 A 
HETATM   23  C   UNK N   1      28.161  50.195  56.428  0.00  0.00     0.020 A 
HETATM   24  O   UNK N   1      30.566  49.207  57.324  0.00  0.00    -0.275 OA
HETATM   25  C   UNK N   1      29.557  48.208  59.204  0.00  0.00     0.075 A 
HETATM   26  C   UNK N   1      30.543  49.914  56.197  0.00  0.00     0.288 A 
HETATM   27  O   UNK N   1      31.576  50.110  55.586  0.00  0.00    -0.260 OA
HETATM   28  C   UNK N   1      29.335  50.431  55.715  0.00  0.00     0.083 A 
ENDBRANCH  17  18
ENDBRANCH  16  17
ENDBRANCH   1  16
BRANCH   2  29
HETATM   29  O   UNK N   1      30.481  46.939  63.212  0.00  0.00    -0.390 OA
HETATM   30  H   UNK N   1      30.855  47.033  64.127  0.00  0.00     0.210 HD
ENDBRANCH   2  29
TORSDOF 4
ENDMDL
MODEL 7
REMARK VINA RESULT:      -6.3     14.567     16.325
REMARK  4 active torsions:
REMARK  status: ('A' for Active; 'I' for Inactive)
REMARK    1  A    between atoms: C_8  and  O_10 
REMARK    2  A    between atoms: O_10  and  C_11 
REMARK    3  A    between atoms: C_11  and  C_12 
REMARK    4  A    between atoms: C_13  and  O_14 
ROOT
HETATM    1  C   UNK N   1      34.234  44.740  62.197  0.00  0.00     0.052 C 
HETATM    2  C   UNK N   1      32.873  44.976  62.975  0.00  0.00     0.060 C 
HETATM    3  C   UNK N   1      32.850  46.412  63.557  0.00  0.00     0.038 C 
HETATM    4  C   UNK N   1      34.106  46.782  64.358  0.00  0.00     0.009 C 
HETATM    5  C   UNK N   1      35.373  46.649  63.466  0.00  0.00     0.009 C 
HETATM    6  C   UNK N   1      36.661  47.377  64.035  0.00  0.00     0.017 C 
HETATM    7  C   UNK N   1      37.789  47.125  63.035  0.00  0.00     0.135 C 
HETATM    8  O   UNK N   1      38.411  48.053  62.534  0.00  0.00    -0.297 OA
HETATM    9  C   UNK N   1      38.073  45.727  62.578  0.00  0.00     0.080 C 
HETATM   10  C   UNK N   1      36.782  45.129  61.988  0.00  0.00     0.017 C 
HETATM   11  C   UNK N   1      35.566  45.148  62.984  0.00  0.00    -0.030 C 
HETATM   12  C   UNK N   1      35.882  44.140  64.136  0.00  0.00     0.016 C 
HETATM   13  C   UNK N   1      36.404  48.909  64.127  0.00  0.00     0.023 C 
HETATM   14  C   UNK N   1      37.085  46.921  65.450  0.00  0.00     0.023 C 
HETATM   15  C   UNK N   1      32.571  43.952  64.093  0.00  0.00     0.046 C 
ENDROOT
BRANCH   1  16
HETATM   16  C   UNK N   1      34.306  43.321  61.573  0.00  0.00     0.184 C 
BRANCH  16  17
HETATM   17  O   UNK N   1      33.942  43.326  60.243  0.00  0.00    -0.351 OA
BRANCH  17  18
HETATM   18  C   UNK N   1      32.812  42.734  59.770  0.00  0.00     0.071 A 
HETATM   19  C   UNK N   1      32.210  41.726  60.534  0.00  0.00     0.038 A 
HETATM   20  C   UNK N   1      31.047  41.092  60.082  0.00  0.00     0.017 A 
HETATM   21  C   UNK N   1      30.478  41.464  58.857  0.00  0.00    -0.002 A 
HETATM   22  C   UNK N   1      31.076  42.478  58.082  0.00  0.00     0.092 A 
HETATM   23  C   UNK N   1      29.320  40.851  58.372  0.00  0.00     0.020 A 
HETATM   24  O   UNK N   1      30.545  42.838  56.917  0.00  0.00    -0.275 OA
HETATM   25  C   UNK N   1      32.233  43.107  58.538  0.00  0.00     0.075 A 
HETATM   26  C   UNK N   1      29.443  42.272  56.429  0.00  0.00     0.288 A 
HETATM   27  O   UNK N   1      29.000  42.637  55.358  0.00  0.00    -0.260 OA
HETATM   28  C   UNK N   1      28.796  41.258  57.145  0.00  0.00     0.083 A 
ENDBRANCH  17  18
ENDBRANCH  16  17
ENDBRANCH   1  16
BRANCH   2  29
HETATM   29  O   UNK N   1      31.790  44.854  62.077  0.00  0.00    -0.390 OA
HETATM   30  H   UNK N   1      31.359  45.743  61.972  0.00  0.00     0.210 HD
ENDBRANCH   2  29
TORSDOF 4
ENDMDL
MODEL 8
REMARK VINA RESULT:      -6.1     13.465     15.786
REMARK  4 active torsions:
REMARK  status: ('A' for Active; 'I' for Inactive)
REMARK    1  A    between atoms: C_8  and  O_10 
REMARK    2  A    between atoms: O_10  and  C_11 
REMARK    3  A    between atoms: C_11  and  C_12 
REMARK    4  A    between atoms: C_13  and  O_14 
ROOT
HETATM    1  C   UNK N   1      28.874  42.025  58.562  0.00  0.00     0.052 C 
HETATM    2  C   UNK N   1      27.784  41.724  59.673  0.00  0.00     0.060 C 
HETATM    3  C   UNK N   1      27.110  43.048  60.111  0.00  0.00     0.038 C 
HETATM    4  C   UNK N   1      28.100  44.160  60.486  0.00  0.00     0.009 C 
HETATM    5  C   UNK N   1      29.035  44.476  59.285  0.00  0.00     0.009 C 
HETATM    6  C   UNK N   1      29.813  45.851  59.398  0.00  0.00     0.017 C 
HETATM    7  C   UNK N   1      30.677  45.975  58.143  0.00  0.00     0.135 C 
HETATM    8  O   UNK N   1      30.592  46.950  57.408  0.00  0.00    -0.297 OA
HETATM    9  C   UNK N   1      31.570  44.839  57.746  0.00  0.00     0.080 C 
HETATM   10  C   UNK N   1      30.715  43.567  57.602  0.00  0.00     0.017 C 
HETATM   11  C   UNK N   1      29.903  43.203  58.899  0.00  0.00    -0.030 C 
HETATM   12  C   UNK N   1      30.930  42.771  59.994  0.00  0.00     0.016 C 
HETATM   13  C   UNK N   1      28.799  47.031  59.427  0.00  0.00     0.023 C 
HETATM   14  C   UNK N   1      30.685  45.995  60.667  0.00  0.00     0.023 C 
HETATM   15  C   UNK N   1      28.306  40.964  60.914  0.00  0.00     0.046 C 
ENDROOT
BRANCH   1  16
HETATM   16  C   UNK N   1      29.571  40.730  58.068  0.00  0.00     0.184 C 
BRANCH  16  17
HETATM   17  O   UNK N   1      28.981  40.233  56.925  0.00  0.00    -0.351 OA
BRANCH  17  18
HETATM   18  C   UNK N   1      28.911  40.922  55.754  0.00  0.00     0.071 A 
HETATM   19  C   UNK N   1      30.012  40.893  54.888  0.00  0.00     0.038 A 
HETATM   20  C   UNK N   1      29.980  41.590  53.675  0.00  0.00     0.017 A 
HETATM   21  C   UNK N   1      28.840  42.325  53.320  0.00  0.00    -0.002 A 
HETATM   22  C   UNK N   1      27.727  42.359  54.185  0.00  0.00     0.092 A 
HETATM   23  C   UNK N   1      28.773  43.036  52.119  0.00  0.00     0.020 A 
HETATM   24  O   UNK N   1      26.642  43.055  53.858  0.00  0.00    -0.275 OA
HETATM   25  C   UNK N   1      27.764  41.662  55.390  0.00  0.00     0.075 A 
HETATM   26  C   UNK N   1      26.549  43.742  52.722  0.00  0.00     0.288 A 
HETATM   27  O   UNK N   1      25.534  44.363  52.473  0.00  0.00    -0.260 OA
HETATM   28  C   UNK N   1      27.617  43.753  51.816  0.00  0.00     0.083 A 
ENDBRANCH  17  18
ENDBRANCH  16  17
ENDBRANCH   1  16
BRANCH   2  29
HETATM   29  O   UNK N   1      26.784  40.884  59.135  0.00  0.00    -0.390 OA
HETATM   30  H   UNK N   1      26.447  40.286  59.853  0.00  0.00     0.210 HD
ENDBRANCH   2  29
TORSDOF 4
ENDMDL
MODEL 9
REMARK VINA RESULT:      -6.1      2.267      4.131
REMARK  4 active torsions:
REMARK  status: ('A' for Active; 'I' for Inactive)
REMARK    1  A    between atoms: C_8  and  O_10 
REMARK    2  A    between atoms: O_10  and  C_11 
REMARK    3  A    between atoms: C_11  and  C_12 
REMARK    4  A    between atoms: C_13  and  O_14 
ROOT
HETATM    1  C   UNK N   1      41.148  45.376  47.702  0.00  0.00     0.052 C 
HETATM    2  C   UNK N   1      40.908  44.711  49.121  0.00  0.00     0.060 C 
HETATM    3  C   UNK N   1      41.961  43.599  49.358  0.00  0.00     0.038 C 
HETATM    4  C   UNK N   1      42.080  42.594  48.204  0.00  0.00     0.009 C 
HETATM    5  C   UNK N   1      42.453  43.329  46.885  0.00  0.00     0.009 C 
HETATM    6  C   UNK N   1      42.995  42.387  45.734  0.00  0.00     0.017 C 
HETATM    7  C   UNK N   1      43.292  43.282  44.531  0.00  0.00     0.135 C 
HETATM    8  O   UNK N   1      44.398  43.295  44.008  0.00  0.00    -0.297 OA
HETATM    9  C   UNK N   1      42.246  44.239  44.047  0.00  0.00     0.080 C 
HETATM   10  C   UNK N   1      41.830  45.149  45.217  0.00  0.00     0.017 C 
HETATM   11  C   UNK N   1      41.315  44.360  46.477  0.00  0.00    -0.030 C 
HETATM   12  C   UNK N   1      39.954  43.695  46.095  0.00  0.00     0.016 C 
HETATM   13  C   UNK N   1      44.316  41.703  46.189  0.00  0.00     0.023 C 
HETATM   14  C   UNK N   1      42.032  41.246  45.330  0.00  0.00     0.023 C 
HETATM   15  C   UNK N   1      39.487  44.146  49.347  0.00  0.00     0.046 C 
ENDROOT
BRANCH   1  16
HETATM   16  C   UNK N   1      40.134  46.514  47.416  0.00  0.00     0.184 C 
BRANCH  16  17
HETATM   17  O   UNK N   1      40.765  47.688  47.061  0.00  0.00    -0.351 OA
BRANCH  17  18
HETATM   18  C   UNK N   1      40.426  48.422  45.968  0.00  0.00     0.071 A 
HETATM   19  C   UNK N   1      41.240  49.502  45.602  0.00  0.00     0.038 A 
HETATM   20  C   UNK N   1      40.925  50.282  44.484  0.00  0.00     0.017 A 
HETATM   21  C   UNK N   1      39.786  49.986  43.722  0.00  0.00    -0.002 A 
HETATM   22  C   UNK N   1      38.962  48.901  44.081  0.00  0.00     0.092 A 
HETATM   23  C   UNK N   1      39.438  50.745  42.602  0.00  0.00     0.020 A 
HETATM   24  O   UNK N   1      37.878  48.612  43.366  0.00  0.00    -0.275 OA
HETATM   25  C   UNK N   1      39.282  48.126  45.195  0.00  0.00     0.075 A 
HETATM   26  C   UNK N   1      37.521  49.317  42.295  0.00  0.00     0.288 A 
HETATM   27  O   UNK N   1      36.519  49.012  41.677  0.00  0.00    -0.260 OA
HETATM   28  C   UNK N   1      38.293  50.409  41.880  0.00  0.00     0.083 A 
ENDBRANCH  17  18
ENDBRANCH  16  17
ENDBRANCH   1  16
BRANCH   2  29
HETATM   29  O   UNK N   1      41.070  45.685  50.130  0.00  0.00    -0.390 OA
HETATM   30  H   UNK N   1      40.508  45.435  50.910  0.00  0.00     0.210 HD
ENDBRANCH   2  29
TORSDOF 4
ENDMDL
