MODEL 1
REMARK VINA RESULT:      -7.3      0.000      0.000
REMARK  10 active torsions:
REMARK  status: ('A' for Active; 'I' for Inactive)
REMARK    1  A    between atoms: C_2  and  O_3 
REMARK    2  A    between atoms: C_2  and  C_18 
REMARK    3  A    between atoms: O_3  and  C_4 
REMARK    4  A    between atoms: C_5  and  O_6 
REMARK    5  A    between atoms: C_8  and  O_9 
REMARK    6  A    between atoms: C_12  and  C_14 
REMARK    7  A    between atoms: C_14  and  O_16 
REMARK    8  A    between atoms: C_19  and  O_20 
REMARK    9  A    between atoms: C_22  and  O_23 
REMARK   10  A    between atoms: C_25  and  O_26 
ROOT
HETATM    1  O   UNK N   1      38.849  45.943  48.094  0.00  0.00    -0.259 OA
HETATM    2  C   UNK N   1      39.868  45.270  48.186  0.00  0.00     0.297 C 
ENDROOT
BRANCH   2   3
HETATM    3  O   UNK N   1      40.461  44.770  47.074  0.00  0.00    -0.305 OA
BRANCH   3   4
HETATM    4  C   UNK N   1      41.817  44.836  46.797  0.00  0.00     0.187 C 
HETATM    5  C   UNK N   1      42.020  45.392  45.377  0.00  0.00     0.180 C 
HETATM    6  C   UNK N   1      41.623  44.305  44.373  0.00  0.00     0.154 C 
HETATM    7  C   UNK N   1      42.578  43.102  44.503  0.00  0.00     0.079 C 
HETATM    8  C   UNK N   1      42.813  42.673  45.940  0.00  0.00     0.017 C 
HETATM    9  C   UNK N   1      42.427  43.456  46.980  0.00  0.00     0.022 C 
BRANCH   5  10
HETATM   10  O   UNK N   1      41.236  46.542  45.189  0.00  0.00    -0.390 OA
HETATM   11  H   UNK N   1      41.216  46.717  44.211  0.00  0.00     0.210 HD
ENDBRANCH   5  10
BRANCH   6  12
HETATM   12  O   UNK N   1      41.612  44.785  43.054  0.00  0.00    -0.393 OA
HETATM   13  H   UNK N   1      42.547  44.774  42.723  0.00  0.00     0.210 HD
ENDBRANCH   6  12
BRANCH   8  14
HETATM   14  C   UNK N   1      43.494  41.371  46.186  0.00  0.00     0.171 C 
HETATM   15  O   UNK N   1      42.849  40.372  46.471  0.00  0.00    -0.646 OA
BRANCH  14  16
HETATM   16  O   UNK N   1      44.841  41.293  46.106  0.00  0.00    -0.773 OA
HETATM   17  H   UNK N   1      45.313  41.542  45.298  0.00  0.00     0.167 HD
ENDBRANCH  14  16
ENDBRANCH   8  14
ENDBRANCH   3   4
ENDBRANCH   2   3
BRANCH   2  18
HETATM   18  C   UNK N   1      40.594  45.206  49.478  0.00  0.00     0.081 A 
HETATM   19  C   UNK N   1      40.226  44.210  50.403  0.00  0.00     0.118 A 
HETATM   20  C   UNK N   1      40.835  44.152  51.667  0.00  0.00     0.133 A 
HETATM   21  C   UNK N   1      41.836  45.077  52.004  0.00  0.00     0.102 A 
HETATM   22  C   UNK N   1      42.222  46.057  51.083  0.00  0.00     0.047 A 
HETATM   23  C   UNK N   1      41.608  46.141  49.822  0.00  0.00    -0.040 A 
HETATM   24  C   UNK N   1      42.082  47.194  48.849  0.00  0.00     0.049 C 
BRANCH  19  25
HETATM   25  O   UNK N   1      39.244  43.334  50.082  0.00  0.00    -0.357 OA
HETATM   26  H   UNK N   1      38.313  43.490  50.287  0.00  0.00     0.218 HD
ENDBRANCH  19  25
BRANCH  20  27
HETATM   27  O   UNK N   1      40.439  43.212  52.552  0.00  0.00    -0.356 OA
HETATM   28  H   UNK N   1      40.237  42.304  52.293  0.00  0.00     0.218 HD
ENDBRANCH  20  27
BRANCH  21  29
HETATM   29  O   UNK N   1      42.421  45.019  53.219  0.00  0.00    -0.358 OA
HETATM   30  H   UNK N   1      43.049  45.692  53.518  0.00  0.00     0.218 HD
ENDBRANCH  21  29
ENDBRANCH   2  18
TORSDOF 10
ENDMDL
MODEL 2
REMARK VINA RESULT:      -6.9      1.788      2.979
REMARK  10 active torsions:
REMARK  status: ('A' for Active; 'I' for Inactive)
REMARK    1  A    between atoms: C_2  and  O_3 
REMARK    2  A    between atoms: C_2  and  C_18 
REMARK    3  A    between atoms: O_3  and  C_4 
REMARK    4  A    between atoms: C_5  and  O_6 
REMARK    5  A    between atoms: C_8  and  O_9 
REMARK    6  A    between atoms: C_12  and  C_14 
REMARK    7  A    between atoms: C_14  and  O_16 
REMARK    8  A    between atoms: C_19  and  O_20 
REMARK    9  A    between atoms: C_22  and  O_23 
REMARK   10  A    between atoms: C_25  and  O_26 
ROOT
HETATM    1  O   UNK N   1      43.132  45.980  49.925  0.00  0.00    -0.259 OA
HETATM    2  C   UNK N   1      41.916  45.833  49.900  0.00  0.00     0.297 C 
ENDROOT
BRANCH   2   3
HETATM    3  O   UNK N   1      41.197  46.264  48.835  0.00  0.00    -0.305 OA
BRANCH   3   4
HETATM    4  C   UNK N   1      41.686  46.390  47.544  0.00  0.00     0.187 C 
HETATM    5  C   UNK N   1      40.547  46.835  46.610  0.00  0.00     0.180 C 
HETATM    6  C   UNK N   1      39.607  45.645  46.397  0.00  0.00     0.154 C 
HETATM    7  C   UNK N   1      40.353  44.518  45.654  0.00  0.00     0.079 C 
HETATM    8  C   UNK N   1      41.727  44.227  46.230  0.00  0.00     0.017 C 
HETATM    9  C   UNK N   1      42.310  45.070  47.120  0.00  0.00     0.022 C 
BRANCH   5  10
HETATM   10  O   UNK N   1      39.849  47.914  47.176  0.00  0.00    -0.390 OA
HETATM   11  H   UNK N   1      39.689  47.682  48.129  0.00  0.00     0.210 HD
ENDBRANCH   5  10
BRANCH   6  12
HETATM   12  O   UNK N   1      38.445  46.009  45.697  0.00  0.00    -0.393 OA
HETATM   13  H   UNK N   1      38.300  45.334  44.985  0.00  0.00     0.210 HD
ENDBRANCH   6  12
BRANCH   8  14
HETATM   14  C   UNK N   1      42.434  42.995  45.781  0.00  0.00     0.171 C 
HETATM   15  O   UNK N   1      42.420  42.660  44.604  0.00  0.00    -0.646 OA
BRANCH  14  16
HETATM   16  O   UNK N   1      43.089  42.230  46.683  0.00  0.00    -0.773 OA
HETATM   17  H   UNK N   1      44.053  42.261  46.764  0.00  0.00     0.167 HD
ENDBRANCH  14  16
ENDBRANCH   8  14
ENDBRANCH   3   4
ENDBRANCH   2   3
BRANCH   2  18
HETATM   18  C   UNK N   1      41.259  44.967  50.909  0.00  0.00     0.081 A 
HETATM   19  C   UNK N   1      41.748  44.987  52.229  0.00  0.00     0.118 A 
HETATM   20  C   UNK N   1      41.206  44.134  53.203  0.00  0.00     0.133 A 
HETATM   21  C   UNK N   1      40.150  43.271  52.867  0.00  0.00     0.102 A 
HETATM   22  C   UNK N   1      39.644  43.260  51.563  0.00  0.00     0.047 A 
HETATM   23  C   UNK N   1      40.190  44.092  50.571  0.00  0.00    -0.040 A 
HETATM   24  C   UNK N   1      39.588  44.068  49.186  0.00  0.00     0.049 C 
BRANCH  19  25
HETATM   25  O   UNK N   1      42.782  45.805  52.542  0.00  0.00    -0.357 OA
HETATM   26  H   UNK N   1      43.672  45.479  52.727  0.00  0.00     0.218 HD
ENDBRANCH  19  25
BRANCH  20  27
HETATM   27  O   UNK N   1      41.717  44.144  54.453  0.00  0.00    -0.356 OA
HETATM   28  H   UNK N   1      41.424  44.767  55.131  0.00  0.00     0.218 HD
ENDBRANCH  20  27
BRANCH  21  29
HETATM   29  O   UNK N   1      39.629  42.452  53.805  0.00  0.00    -0.358 OA
HETATM   30  H   UNK N   1      39.566  41.496  53.673  0.00  0.00     0.218 HD
ENDBRANCH  21  29
ENDBRANCH   2  18
TORSDOF 10
ENDMDL
MODEL 3
REMARK VINA RESULT:      -6.5      2.470      4.633
REMARK  10 active torsions:
REMARK  status: ('A' for Active; 'I' for Inactive)
REMARK    1  A    between atoms: C_2  and  O_3 
REMARK    2  A    between atoms: C_2  and  C_18 
REMARK    3  A    between atoms: O_3  and  C_4 
REMARK    4  A    between atoms: C_5  and  O_6 
REMARK    5  A    between atoms: C_8  and  O_9 
REMARK    6  A    between atoms: C_12  and  C_14 
REMARK    7  A    between atoms: C_14  and  O_16 
REMARK    8  A    between atoms: C_19  and  O_20 
REMARK    9  A    between atoms: C_22  and  O_23 
REMARK   10  A    between atoms: C_25  and  O_26 
ROOT
HETATM    1  O   UNK N   1      40.838  43.771  47.824  0.00  0.00    -0.259 OA
HETATM    2  C   UNK N   1      40.815  44.817  48.460  0.00  0.00     0.297 C 
ENDROOT
BRANCH   2   3
HETATM    3  O   UNK N   1      40.337  45.952  47.893  0.00  0.00    -0.305 OA
BRANCH   3   4
HETATM    4  C   UNK N   1      40.362  46.234  46.536  0.00  0.00     0.187 C 
HETATM    5  C   UNK N   1      41.808  46.542  46.109  0.00  0.00     0.180 C 
HETATM    6  C   UNK N   1      42.186  47.924  46.649  0.00  0.00     0.154 C 
HETATM    7  C   UNK N   1      41.304  49.002  45.985  0.00  0.00     0.079 C 
HETATM    8  C   UNK N   1      39.830  48.641  45.962  0.00  0.00     0.017 C 
HETATM    9  C   UNK N   1      39.409  47.384  46.251  0.00  0.00     0.022 C 
BRANCH   5  10
HETATM   10  O   UNK N   1      42.682  45.564  46.612  0.00  0.00    -0.390 OA
HETATM   11  H   UNK N   1      42.115  44.823  46.952  0.00  0.00     0.210 HD
ENDBRANCH   5  10
BRANCH   6  12
HETATM   12  O   UNK N   1      43.546  48.213  46.454  0.00  0.00    -0.393 OA
HETATM   13  H   UNK N   1      43.820  47.801  45.594  0.00  0.00     0.210 HD
ENDBRANCH   6  12
BRANCH   8  14
HETATM   14  C   UNK N   1      38.850  49.701  45.596  0.00  0.00     0.171 C 
HETATM   15  O   UNK N   1      38.498  50.537  46.416  0.00  0.00    -0.646 OA
BRANCH  14  16
HETATM   16  O   UNK N   1      38.332  49.735  44.347  0.00  0.00    -0.773 OA
HETATM   17  H   UNK N   1      38.232  48.928  43.822  0.00  0.00     0.167 HD
ENDBRANCH  14  16
ENDBRANCH   8  14
ENDBRANCH   3   4
ENDBRANCH   2   3
BRANCH   2  18
HETATM   18  C   UNK N   1      41.072  44.797  49.921  0.00  0.00     0.081 A 
HETATM   19  C   UNK N   1      40.319  43.915  50.720  0.00  0.00     0.118 A 
HETATM   20  C   UNK N   1      40.476  43.909  52.115  0.00  0.00     0.133 A 
HETATM   21  C   UNK N   1      41.408  44.769  52.718  0.00  0.00     0.102 A 
HETATM   22  C   UNK N   1      42.175  45.632  51.930  0.00  0.00     0.047 A 
HETATM   23  C   UNK N   1      42.015  45.666  50.534  0.00  0.00    -0.040 A 
HETATM   24  C   UNK N   1      42.890  46.591  49.722  0.00  0.00     0.049 C 
BRANCH  19  25
HETATM   25  O   UNK N   1      39.405  43.105  50.136  0.00  0.00    -0.357 OA
HETATM   26  H   UNK N   1      38.517  42.970  50.492  0.00  0.00     0.218 HD
ENDBRANCH  19  25
BRANCH  20  27
HETATM   27  O   UNK N   1      39.715  43.082  52.865  0.00  0.00    -0.356 OA
HETATM   28  H   UNK N   1      39.103  43.406  53.539  0.00  0.00     0.218 HD
ENDBRANCH  20  27
BRANCH  21  29
HETATM   29  O   UNK N   1      41.558  44.760  54.060  0.00  0.00    -0.358 OA
HETATM   30  H   UNK N   1      40.860  44.446  54.652  0.00  0.00     0.218 HD
ENDBRANCH  21  29
ENDBRANCH   2  18
TORSDOF 10
ENDMDL
MODEL 4
REMARK VINA RESULT:      -6.3     13.666     16.180
REMARK  10 active torsions:
REMARK  status: ('A' for Active; 'I' for Inactive)
REMARK    1  A    between atoms: C_2  and  O_3 
REMARK    2  A    between atoms: C_2  and  C_18 
REMARK    3  A    between atoms: O_3  and  C_4 
REMARK    4  A    between atoms: C_5  and  O_6 
REMARK    5  A    between atoms: C_8  and  O_9 
REMARK    6  A    between atoms: C_12  and  C_14 
REMARK    7  A    between atoms: C_14  and  O_16 
REMARK    8  A    between atoms: C_19  and  O_20 
REMARK    9  A    between atoms: C_22  and  O_23 
REMARK   10  A    between atoms: C_25  and  O_26 
ROOT
HETATM    1  O   UNK N   1      29.965  56.106  41.584  0.00  0.00    -0.259 OA
HETATM    2  C   UNK N   1      30.269  54.925  41.473  0.00  0.00     0.297 C 
ENDROOT
BRANCH   2   3
HETATM    3  O   UNK N   1      31.323  54.422  42.163  0.00  0.00    -0.305 OA
BRANCH   3   4
HETATM    4  C   UNK N   1      31.257  53.904  43.447  0.00  0.00     0.187 C 
HETATM    5  C   UNK N   1      32.036  54.822  44.406  0.00  0.00     0.180 C 
HETATM    6  C   UNK N   1      33.533  54.632  44.145  0.00  0.00     0.154 C 
HETATM    7  C   UNK N   1      33.945  53.189  44.504  0.00  0.00     0.079 C 
HETATM    8  C   UNK N   1      33.001  52.139  43.948  0.00  0.00     0.017 C 
HETATM    9  C   UNK N   1      31.792  52.481  43.435  0.00  0.00     0.022 C 
BRANCH   5  10
HETATM   10  O   UNK N   1      31.670  56.162  44.199  0.00  0.00    -0.390 OA
HETATM   11  H   UNK N   1      30.721  56.246  44.482  0.00  0.00     0.210 HD
ENDBRANCH   5  10
BRANCH   6  12
HETATM   12  O   UNK N   1      34.314  55.557  44.855  0.00  0.00    -0.393 OA
HETATM   13  H   UNK N   1      34.715  55.081  45.627  0.00  0.00     0.210 HD
ENDBRANCH   6  12
BRANCH   8  14
HETATM   14  C   UNK N   1      33.426  50.712  43.994  0.00  0.00     0.171 C 
HETATM   15  O   UNK N   1      34.535  50.378  43.600  0.00  0.00    -0.646 OA
BRANCH  14  16
HETATM   16  O   UNK N   1      32.575  49.772  44.464  0.00  0.00    -0.773 OA
HETATM   17  H   UNK N   1      31.642  49.974  44.627  0.00  0.00     0.167 HD
ENDBRANCH  14  16
ENDBRANCH   8  14
ENDBRANCH   3   4
ENDBRANCH   2   3
BRANCH   2  18
HETATM   18  C   UNK N   1      29.347  53.988  40.786  0.00  0.00     0.081 A 
HETATM   19  C   UNK N   1      28.059  53.802  41.325  0.00  0.00     0.118 A 
HETATM   20  C   UNK N   1      27.175  52.875  40.753  0.00  0.00     0.133 A 
HETATM   21  C   UNK N   1      27.565  52.143  39.620  0.00  0.00     0.102 A 
HETATM   22  C   UNK N   1      28.835  52.337  39.065  0.00  0.00     0.047 A 
HETATM   23  C   UNK N   1      29.740  53.247  39.639  0.00  0.00    -0.040 A 
HETATM   24  C   UNK N   1      31.086  53.446  38.985  0.00  0.00     0.049 C 
BRANCH  19  25
HETATM   25  O   UNK N   1      27.696  54.493  42.432  0.00  0.00    -0.357 OA
HETATM   26  H   UNK N   1      28.326  54.765  43.113  0.00  0.00     0.218 HD
ENDBRANCH  19  25
BRANCH  20  27
HETATM   27  O   UNK N   1      25.959  52.685  41.310  0.00  0.00    -0.356 OA
HETATM   28  H   UNK N   1      25.634  53.219  42.047  0.00  0.00     0.218 HD
ENDBRANCH  20  27
BRANCH  21  29
HETATM   29  O   UNK N   1      26.713  51.252  39.070  0.00  0.00    -0.358 OA
HETATM   30  H   UNK N   1      25.810  51.495  38.817  0.00  0.00     0.218 HD
ENDBRANCH  21  29
ENDBRANCH   2  18
TORSDOF 10
ENDMDL
MODEL 5
REMARK VINA RESULT:      -6.2      2.231      3.450
REMARK  10 active torsions:
REMARK  status: ('A' for Active; 'I' for Inactive)
REMARK    1  A    between atoms: C_2  and  O_3 
REMARK    2  A    between atoms: C_2  and  C_18 
REMARK    3  A    between atoms: O_3  and  C_4 
REMARK    4  A    between atoms: C_5  and  O_6 
REMARK    5  A    between atoms: C_8  and  O_9 
REMARK    6  A    between atoms: C_12  and  C_14 
REMARK    7  A    between atoms: C_14  and  O_16 
REMARK    8  A    between atoms: C_19  and  O_20 
REMARK    9  A    between atoms: C_22  and  O_23 
REMARK   10  A    between atoms: C_25  and  O_26 
ROOT
HETATM    1  O   UNK N   1      41.891  44.274  48.231  0.00  0.00    -0.259 OA
HETATM    2  C   UNK N   1      41.032  44.733  48.973  0.00  0.00     0.297 C 
ENDROOT
BRANCH   2   3
HETATM    3  O   UNK N   1      39.811  45.061  48.485  0.00  0.00    -0.305 OA
BRANCH   3   4
HETATM    4  C   UNK N   1      39.576  46.008  47.501  0.00  0.00     0.187 C 
HETATM    5  C   UNK N   1      39.364  45.298  46.152  0.00  0.00     0.180 C 
HETATM    6  C   UNK N   1      40.719  44.775  45.665  0.00  0.00     0.154 C 
HETATM    7  C   UNK N   1      41.664  45.961  45.381  0.00  0.00     0.079 C 
HETATM    8  C   UNK N   1      41.673  47.000  46.488  0.00  0.00     0.017 C 
HETATM    9  C   UNK N   1      40.737  46.989  47.470  0.00  0.00     0.022 C 
BRANCH   5  10
HETATM   10  O   UNK N   1      38.455  44.238  46.299  0.00  0.00    -0.390 OA
HETATM   11  H   UNK N   1      38.862  43.600  46.943  0.00  0.00     0.210 HD
ENDBRANCH   5  10
BRANCH   6  12
HETATM   12  O   UNK N   1      40.593  43.963  44.526  0.00  0.00    -0.393 OA
HETATM   13  H   UNK N   1      39.700  43.531  44.564  0.00  0.00     0.210 HD
ENDBRANCH   6  12
BRANCH   8  14
HETATM   14  C   UNK N   1      42.731  48.048  46.462  0.00  0.00     0.171 C 
HETATM   15  O   UNK N   1      43.554  48.128  47.363  0.00  0.00    -0.646 OA
BRANCH  14  16
HETATM   16  O   UNK N   1      42.776  48.931  45.439  0.00  0.00    -0.773 OA
HETATM   17  H   UNK N   1      43.611  49.334  45.158  0.00  0.00     0.167 HD
ENDBRANCH  14  16
ENDBRANCH   8  14
ENDBRANCH   3   4
ENDBRANCH   2   3
BRANCH   2  18
HETATM   18  C   UNK N   1      41.234  44.700  50.443  0.00  0.00     0.081 A 
HETATM   19  C   UNK N   1      40.445  43.817  51.206  0.00  0.00     0.118 A 
HETATM   20  C   UNK N   1      40.549  43.799  52.605  0.00  0.00     0.133 A 
HETATM   21  C   UNK N   1      41.462  44.648  53.250  0.00  0.00     0.102 A 
HETATM   22  C   UNK N   1      42.265  45.513  52.498  0.00  0.00     0.047 A 
HETATM   23  C   UNK N   1      42.159  45.558  51.097  0.00  0.00    -0.040 A 
HETATM   24  C   UNK N   1      43.069  46.483  50.326  0.00  0.00     0.049 C 
BRANCH  19  25
HETATM   25  O   UNK N   1      39.549  43.017  50.581  0.00  0.00    -0.357 OA
HETATM   26  H   UNK N   1      39.051  42.326  51.038  0.00  0.00     0.218 HD
ENDBRANCH  19  25
BRANCH  20  27
HETATM   27  O   UNK N   1      39.755  42.972  53.320  0.00  0.00    -0.356 OA
HETATM   28  H   UNK N   1      39.955  42.715  54.230  0.00  0.00     0.218 HD
ENDBRANCH  20  27
BRANCH  21  29
HETATM   29  O   UNK N   1      41.562  44.628  54.596  0.00  0.00    -0.358 OA
HETATM   30  H   UNK N   1      42.390  44.839  55.052  0.00  0.00     0.218 HD
ENDBRANCH  21  29
ENDBRANCH   2  18
TORSDOF 10
ENDMDL
MODEL 6
REMARK VINA RESULT:      -6.1     14.225     16.005
REMARK  10 active torsions:
REMARK  status: ('A' for Active; 'I' for Inactive)
REMARK    1  A    between atoms: C_2  and  O_3 
REMARK    2  A    between atoms: C_2  and  C_18 
REMARK    3  A    between atoms: O_3  and  C_4 
REMARK    4  A    between atoms: C_5  and  O_6 
REMARK    5  A    between atoms: C_8  and  O_9 
REMARK    6  A    between atoms: C_12  and  C_14 
REMARK    7  A    between atoms: C_14  and  O_16 
REMARK    8  A    between atoms: C_19  and  O_20 
REMARK    9  A    between atoms: C_22  and  O_23 
REMARK   10  A    between atoms: C_25  and  O_26 
ROOT
HETATM    1  O   UNK N   1      51.248  54.069  41.801  0.00  0.00    -0.259 OA
HETATM    2  C   UNK N   1      50.772  55.087  42.291  0.00  0.00     0.297 C 
ENDROOT
BRANCH   2   3
HETATM    3  O   UNK N   1      49.723  55.705  41.696  0.00  0.00    -0.305 OA
BRANCH   3   4
HETATM    4  C   UNK N   1      49.819  56.587  40.631  0.00  0.00     0.187 C 
HETATM    5  C   UNK N   1      48.505  56.562  39.830  0.00  0.00     0.180 C 
HETATM    6  C   UNK N   1      48.444  55.246  39.048  0.00  0.00     0.154 C 
HETATM    7  C   UNK N   1      49.582  55.205  38.008  0.00  0.00     0.079 C 
HETATM    8  C   UNK N   1      50.928  55.619  38.573  0.00  0.00     0.017 C 
HETATM    9  C   UNK N   1      51.028  56.215  39.788  0.00  0.00     0.022 C 
BRANCH   5  10
HETATM   10  O   UNK N   1      47.406  56.667  40.697  0.00  0.00    -0.390 OA
HETATM   11  H   UNK N   1      47.045  57.587  40.590  0.00  0.00     0.210 HD
ENDBRANCH   5  10
BRANCH   6  12
HETATM   12  O   UNK N   1      47.200  55.061  38.425  0.00  0.00    -0.393 OA
HETATM   13  H   UNK N   1      47.139  55.712  37.679  0.00  0.00     0.210 HD
ENDBRANCH   6  12
BRANCH   8  14
HETATM   14  C   UNK N   1      52.146  55.368  37.751  0.00  0.00     0.171 C 
HETATM   15  O   UNK N   1      53.108  54.781  38.225  0.00  0.00    -0.646 OA
BRANCH  14  16
HETATM   16  O   UNK N   1      52.194  55.804  36.473  0.00  0.00    -0.773 OA
HETATM   17  H   UNK N   1      52.857  56.448  36.185  0.00  0.00     0.167 HD
ENDBRANCH  14  16
ENDBRANCH   8  14
ENDBRANCH   3   4
ENDBRANCH   2   3
BRANCH   2  18
HETATM   18  C   UNK N   1      51.174  55.504  43.656  0.00  0.00     0.081 A 
HETATM   19  C   UNK N   1      50.410  55.046  44.747  0.00  0.00     0.118 A 
HETATM   20  C   UNK N   1      50.707  55.469  46.052  0.00  0.00     0.133 A 
HETATM   21  C   UNK N   1      51.789  56.336  46.277  0.00  0.00     0.102 A 
HETATM   22  C   UNK N   1      52.566  56.778  45.201  0.00  0.00     0.047 A 
HETATM   23  C   UNK N   1      52.269  56.380  43.887  0.00  0.00    -0.040 A 
HETATM   24  C   UNK N   1      53.157  56.857  42.762  0.00  0.00     0.049 C 
BRANCH  19  25
HETATM   25  O   UNK N   1      49.353  54.229  44.522  0.00  0.00    -0.357 OA
HETATM   26  H   UNK N   1      49.172  53.444  45.055  0.00  0.00     0.218 HD
ENDBRANCH  19  25
BRANCH  20  27
HETATM   27  O   UNK N   1      49.936  55.048  47.079  0.00  0.00    -0.356 OA
HETATM   28  H   UNK N   1      49.015  54.781  46.963  0.00  0.00     0.218 HD
ENDBRANCH  20  27
BRANCH  21  29
HETATM   29  O   UNK N   1      52.074  56.741  47.533  0.00  0.00    -0.358 OA
HETATM   30  H   UNK N   1      51.816  57.614  47.861  0.00  0.00     0.218 HD
ENDBRANCH  21  29
ENDBRANCH   2  18
TORSDOF 10
ENDMDL
MODEL 7
REMARK VINA RESULT:      -5.8      3.400      5.645
REMARK  10 active torsions:
REMARK  status: ('A' for Active; 'I' for Inactive)
REMARK    1  A    between atoms: C_2  and  O_3 
REMARK    2  A    between atoms: C_2  and  C_18 
REMARK    3  A    between atoms: O_3  and  C_4 
REMARK    4  A    between atoms: C_5  and  O_6 
REMARK    5  A    between atoms: C_8  and  O_9 
REMARK    6  A    between atoms: C_12  and  C_14 
REMARK    7  A    between atoms: C_14  and  O_16 
REMARK    8  A    between atoms: C_19  and  O_20 
REMARK    9  A    between atoms: C_22  and  O_23 
REMARK   10  A    between atoms: C_25  and  O_26 
ROOT
HETATM    1  O   UNK N   1      42.138  45.017  45.037  0.00  0.00    -0.259 OA
HETATM    2  C   UNK N   1      41.651  45.962  45.646  0.00  0.00     0.297 C 
ENDROOT
BRANCH   2   3
HETATM    3  O   UNK N   1      40.822  46.828  45.014  0.00  0.00    -0.305 OA
BRANCH   3   4
HETATM    4  C   UNK N   1      40.076  47.815  45.640  0.00  0.00     0.187 C 
HETATM    5  C   UNK N   1      38.579  47.490  45.495  0.00  0.00     0.180 C 
HETATM    6  C   UNK N   1      38.166  47.760  44.045  0.00  0.00     0.154 C 
HETATM    7  C   UNK N   1      38.311  49.264  43.734  0.00  0.00     0.079 C 
HETATM    8  C   UNK N   1      39.628  49.851  44.205  0.00  0.00     0.017 C 
HETATM    9  C   UNK N   1      40.444  49.165  45.046  0.00  0.00     0.022 C 
BRANCH   5  10
HETATM   10  O   UNK N   1      38.339  46.148  45.830  0.00  0.00    -0.390 OA
HETATM   11  H   UNK N   1      37.600  46.147  46.494  0.00  0.00     0.210 HD
ENDBRANCH   5  10
BRANCH   6  12
HETATM   12  O   UNK N   1      36.858  47.326  43.780  0.00  0.00    -0.393 OA
HETATM   13  H   UNK N   1      36.700  47.428  42.806  0.00  0.00     0.210 HD
ENDBRANCH   6  12
BRANCH   8  14
HETATM   14  C   UNK N   1      40.002  51.214  43.733  0.00  0.00     0.171 C 
HETATM   15  O   UNK N   1      40.520  52.019  44.495  0.00  0.00    -0.646 OA
BRANCH  14  16
HETATM   16  O   UNK N   1      39.756  51.572  42.453  0.00  0.00    -0.773 OA
HETATM   17  H   UNK N   1      39.443  52.461  42.230  0.00  0.00     0.167 HD
ENDBRANCH  14  16
ENDBRANCH   8  14
ENDBRANCH   3   4
ENDBRANCH   2   3
BRANCH   2  18
HETATM   18  C   UNK N   1      41.762  46.021  47.124  0.00  0.00     0.081 A 
HETATM   19  C   UNK N   1      41.048  45.076  47.887  0.00  0.00     0.118 A 
HETATM   20  C   UNK N   1      41.065  45.134  49.289  0.00  0.00     0.133 A 
HETATM   21  C   UNK N   1      41.818  46.125  49.939  0.00  0.00     0.102 A 
HETATM   22  C   UNK N   1      42.547  47.054  49.189  0.00  0.00     0.047 A 
HETATM   23  C   UNK N   1      42.524  47.023  47.785  0.00  0.00    -0.040 A 
HETATM   24  C   UNK N   1      43.353  48.026  47.019  0.00  0.00     0.049 C 
BRANCH  19  25
HETATM   25  O   UNK N   1      40.305  44.137  47.255  0.00  0.00    -0.357 OA
HETATM   26  H   UNK N   1      39.576  43.668  47.683  0.00  0.00     0.218 HD
ENDBRANCH  19  25
BRANCH  20  27
HETATM   27  O   UNK N   1      40.342  44.242  50.000  0.00  0.00    -0.356 OA
HETATM   28  H   UNK N   1      39.889  44.474  50.821  0.00  0.00     0.218 HD
ENDBRANCH  20  27
BRANCH  21  29
HETATM   29  O   UNK N   1      41.835  46.179  51.288  0.00  0.00    -0.358 OA
HETATM   30  H   UNK N   1      41.113  45.819  51.824  0.00  0.00     0.218 HD
ENDBRANCH  21  29
ENDBRANCH   2  18
TORSDOF 10
ENDMDL
MODEL 8
REMARK VINA RESULT:      -5.7      1.588      2.375
REMARK  10 active torsions:
REMARK  status: ('A' for Active; 'I' for Inactive)
REMARK    1  A    between atoms: C_2  and  O_3 
REMARK    2  A    between atoms: C_2  and  C_18 
REMARK    3  A    between atoms: O_3  and  C_4 
REMARK    4  A    between atoms: C_5  and  O_6 
REMARK    5  A    between atoms: C_8  and  O_9 
REMARK    6  A    between atoms: C_12  and  C_14 
REMARK    7  A    between atoms: C_14  and  O_16 
REMARK    8  A    between atoms: C_19  and  O_20 
REMARK    9  A    between atoms: C_22  and  O_23 
REMARK   10  A    between atoms: C_25  and  O_26 
ROOT
HETATM    1  O   UNK N   1      40.576  46.583  48.571  0.00  0.00    -0.259 OA
HETATM    2  C   UNK N   1      40.822  45.406  48.806  0.00  0.00     0.297 C 
ENDROOT
BRANCH   2   3
HETATM    3  O   UNK N   1      41.151  44.562  47.797  0.00  0.00    -0.305 OA
BRANCH   3   4
HETATM    4  C   UNK N   1      41.804  44.931  46.632  0.00  0.00     0.187 C 
HETATM    5  C   UNK N   1      40.810  44.891  45.458  0.00  0.00     0.180 C 
HETATM    6  C   UNK N   1      40.525  43.425  45.119  0.00  0.00     0.154 C 
HETATM    7  C   UNK N   1      41.814  42.747  44.613  0.00  0.00     0.079 C 
HETATM    8  C   UNK N   1      43.027  43.040  45.478  0.00  0.00     0.017 C 
HETATM    9  C   UNK N   1      42.998  44.015  46.422  0.00  0.00     0.022 C 
BRANCH   5  10
HETATM   10  O   UNK N   1      39.621  45.553  45.805  0.00  0.00    -0.390 OA
HETATM   11  H   UNK N   1      39.549  46.342  45.206  0.00  0.00     0.210 HD
ENDBRANCH   5  10
BRANCH   6  12
HETATM   12  O   UNK N   1      39.496  43.292  44.174  0.00  0.00    -0.393 OA
HETATM   13  H   UNK N   1      38.944  44.116  44.214  0.00  0.00     0.210 HD
ENDBRANCH   6  12
BRANCH   8  14
HETATM   14  C   UNK N   1      44.263  42.239  45.255  0.00  0.00     0.171 C 
HETATM   15  O   UNK N   1      45.151  42.214  46.095  0.00  0.00    -0.646 OA
BRANCH  14  16
HETATM   16  O   UNK N   1      44.412  41.540  44.107  0.00  0.00    -0.773 OA
HETATM   17  H   UNK N   1      44.752  40.634  44.110  0.00  0.00     0.167 HD
ENDBRANCH  14  16
ENDBRANCH   8  14
ENDBRANCH   3   4
ENDBRANCH   2   3
BRANCH   2  18
HETATM   18  C   UNK N   1      41.006  44.958  50.208  0.00  0.00     0.081 A 
HETATM   19  C   UNK N   1      41.886  45.686  51.032  0.00  0.00     0.118 A 
HETATM   20  C   UNK N   1      42.147  45.261  52.345  0.00  0.00     0.133 A 
HETATM   21  C   UNK N   1      41.508  44.117  52.850  0.00  0.00     0.102 A 
HETATM   22  C   UNK N   1      40.616  43.401  52.044  0.00  0.00     0.047 A 
HETATM   23  C   UNK N   1      40.360  43.801  50.721  0.00  0.00    -0.040 A 
HETATM   24  C   UNK N   1      39.364  43.015  49.901  0.00  0.00     0.049 C 
BRANCH  19  25
HETATM   25  O   UNK N   1      42.517  46.775  50.533  0.00  0.00    -0.357 OA
HETATM   26  H   UNK N   1      42.654  47.583  51.044  0.00  0.00     0.218 HD
ENDBRANCH  19  25
BRANCH  20  27
HETATM   27  O   UNK N   1      43.024  45.952  53.105  0.00  0.00    -0.356 OA
HETATM   28  H   UNK N   1      42.872  46.133  54.041  0.00  0.00     0.218 HD
ENDBRANCH  20  27
BRANCH  21  29
HETATM   29  O   UNK N   1      41.759  43.710  54.112  0.00  0.00    -0.358 OA
HETATM   30  H   UNK N   1      42.661  43.633  54.456  0.00  0.00     0.218 HD
ENDBRANCH  21  29
ENDBRANCH   2  18
TORSDOF 10
ENDMDL
MODEL 9
REMARK VINA RESULT:      -5.7     14.254     16.536
REMARK  10 active torsions:
REMARK  status: ('A' for Active; 'I' for Inactive)
REMARK    1  A    between atoms: C_2  and  O_3 
REMARK    2  A    between atoms: C_2  and  C_18 
REMARK    3  A    between atoms: O_3  and  C_4 
REMARK    4  A    between atoms: C_5  and  O_6 
REMARK    5  A    between atoms: C_8  and  O_9 
REMARK    6  A    between atoms: C_12  and  C_14 
REMARK    7  A    between atoms: C_14  and  O_16 
REMARK    8  A    between atoms: C_19  and  O_20 
REMARK    9  A    between atoms: C_22  and  O_23 
REMARK   10  A    between atoms: C_25  and  O_26 
ROOT
HETATM    1  O   UNK N   1      31.443  55.865  42.353  0.00  0.00    -0.259 OA
HETATM    2  C   UNK N   1      30.855  54.882  42.787  0.00  0.00     0.297 C 
ENDROOT
BRANCH   2   3
HETATM    3  O   UNK N   1      29.514  54.763  42.629  0.00  0.00    -0.305 OA
BRANCH   3   4
HETATM    4  C   UNK N   1      28.751  55.493  41.730  0.00  0.00     0.187 C 
HETATM    5  C   UNK N   1      27.286  55.029  41.813  0.00  0.00     0.180 C 
HETATM    6  C   UNK N   1      27.180  53.650  41.155  0.00  0.00     0.154 C 
HETATM    7  C   UNK N   1      27.509  53.763  39.652  0.00  0.00     0.079 C 
HETATM    8  C   UNK N   1      28.760  54.576  39.371  0.00  0.00     0.017 C 
HETATM    9  C   UNK N   1      29.339  55.333  40.337  0.00  0.00     0.022 C 
BRANCH   5  10
HETATM   10  O   UNK N   1      26.873  54.965  43.154  0.00  0.00    -0.390 OA
HETATM   11  H   UNK N   1      27.187  55.801  43.589  0.00  0.00     0.210 HD
ENDBRANCH   5  10
BRANCH   6  12
HETATM   12  O   UNK N   1      25.913  53.074  41.339  0.00  0.00    -0.393 OA
HETATM   13  H   UNK N   1      26.029  52.089  41.344  0.00  0.00     0.210 HD
ENDBRANCH   6  12
BRANCH   8  14
HETATM   14  C   UNK N   1      29.332  54.537  37.996  0.00  0.00     0.171 C 
HETATM   15  O   UNK N   1      28.610  54.371  37.023  0.00  0.00    -0.646 OA
BRANCH  14  16
HETATM   16  O   UNK N   1      30.666  54.674  37.820  0.00  0.00    -0.773 OA
HETATM   17  H   UNK N   1      31.137  55.461  38.131  0.00  0.00     0.167 HD
ENDBRANCH  14  16
ENDBRANCH   8  14
ENDBRANCH   3   4
ENDBRANCH   2   3
BRANCH   2  18
HETATM   18  C   UNK N   1      31.630  53.710  43.260  0.00  0.00     0.081 A 
HETATM   19  C   UNK N   1      31.531  52.506  42.537  0.00  0.00     0.118 A 
HETATM   20  C   UNK N   1      32.189  51.350  42.984  0.00  0.00     0.133 A 
HETATM   21  C   UNK N   1      32.973  51.397  44.148  0.00  0.00     0.102 A 
HETATM   22  C   UNK N   1      33.094  52.595  44.862  0.00  0.00     0.047 A 
HETATM   23  C   UNK N   1      32.425  53.756  44.439  0.00  0.00    -0.040 A 
HETATM   24  C   UNK N   1      32.612  55.033  45.222  0.00  0.00     0.049 C 
BRANCH  19  25
HETATM   25  O   UNK N   1      30.755  52.459  41.428  0.00  0.00    -0.357 OA
HETATM   26  H   UNK N   1      29.827  52.191  41.446  0.00  0.00     0.218 HD
ENDBRANCH  19  25
BRANCH  20  27
HETATM   27  O   UNK N   1      32.048  50.196  42.295  0.00  0.00    -0.356 OA
HETATM   28  H   UNK N   1      32.046  49.330  42.724  0.00  0.00     0.218 HD
ENDBRANCH  20  27
BRANCH  21  29
HETATM   29  O   UNK N   1      33.606  50.285  44.577  0.00  0.00    -0.358 OA
HETATM   30  H   UNK N   1      33.286  49.397  44.361  0.00  0.00     0.218 HD
ENDBRANCH  21  29
ENDBRANCH   2  18
TORSDOF 10
ENDMDL
