MODEL 1
REMARK VINA RESULT:      -8.2      0.000      0.000
REMARK  3 active torsions:
REMARK  status: ('A' for Active; 'I' for Inactive)
REMARK    1  A    between atoms: C_6  and  O_9 
REMARK    2  A    between atoms: C_13  and  C_14 
REMARK    3  A    between atoms: C_17  and  O_18 
ROOT
HETATM    1  O   UNK N   1      40.752  46.129  48.702  0.00  0.00    -0.340 OA
HETATM    2  C   UNK N   1      40.858  46.949  47.620  0.00  0.00     0.084 A 
HETATM    3  C   UNK N   1      42.036  47.700  47.423  0.00  0.00    -0.024 A 
HETATM    4  C   UNK N   1      42.172  48.495  46.283  0.00  0.00     0.013 A 
HETATM    5  C   UNK N   1      41.137  48.576  45.355  0.00  0.00     0.038 A 
HETATM    6  C   UNK N   1      39.937  47.859  45.550  0.00  0.00     0.076 A 
HETATM    7  C   UNK N   1      39.799  47.039  46.696  0.00  0.00     0.005 A 
HETATM    8  C   UNK N   1      38.540  46.244  46.934  0.00  0.00     0.054 C 
HETATM    9  C   UNK N   1      43.159  47.633  48.432  0.00  0.00     0.044 C 
HETATM   10  C   UNK N   1      42.690  47.010  49.756  0.00  0.00     0.042 C 
HETATM   11  C   UNK N   1      41.857  45.761  49.456  0.00  0.00     0.162 C 
ENDROOT
BRANCH  11  12
HETATM   12  C   UNK N   1      41.411  45.058  50.717  0.00  0.00    -0.029 A 
HETATM   13  C   UNK N   1      40.403  44.081  50.657  0.00  0.00     0.012 A 
HETATM   14  C   UNK N   1      39.987  43.423  51.818  0.00  0.00     0.037 A 
HETATM   15  C   UNK N   1      40.569  43.733  53.050  0.00  0.00     0.065 A 
HETATM   16  C   UNK N   1      41.574  44.709  53.118  0.00  0.00     0.037 A 
HETATM   17  C   UNK N   1      41.994  45.369  51.959  0.00  0.00     0.012 A 
BRANCH  15  18
HETATM   18  O   UNK N   1      40.158  43.089  54.161  0.00  0.00    -0.361 OA
HETATM   19  H   UNK N   1      39.756  43.561  54.904  0.00  0.00     0.217 HD
ENDBRANCH  15  18
ENDBRANCH  11  12
BRANCH   6  20
HETATM   20  O   UNK N   1      38.919  47.919  44.648  0.00  0.00    -0.355 OA
HETATM   21  C   UNK N   1      38.619  49.012  43.858  0.00  0.00     0.210 C 
ENDBRANCH   6  20
TORSDOF 3
ENDMDL
MODEL 2
REMARK VINA RESULT:      -7.6      3.233      3.888
REMARK  3 active torsions:
REMARK  status: ('A' for Active; 'I' for Inactive)
REMARK    1  A    between atoms: C_6  and  O_9 
REMARK    2  A    between atoms: C_13  and  C_14 
REMARK    3  A    between atoms: C_17  and  O_18 
ROOT
HETATM    1  O   UNK N   1      41.750  44.010  48.383  0.00  0.00    -0.340 OA
HETATM    2  C   UNK N   1      41.856  44.091  47.027  0.00  0.00     0.084 A 
HETATM    3  C   UNK N   1      41.413  45.252  46.359  0.00  0.00    -0.024 A 
HETATM    4  C   UNK N   1      41.575  45.363  44.976  0.00  0.00     0.013 A 
HETATM    5  C   UNK N   1      42.141  44.318  44.249  0.00  0.00     0.038 A 
HETATM    6  C   UNK N   1      42.560  43.135  44.895  0.00  0.00     0.076 A 
HETATM    7  C   UNK N   1      42.413  43.023  46.298  0.00  0.00     0.005 A 
HETATM    8  C   UNK N   1      42.860  41.782  47.029  0.00  0.00     0.054 C 
HETATM    9  C   UNK N   1      40.782  46.384  47.135  0.00  0.00     0.044 C 
HETATM   10  C   UNK N   1      40.372  45.939  48.548  0.00  0.00     0.042 C 
HETATM   11  C   UNK N   1      41.513  45.129  49.169  0.00  0.00     0.162 C 
ENDROOT
BRANCH  11  12
HETATM   12  C   UNK N   1      41.205  44.707  50.587  0.00  0.00    -0.029 A 
HETATM   13  C   UNK N   1      40.234  43.721  50.831  0.00  0.00     0.012 A 
HETATM   14  C   UNK N   1      39.946  43.323  52.140  0.00  0.00     0.037 A 
HETATM   15  C   UNK N   1      40.619  43.904  53.217  0.00  0.00     0.065 A 
HETATM   16  C   UNK N   1      41.587  44.892  52.982  0.00  0.00     0.037 A 
HETATM   17  C   UNK N   1      41.879  45.292  51.674  0.00  0.00     0.012 A 
BRANCH  15  18
HETATM   18  O   UNK N   1      40.331  43.509  54.475  0.00  0.00    -0.361 OA
HETATM   19  H   UNK N   1      40.583  42.636  54.805  0.00  0.00     0.217 HD
ENDBRANCH  15  18
ENDBRANCH  11  12
BRANCH   6  20
HETATM   20  O   UNK N   1      43.124  42.108  44.200  0.00  0.00    -0.355 OA
HETATM   21  C   UNK N   1      44.476  41.831  44.146  0.00  0.00     0.210 C 
ENDBRANCH   6  20
TORSDOF 3
ENDMDL
MODEL 3
REMARK VINA RESULT:      -7.4      1.595      7.158
REMARK  3 active torsions:
REMARK  status: ('A' for Active; 'I' for Inactive)
REMARK    1  A    between atoms: C_6  and  O_9 
REMARK    2  A    between atoms: C_13  and  C_14 
REMARK    3  A    between atoms: C_17  and  O_18 
ROOT
HETATM    1  O   UNK N   1      40.149  47.362  47.044  0.00  0.00    -0.340 OA
HETATM    2  C   UNK N   1      40.725  46.687  48.077  0.00  0.00     0.084 A 
HETATM    3  C   UNK N   1      42.045  47.000  48.467  0.00  0.00    -0.024 A 
HETATM    4  C   UNK N   1      42.617  46.352  49.564  0.00  0.00     0.013 A 
HETATM    5  C   UNK N   1      41.903  45.375  50.255  0.00  0.00     0.038 A 
HETATM    6  C   UNK N   1      40.594  45.024  49.859  0.00  0.00     0.076 A 
HETATM    7  C   UNK N   1      40.003  45.689  48.758  0.00  0.00     0.005 A 
HETATM    8  C   UNK N   1      38.601  45.355  48.312  0.00  0.00     0.054 C 
HETATM    9  C   UNK N   1      42.835  48.045  47.715  0.00  0.00     0.044 C 
HETATM   10  C   UNK N   1      42.188  48.373  46.360  0.00  0.00     0.042 C 
HETATM   11  C   UNK N   1      40.679  48.548  46.554  0.00  0.00     0.162 C 
ENDROOT
BRANCH  11  12
HETATM   12  C   UNK N   1      39.981  48.934  45.270  0.00  0.00    -0.029 A 
HETATM   13  C   UNK N   1      38.851  48.217  44.842  0.00  0.00     0.012 A 
HETATM   14  C   UNK N   1      38.198  48.569  43.658  0.00  0.00     0.037 A 
HETATM   15  C   UNK N   1      38.664  49.638  42.888  0.00  0.00     0.065 A 
HETATM   16  C   UNK N   1      39.794  50.356  43.306  0.00  0.00     0.037 A 
HETATM   17  C   UNK N   1      40.450  50.007  44.491  0.00  0.00     0.012 A 
BRANCH  15  18
HETATM   18  O   UNK N   1      38.023  49.967  41.747  0.00  0.00    -0.361 OA
HETATM   19  H   UNK N   1      38.482  50.389  41.008  0.00  0.00     0.217 HD
ENDBRANCH  15  18
ENDBRANCH  11  12
BRANCH   6  20
HETATM   20  O   UNK N   1      39.880  44.079  50.528  0.00  0.00    -0.355 OA
HETATM   21  C   UNK N   1      40.211  43.555  51.763  0.00  0.00     0.210 C 
ENDBRANCH   6  20
TORSDOF 3
ENDMDL
MODEL 4
REMARK VINA RESULT:      -7.2      1.633      7.405
REMARK  3 active torsions:
REMARK  status: ('A' for Active; 'I' for Inactive)
REMARK    1  A    between atoms: C_6  and  O_9 
REMARK    2  A    between atoms: C_13  and  C_14 
REMARK    3  A    between atoms: C_17  and  O_18 
ROOT
HETATM    1  O   UNK N   1      40.602  47.068  47.412  0.00  0.00    -0.340 OA
HETATM    2  C   UNK N   1      40.595  46.167  48.434  0.00  0.00     0.084 A 
HETATM    3  C   UNK N   1      39.661  45.110  48.428  0.00  0.00    -0.024 A 
HETATM    4  C   UNK N   1      39.690  44.150  49.442  0.00  0.00     0.013 A 
HETATM    5  C   UNK N   1      40.616  44.250  50.478  0.00  0.00     0.038 A 
HETATM    6  C   UNK N   1      41.537  45.320  50.520  0.00  0.00     0.076 A 
HETATM    7  C   UNK N   1      41.523  46.287  49.486  0.00  0.00     0.005 A 
HETATM    8  C   UNK N   1      42.499  47.436  49.485  0.00  0.00     0.054 C 
HETATM    9  C   UNK N   1      38.641  45.000  47.319  0.00  0.00     0.044 C 
HETATM   10  C   UNK N   1      38.535  46.309  46.520  0.00  0.00     0.042 C 
HETATM   11  C   UNK N   1      39.943  46.826  46.215  0.00  0.00     0.162 C 
ENDROOT
BRANCH  11  12
HETATM   12  C   UNK N   1      39.919  48.083  45.376  0.00  0.00    -0.029 A 
HETATM   13  C   UNK N   1      38.814  48.355  44.550  0.00  0.00     0.012 A 
HETATM   14  C   UNK N   1      38.782  49.516  43.774  0.00  0.00     0.037 A 
HETATM   15  C   UNK N   1      39.850  50.417  43.810  0.00  0.00     0.065 A 
HETATM   16  C   UNK N   1      40.957  50.151  44.628  0.00  0.00     0.037 A 
HETATM   17  C   UNK N   1      40.993  48.990  45.408  0.00  0.00     0.012 A 
BRANCH  15  18
HETATM   18  O   UNK N   1      39.804  51.535  43.055  0.00  0.00    -0.361 OA
HETATM   19  H   UNK N   1      38.983  52.030  42.928  0.00  0.00     0.217 HD
ENDBRANCH  15  18
ENDBRANCH  11  12
BRANCH   6  20
HETATM   20  O   UNK N   1      42.455  45.427  51.520  0.00  0.00    -0.355 OA
HETATM   21  C   UNK N   1      42.167  45.405  52.871  0.00  0.00     0.210 C 
ENDBRANCH   6  20
TORSDOF 3
ENDMDL
MODEL 5
REMARK VINA RESULT:      -7.2      3.457      7.545
REMARK  3 active torsions:
REMARK  status: ('A' for Active; 'I' for Inactive)
REMARK    1  A    between atoms: C_6  and  O_9 
REMARK    2  A    between atoms: C_13  and  C_14 
REMARK    3  A    between atoms: C_17  and  O_18 
ROOT
HETATM    1  O   UNK N   1      40.634  46.538  45.226  0.00  0.00    -0.340 OA
HETATM    2  C   UNK N   1      41.024  45.471  45.978  0.00  0.00     0.084 A 
HETATM    3  C   UNK N   1      40.724  45.439  47.356  0.00  0.00    -0.024 A 
HETATM    4  C   UNK N   1      41.068  44.319  48.117  0.00  0.00     0.013 A 
HETATM    5  C   UNK N   1      41.736  43.248  47.528  0.00  0.00     0.038 A 
HETATM    6  C   UNK N   1      42.075  43.275  46.158  0.00  0.00     0.076 A 
HETATM    7  C   UNK N   1      41.715  44.400  45.378  0.00  0.00     0.005 A 
HETATM    8  C   UNK N   1      42.044  44.463  43.908  0.00  0.00     0.054 C 
HETATM    9  C   UNK N   1      40.015  46.602  48.010  0.00  0.00     0.044 C 
HETATM   10  C   UNK N   1      40.044  47.852  47.116  0.00  0.00     0.042 C 
HETATM   11  C   UNK N   1      39.693  47.452  45.680  0.00  0.00     0.162 C 
ENDROOT
BRANCH  11  12
HETATM   12  C   UNK N   1      39.642  48.644  44.753  0.00  0.00    -0.029 A 
HETATM   13  C   UNK N   1      38.675  48.700  43.735  0.00  0.00     0.012 A 
HETATM   14  C   UNK N   1      38.619  49.801  42.875  0.00  0.00     0.037 A 
HETATM   15  C   UNK N   1      39.525  50.854  43.019  0.00  0.00     0.065 A 
HETATM   16  C   UNK N   1      40.495  50.804  44.031  0.00  0.00     0.037 A 
HETATM   17  C   UNK N   1      40.555  49.704  44.894  0.00  0.00     0.012 A 
BRANCH  15  18
HETATM   18  O   UNK N   1      39.458  51.910  42.182  0.00  0.00    -0.361 OA
HETATM   19  H   UNK N   1      38.993  52.723  42.424  0.00  0.00     0.217 HD
ENDBRANCH  15  18
ENDBRANCH  11  12
BRANCH   6  20
HETATM   20  O   UNK N   1      42.720  42.233  45.565  0.00  0.00    -0.355 OA
HETATM   21  C   UNK N   1      43.070  41.053  46.192  0.00  0.00     0.210 C 
ENDBRANCH   6  20
TORSDOF 3
ENDMDL
MODEL 6
REMARK VINA RESULT:      -6.5      1.397      2.610
REMARK  3 active torsions:
REMARK  status: ('A' for Active; 'I' for Inactive)
REMARK    1  A    between atoms: C_6  and  O_9 
REMARK    2  A    between atoms: C_13  and  C_14 
REMARK    3  A    between atoms: C_17  and  O_18 
ROOT
HETATM    1  O   UNK N   1      40.638  46.002  49.066  0.00  0.00    -0.340 OA
HETATM    2  C   UNK N   1      40.317  46.461  47.825  0.00  0.00     0.084 A 
HETATM    3  C   UNK N   1      39.211  45.914  47.140  0.00  0.00    -0.024 A 
HETATM    4  C   UNK N   1      38.843  46.425  45.893  0.00  0.00     0.013 A 
HETATM    5  C   UNK N   1      39.583  47.450  45.307  0.00  0.00     0.038 A 
HETATM    6  C   UNK N   1      40.712  47.988  45.962  0.00  0.00     0.076 A 
HETATM    7  C   UNK N   1      41.081  47.486  47.233  0.00  0.00     0.005 A 
HETATM    8  C   UNK N   1      42.271  48.043  47.972  0.00  0.00     0.054 C 
HETATM    9  C   UNK N   1      38.412  44.790  47.758  0.00  0.00     0.044 C 
HETATM   10  C   UNK N   1      39.167  44.141  48.929  0.00  0.00     0.042 C 
HETATM   11  C   UNK N   1      39.755  45.239  49.818  0.00  0.00     0.162 C 
ENDROOT
BRANCH  11  12
HETATM   12  C   UNK N   1      40.461  44.675  51.028  0.00  0.00    -0.029 A 
HETATM   13  C   UNK N   1      39.976  43.508  51.644  0.00  0.00     0.012 A 
HETATM   14  C   UNK N   1      40.626  42.977  52.762  0.00  0.00     0.037 A 
HETATM   15  C   UNK N   1      41.763  43.603  53.279  0.00  0.00     0.065 A 
HETATM   16  C   UNK N   1      42.251  44.769  52.672  0.00  0.00     0.037 A 
HETATM   17  C   UNK N   1      41.604  45.304  51.553  0.00  0.00     0.012 A 
BRANCH  15  18
HETATM   18  O   UNK N   1      42.379  43.078  54.358  0.00  0.00    -0.361 OA
HETATM   19  H   UNK N   1      42.022  43.183  55.250  0.00  0.00     0.217 HD
ENDBRANCH  15  18
ENDBRANCH  11  12
BRANCH   6  20
HETATM   20  O   UNK N   1      41.440  48.996  45.407  0.00  0.00    -0.355 OA
HETATM   21  C   UNK N   1      40.923  50.026  44.645  0.00  0.00     0.210 C 
ENDBRANCH   6  20
TORSDOF 3
ENDMDL
MODEL 7
REMARK VINA RESULT:      -6.3      9.491     14.768
REMARK  3 active torsions:
REMARK  status: ('A' for Active; 'I' for Inactive)
REMARK    1  A    between atoms: C_6  and  O_9 
REMARK    2  A    between atoms: C_13  and  C_14 
REMARK    3  A    between atoms: C_17  and  O_18 
ROOT
HETATM    1  O   UNK N   1      31.183  53.260  42.843  0.00  0.00    -0.340 OA
HETATM    2  C   UNK N   1      32.169  52.564  43.476  0.00  0.00     0.084 A 
HETATM    3  C   UNK N   1      32.872  53.162  44.543  0.00  0.00    -0.024 A 
HETATM    4  C   UNK N   1      33.841  52.430  45.234  0.00  0.00     0.013 A 
HETATM    5  C   UNK N   1      34.140  51.124  44.852  0.00  0.00     0.038 A 
HETATM    6  C   UNK N   1      33.471  50.520  43.765  0.00  0.00     0.076 A 
HETATM    7  C   UNK N   1      32.476  51.251  43.072  0.00  0.00     0.005 A 
HETATM    8  C   UNK N   1      31.727  50.638  41.915  0.00  0.00     0.054 C 
HETATM    9  C   UNK N   1      32.569  54.583  44.956  0.00  0.00     0.044 C 
HETATM   10  C   UNK N   1      31.757  55.320  43.878  0.00  0.00     0.042 C 
HETATM   11  C   UNK N   1      30.628  54.409  43.389  0.00  0.00     0.162 C 
ENDROOT
BRANCH  11  12
HETATM   12  C   UNK N   1      29.747  55.092  42.369  0.00  0.00    -0.029 A 
HETATM   13  C   UNK N   1      28.801  54.345  41.646  0.00  0.00     0.012 A 
HETATM   14  C   UNK N   1      27.980  54.969  40.703  0.00  0.00     0.037 A 
HETATM   15  C   UNK N   1      28.094  56.342  40.469  0.00  0.00     0.065 A 
HETATM   16  C   UNK N   1      29.038  57.094  41.184  0.00  0.00     0.037 A 
HETATM   17  C   UNK N   1      29.861  56.473  42.129  0.00  0.00     0.012 A 
BRANCH  15  18
HETATM   18  O   UNK N   1      27.294  56.931  39.556  0.00  0.00    -0.361 OA
HETATM   19  H   UNK N   1      27.552  57.745  39.103  0.00  0.00     0.217 HD
ENDBRANCH  15  18
ENDBRANCH  11  12
BRANCH   6  20
HETATM   20  O   UNK N   1      33.744  49.241  43.385  0.00  0.00    -0.355 OA
HETATM   21  C   UNK N   1      34.992  48.764  43.033  0.00  0.00     0.210 C 
ENDBRANCH   6  20
TORSDOF 3
ENDMDL
MODEL 8
REMARK VINA RESULT:      -5.9      8.576     12.297
REMARK  3 active torsions:
REMARK  status: ('A' for Active; 'I' for Inactive)
REMARK    1  A    between atoms: C_6  and  O_9 
REMARK    2  A    between atoms: C_13  and  C_14 
REMARK    3  A    between atoms: C_17  and  O_18 
ROOT
HETATM    1  O   UNK N   1      32.456  51.975  42.709  0.00  0.00    -0.340 OA
HETATM    2  C   UNK N   1      31.523  52.964  42.799  0.00  0.00     0.084 A 
HETATM    3  C   UNK N   1      31.488  53.790  43.942  0.00  0.00    -0.024 A 
HETATM    4  C   UNK N   1      30.572  54.842  44.011  0.00  0.00     0.013 A 
HETATM    5  C   UNK N   1      29.671  55.059  42.971  0.00  0.00     0.038 A 
HETATM    6  C   UNK N   1      29.668  54.223  41.834  0.00  0.00     0.076 A 
HETATM    7  C   UNK N   1      30.604  53.165  41.751  0.00  0.00     0.005 A 
HETATM    8  C   UNK N   1      30.645  52.258  40.547  0.00  0.00     0.054 C 
HETATM    9  C   UNK N   1      32.448  53.553  45.084  0.00  0.00     0.044 C 
HETATM   10  C   UNK N   1      33.111  52.170  44.984  0.00  0.00     0.042 C 
HETATM   11  C   UNK N   1      33.566  51.934  43.541  0.00  0.00     0.162 C 
ENDROOT
BRANCH  11  12
HETATM   12  C   UNK N   1      34.284  50.615  43.380  0.00  0.00    -0.029 A 
HETATM   13  C   UNK N   1      35.674  50.593  43.172  0.00  0.00     0.012 A 
HETATM   14  C   UNK N   1      36.346  49.376  43.025  0.00  0.00     0.037 A 
HETATM   15  C   UNK N   1      35.642  48.171  43.081  0.00  0.00     0.065 A 
HETATM   16  C   UNK N   1      34.254  48.185  43.284  0.00  0.00     0.037 A 
HETATM   17  C   UNK N   1      33.578  49.400  43.432  0.00  0.00     0.012 A 
BRANCH  15  18
HETATM   18  O   UNK N   1      36.305  47.005  42.938  0.00  0.00    -0.361 OA
HETATM   19  H   UNK N   1      36.635  46.509  43.700  0.00  0.00     0.217 HD
ENDBRANCH  15  18
ENDBRANCH  11  12
BRANCH   6  20
HETATM   20  O   UNK N   1      28.801  54.427  40.805  0.00  0.00    -0.355 OA
HETATM   21  C   UNK N   1      27.912  55.481  40.709  0.00  0.00     0.210 C 
ENDBRANCH   6  20
TORSDOF 3
ENDMDL
MODEL 9
REMARK VINA RESULT:      -5.5     10.159     15.705
REMARK  3 active torsions:
REMARK  status: ('A' for Active; 'I' for Inactive)
REMARK    1  A    between atoms: C_6  and  O_9 
REMARK    2  A    between atoms: C_13  and  C_14 
REMARK    3  A    between atoms: C_17  and  O_18 
ROOT
HETATM    1  O   UNK N   1      30.594  53.283  41.955  0.00  0.00    -0.340 OA
HETATM    2  C   UNK N   1      31.551  53.152  42.914  0.00  0.00     0.084 A 
HETATM    3  C   UNK N   1      31.812  54.225  43.794  0.00  0.00    -0.024 A 
HETATM    4  C   UNK N   1      32.750  54.073  44.817  0.00  0.00     0.013 A 
HETATM    5  C   UNK N   1      33.455  52.878  44.953  0.00  0.00     0.038 A 
HETATM    6  C   UNK N   1      33.232  51.806  44.063  0.00  0.00     0.076 A 
HETATM    7  C   UNK N   1      32.271  51.948  43.034  0.00  0.00     0.005 A 
HETATM    8  C   UNK N   1      31.993  50.821  42.071  0.00  0.00     0.054 C 
HETATM    9  C   UNK N   1      31.067  55.530  43.645  0.00  0.00     0.044 C 
HETATM   10  C   UNK N   1      30.364  55.625  42.281  0.00  0.00     0.042 C 
HETATM   11  C   UNK N   1      29.651  54.301  41.991  0.00  0.00     0.162 C 
ENDROOT
BRANCH  11  12
HETATM   12  C   UNK N   1      28.884  54.341  40.690  0.00  0.00    -0.029 A 
HETATM   13  C   UNK N   1      27.908  55.330  40.481  0.00  0.00     0.012 A 
HETATM   14  C   UNK N   1      27.196  55.376  39.279  0.00  0.00     0.037 A 
HETATM   15  C   UNK N   1      27.448  54.438  38.275  0.00  0.00     0.065 A 
HETATM   16  C   UNK N   1      28.418  53.446  38.477  0.00  0.00     0.037 A 
HETATM   17  C   UNK N   1      29.133  53.397  39.678  0.00  0.00     0.012 A 
BRANCH  15  18
HETATM   18  O   UNK N   1      26.753  54.496  37.119  0.00  0.00    -0.361 OA
HETATM   19  H   UNK N   1      26.871  55.221  36.490  0.00  0.00     0.217 HD
ENDBRANCH  15  18
ENDBRANCH  11  12
BRANCH   6  20
HETATM   20  O   UNK N   1      33.905  50.629  44.188  0.00  0.00    -0.355 OA
HETATM   21  C   UNK N   1      35.098  50.323  43.562  0.00  0.00     0.210 C 
ENDBRANCH   6  20
TORSDOF 3
ENDMDL
