MODEL 1
REMARK VINA RESULT:      -6.2      0.000      0.000
REMARK  7 active torsions:
REMARK  status: ('A' for Active; 'I' for Inactive)
REMARK    1  A    between atoms: C_2  and  C_3 
REMARK    2  A    between atoms: C_5  and  O_6 
REMARK    3  A    between atoms: C_8  and  O_9 
REMARK    4  A    between atoms: C_11  and  O_13 
REMARK    5  A    between atoms: C_18  and  C_19 
REMARK    6  A    between atoms: C_21  and  O_22 
REMARK    7  A    between atoms: C_24  and  O_25 
ROOT
HETATM    1  O   UNK N   1      41.761  46.497  45.589  0.00  0.00    -0.380 OA
HETATM    2  C   UNK N   1      41.197  47.462  46.464  0.00  0.00     0.161 C 
HETATM    3  C   UNK N   1      40.624  46.710  47.676  0.00  0.00     0.052 C 
HETATM    4  C   UNK N   1      39.299  45.963  47.479  0.00  0.00     0.176 C 
HETATM    5  O   UNK N   1      39.363  44.790  48.272  0.00  0.00    -0.380 OA
HETATM    6  C   UNK N   1      40.742  44.524  48.511  0.00  0.00     0.161 C 
HETATM    7  C   UNK N   1      41.562  45.585  47.774  0.00  0.00     0.052 C 
HETATM    8  C   UNK N   1      41.799  45.273  46.292  0.00  0.00     0.176 C 
ENDROOT
BRANCH   2   9
HETATM    9  C   UNK N   1      40.181  48.355  45.775  0.00  0.00    -0.024 A 
HETATM   10  C   UNK N   1      39.382  49.215  46.536  0.00  0.00     0.049 A 
HETATM   11  C   UNK N   1      38.434  50.046  45.924  0.00  0.00     0.105 A 
HETATM   12  C   UNK N   1      38.256  50.006  44.515  0.00  0.00     0.135 A 
HETATM   13  C   UNK N   1      39.084  49.171  43.745  0.00  0.00     0.105 A 
HETATM   14  C   UNK N   1      40.038  48.349  44.377  0.00  0.00     0.049 A 
BRANCH  11  15
HETATM   15  O   UNK N   1      37.727  50.897  46.697  0.00  0.00    -0.353 OA
HETATM   16  C   UNK N   1      38.174  51.227  47.961  0.00  0.00     0.210 C 
ENDBRANCH  11  15
BRANCH  12  17
HETATM   17  O   UNK N   1      37.314  50.738  43.856  0.00  0.00    -0.351 OA
HETATM   18  C   UNK N   1      36.022  50.347  43.555  0.00  0.00     0.210 C 
ENDBRANCH  12  17
BRANCH  13  19
HETATM   19  O   UNK N   1      38.929  49.180  42.392  0.00  0.00    -0.353 OA
HETATM   20  C   UNK N   1      39.102  50.278  41.575  0.00  0.00     0.210 C 
ENDBRANCH  13  19
ENDBRANCH   2   9
BRANCH   6  21
HETATM   21  C   UNK N   1      41.035  44.517  49.997  0.00  0.00    -0.026 A 
HETATM   22  C   UNK N   1      40.516  43.526  50.849  0.00  0.00     0.049 A 
HETATM   23  C   UNK N   1      40.826  43.531  52.228  0.00  0.00     0.101 A 
HETATM   24  C   UNK N   1      41.656  44.546  52.744  0.00  0.00     0.099 A 
HETATM   25  C   UNK N   1      42.166  45.531  51.894  0.00  0.00     0.040 A 
HETATM   26  C   UNK N   1      41.861  45.517  50.534  0.00  0.00     0.012 A 
BRANCH  23  27
HETATM   27  O   UNK N   1      40.347  42.578  53.073  0.00  0.00    -0.353 OA
HETATM   28  C   UNK N   1      39.038  42.476  53.495  0.00  0.00     0.210 C 
ENDBRANCH  23  27
BRANCH  24  29
HETATM   29  O   UNK N   1      41.978  44.587  54.055  0.00  0.00    -0.358 OA
HETATM   30  H   UNK N   1      42.605  43.967  54.455  0.00  0.00     0.218 HD
ENDBRANCH  24  29
ENDBRANCH   6  21
TORSDOF 7
ENDMDL
MODEL 2
REMARK VINA RESULT:      -5.6     13.004     15.879
REMARK  7 active torsions:
REMARK  status: ('A' for Active; 'I' for Inactive)
REMARK    1  A    between atoms: C_2  and  C_3 
REMARK    2  A    between atoms: C_5  and  O_6 
REMARK    3  A    between atoms: C_8  and  O_9 
REMARK    4  A    between atoms: C_11  and  O_13 
REMARK    5  A    between atoms: C_18  and  C_19 
REMARK    6  A    between atoms: C_21  and  O_22 
REMARK    7  A    between atoms: C_24  and  O_25 
ROOT
HETATM    1  O   UNK N   1      31.785  42.707  57.771  0.00  0.00    -0.380 OA
HETATM    2  C   UNK N   1      30.895  43.196  56.779  0.00  0.00     0.161 C 
HETATM    3  C   UNK N   1      30.053  44.311  57.421  0.00  0.00     0.052 C 
HETATM    4  C   UNK N   1      28.926  43.885  58.368  0.00  0.00     0.176 C 
HETATM    5  O   UNK N   1      28.854  44.862  59.393  0.00  0.00    -0.380 OA
HETATM    6  C   UNK N   1      30.113  45.527  59.423  0.00  0.00     0.161 C 
HETATM    7  C   UNK N   1      31.017  44.873  58.374  0.00  0.00     0.052 C 
HETATM    8  C   UNK N   1      31.720  43.602  58.863  0.00  0.00     0.176 C 
ENDROOT
BRANCH   2   9
HETATM    9  C   UNK N   1      30.058  42.097  56.150  0.00  0.00    -0.024 A 
HETATM   10  C   UNK N   1      29.615  42.230  54.830  0.00  0.00     0.049 A 
HETATM   11  C   UNK N   1      28.838  41.233  54.227  0.00  0.00     0.105 A 
HETATM   12  C   UNK N   1      28.470  40.075  54.964  0.00  0.00     0.135 A 
HETATM   13  C   UNK N   1      28.945  39.921  56.278  0.00  0.00     0.105 A 
HETATM   14  C   UNK N   1      29.734  40.931  56.864  0.00  0.00     0.049 A 
BRANCH  11  15
HETATM   15  O   UNK N   1      28.482  41.383  52.935  0.00  0.00    -0.353 OA
HETATM   16  C   UNK N   1      29.181  42.247  52.114  0.00  0.00     0.210 C 
ENDBRANCH  11  15
BRANCH  12  17
HETATM   17  O   UNK N   1      27.667  39.092  54.468  0.00  0.00    -0.351 OA
HETATM   18  C   UNK N   1      28.050  38.040  53.657  0.00  0.00     0.210 C 
ENDBRANCH  12  17
BRANCH  13  19
HETATM   19  O   UNK N   1      28.619  38.784  56.953  0.00  0.00    -0.353 OA
HETATM   20  C   UNK N   1      29.490  37.758  57.259  0.00  0.00     0.210 C 
ENDBRANCH  13  19
ENDBRANCH   2   9
BRANCH   6  21
HETATM   21  C   UNK N   1      29.941  47.011  59.172  0.00  0.00    -0.026 A 
HETATM   22  C   UNK N   1      30.099  47.568  57.891  0.00  0.00     0.049 A 
HETATM   23  C   UNK N   1      29.909  48.953  57.682  0.00  0.00     0.101 A 
HETATM   24  C   UNK N   1      29.566  49.774  58.775  0.00  0.00     0.099 A 
HETATM   25  C   UNK N   1      29.415  49.215  60.047  0.00  0.00     0.040 A 
HETATM   26  C   UNK N   1      29.598  47.848  60.245  0.00  0.00     0.012 A 
BRANCH  23  27
HETATM   27  O   UNK N   1      30.044  49.517  56.451  0.00  0.00    -0.353 OA
HETATM   28  C   UNK N   1      31.204  50.073  55.955  0.00  0.00     0.210 C 
ENDBRANCH  23  27
BRANCH  24  29
HETATM   29  O   UNK N   1      29.373  51.102  58.619  0.00  0.00    -0.358 OA
HETATM   30  H   UNK N   1      29.514  51.734  59.338  0.00  0.00     0.218 HD
ENDBRANCH  24  29
ENDBRANCH   6  21
TORSDOF 7
ENDMDL
MODEL 3
REMARK VINA RESULT:      -5.5     12.976     15.990
REMARK  7 active torsions:
REMARK  status: ('A' for Active; 'I' for Inactive)
REMARK    1  A    between atoms: C_2  and  C_3 
REMARK    2  A    between atoms: C_5  and  O_6 
REMARK    3  A    between atoms: C_8  and  O_9 
REMARK    4  A    between atoms: C_11  and  O_13 
REMARK    5  A    between atoms: C_18  and  C_19 
REMARK    6  A    between atoms: C_21  and  O_22 
REMARK    7  A    between atoms: C_24  and  O_25 
ROOT
HETATM    1  O   UNK N   1      31.590  42.911  58.525  0.00  0.00    -0.380 OA
HETATM    2  C   UNK N   1      30.913  43.327  57.348  0.00  0.00     0.161 C 
HETATM    3  C   UNK N   1      30.004  44.506  57.727  0.00  0.00     0.052 C 
HETATM    4  C   UNK N   1      28.709  44.183  58.481  0.00  0.00     0.176 C 
HETATM    5  O   UNK N   1      28.481  45.246  59.390  0.00  0.00    -0.380 OA
HETATM    6  C   UNK N   1      29.735  45.891  59.599  0.00  0.00     0.161 C 
HETATM    7  C   UNK N   1      30.794  45.133  58.794  0.00  0.00     0.052 C 
HETATM    8  C   UNK N   1      31.354  43.898  59.508  0.00  0.00     0.176 C 
ENDROOT
BRANCH   2   9
HETATM    9  C   UNK N   1      30.171  42.191  56.666  0.00  0.00    -0.024 A 
HETATM   10  C   UNK N   1      29.768  41.078  57.412  0.00  0.00     0.049 A 
HETATM   11  C   UNK N   1      29.086  40.015  56.807  0.00  0.00     0.105 A 
HETATM   12  C   UNK N   1      28.815  40.045  55.412  0.00  0.00     0.135 A 
HETATM   13  C   UNK N   1      29.186  41.179  54.668  0.00  0.00     0.105 A 
HETATM   14  C   UNK N   1      29.863  42.243  55.296  0.00  0.00     0.049 A 
BRANCH  11  15
HETATM   15  O   UNK N   1      28.669  38.991  57.580  0.00  0.00    -0.353 OA
HETATM   16  C   UNK N   1      29.585  38.120  58.139  0.00  0.00     0.210 C 
ENDBRANCH  11  15
BRANCH  12  17
HETATM   17  O   UNK N   1      28.212  39.023  54.742  0.00  0.00    -0.351 OA
HETATM   18  C   UNK N   1      28.794  37.831  54.351  0.00  0.00     0.210 C 
ENDBRANCH  12  17
BRANCH  13  19
HETATM   19  O   UNK N   1      28.878  41.209  53.341  0.00  0.00    -0.353 OA
HETATM   20  C   UNK N   1      29.222  42.216  52.463  0.00  0.00     0.210 C 
ENDBRANCH  13  19
ENDBRANCH   2   9
BRANCH   6  21
HETATM   21  C   UNK N   1      29.659  47.350  59.199  0.00  0.00    -0.026 A 
HETATM   22  C   UNK N   1      29.898  47.768  57.878  0.00  0.00     0.049 A 
HETATM   23  C   UNK N   1      29.798  49.134  57.529  0.00  0.00     0.101 A 
HETATM   24  C   UNK N   1      29.462  50.076  58.522  0.00  0.00     0.099 A 
HETATM   25  C   UNK N   1      29.230  49.655  59.834  0.00  0.00     0.040 A 
HETATM   26  C   UNK N   1      29.325  48.307  60.171  0.00  0.00     0.012 A 
BRANCH  23  27
HETATM   27  O   UNK N   1      30.013  49.566  56.257  0.00  0.00    -0.353 OA
HETATM   28  C   UNK N   1      31.218  50.023  55.765  0.00  0.00     0.210 C 
ENDBRANCH  23  27
BRANCH  24  29
HETATM   29  O   UNK N   1      29.354  51.391  58.231  0.00  0.00    -0.358 OA
HETATM   30  H   UNK N   1      29.696  51.770  57.409  0.00  0.00     0.218 HD
ENDBRANCH  24  29
ENDBRANCH   6  21
TORSDOF 7
ENDMDL
MODEL 4
REMARK VINA RESULT:      -5.3     13.373     16.428
REMARK  7 active torsions:
REMARK  status: ('A' for Active; 'I' for Inactive)
REMARK    1  A    between atoms: C_2  and  C_3 
REMARK    2  A    between atoms: C_5  and  O_6 
REMARK    3  A    between atoms: C_8  and  O_9 
REMARK    4  A    between atoms: C_11  and  O_13 
REMARK    5  A    between atoms: C_18  and  C_19 
REMARK    6  A    between atoms: C_21  and  O_22 
REMARK    7  A    between atoms: C_24  and  O_25 
ROOT
HETATM    1  O   UNK N   1      31.237  43.683  59.281  0.00  0.00    -0.380 OA
HETATM    2  C   UNK N   1      30.914  43.571  57.903  0.00  0.00     0.161 C 
HETATM    3  C   UNK N   1      29.994  44.748  57.545  0.00  0.00     0.052 C 
HETATM    4  C   UNK N   1      28.532  44.664  58.000  0.00  0.00     0.176 C 
HETATM    5  O   UNK N   1      28.124  45.980  58.333  0.00  0.00    -0.380 OA
HETATM    6  C   UNK N   1      29.308  46.729  58.594  0.00  0.00     0.161 C 
HETATM    7  C   UNK N   1      30.504  45.785  58.451  0.00  0.00     0.052 C 
HETATM    8  C   UNK N   1      30.798  44.956  59.707  0.00  0.00     0.176 C 
ENDROOT
BRANCH   2   9
HETATM    9  C   UNK N   1      30.325  42.217  57.548  0.00  0.00    -0.024 A 
HETATM   10  C   UNK N   1      30.086  41.277  58.556  0.00  0.00     0.049 A 
HETATM   11  C   UNK N   1      29.547  40.020  58.254  0.00  0.00     0.105 A 
HETATM   12  C   UNK N   1      29.256  39.675  56.907  0.00  0.00     0.135 A 
HETATM   13  C   UNK N   1      29.459  40.632  55.897  0.00  0.00     0.105 A 
HETATM   14  C   UNK N   1      29.994  41.895  56.221  0.00  0.00     0.049 A 
BRANCH  11  15
HETATM   15  O   UNK N   1      29.283  39.169  59.268  0.00  0.00    -0.353 OA
HETATM   16  C   UNK N   1      30.307  38.695  60.065  0.00  0.00     0.210 C 
ENDBRANCH  11  15
BRANCH  12  17
HETATM   17  O   UNK N   1      28.788  38.452  56.529  0.00  0.00    -0.351 OA
HETATM   18  C   UNK N   1      29.539  37.315  56.293  0.00  0.00     0.210 C 
ENDBRANCH  12  17
BRANCH  13  19
HETATM   19  O   UNK N   1      29.133  40.298  54.617  0.00  0.00    -0.353 OA
HETATM   20  C   UNK N   1      28.804  41.191  53.618  0.00  0.00     0.210 C 
ENDBRANCH  13  19
ENDBRANCH   2   9
BRANCH   6  21
HETATM   21  C   UNK N   1      29.409  47.913  57.655  0.00  0.00    -0.026 A 
HETATM   22  C   UNK N   1      28.296  48.722  57.361  0.00  0.00     0.049 A 
HETATM   23  C   UNK N   1      28.426  49.834  56.500  0.00  0.00     0.101 A 
HETATM   24  C   UNK N   1      29.682  50.122  55.930  0.00  0.00     0.099 A 
HETATM   25  C   UNK N   1      30.783  49.313  56.221  0.00  0.00     0.040 A 
HETATM   26  C   UNK N   1      30.651  48.220  57.076  0.00  0.00     0.012 A 
BRANCH  23  27
HETATM   27  O   UNK N   1      27.369  50.641  56.207  0.00  0.00    -0.353 OA
HETATM   28  C   UNK N   1      26.142  50.602  56.835  0.00  0.00     0.210 C 
ENDBRANCH  23  27
BRANCH  24  29
HETATM   29  O   UNK N   1      29.850  51.177  55.103  0.00  0.00    -0.358 OA
HETATM   30  H   UNK N   1      29.826  51.090  54.140  0.00  0.00     0.218 HD
ENDBRANCH  24  29
ENDBRANCH   6  21
TORSDOF 7
ENDMDL
MODEL 5
REMARK VINA RESULT:      -5.3      1.910      8.836
REMARK  7 active torsions:
REMARK  status: ('A' for Active; 'I' for Inactive)
REMARK    1  A    between atoms: C_2  and  C_3 
REMARK    2  A    between atoms: C_5  and  O_6 
REMARK    3  A    between atoms: C_8  and  O_9 
REMARK    4  A    between atoms: C_11  and  O_13 
REMARK    5  A    between atoms: C_18  and  C_19 
REMARK    6  A    between atoms: C_21  and  O_22 
REMARK    7  A    between atoms: C_24  and  O_25 
ROOT
HETATM    1  O   UNK N   1      43.126  47.784  46.982  0.00  0.00    -0.380 OA
HETATM    2  C   UNK N   1      42.210  46.770  46.597  0.00  0.00     0.161 C 
HETATM    3  C   UNK N   1      40.923  47.463  46.124  0.00  0.00     0.052 C 
HETATM    4  C   UNK N   1      39.994  48.035  47.202  0.00  0.00     0.176 C 
HETATM    5  O   UNK N   1      39.424  49.219  46.673  0.00  0.00    -0.380 OA
HETATM    6  C   UNK N   1      40.279  49.660  45.622  0.00  0.00     0.161 C 
HETATM    7  C   UNK N   1      41.467  48.698  45.547  0.00  0.00     0.052 C 
HETATM    8  C   UNK N   1      42.590  49.015  46.541  0.00  0.00     0.176 C 
ENDROOT
BRANCH   2   9
HETATM    9  C   UNK N   1      41.975  45.747  47.693  0.00  0.00    -0.024 A 
HETATM   10  C   UNK N   1      41.962  44.383  47.380  0.00  0.00     0.049 A 
HETATM   11  C   UNK N   1      41.743  43.419  48.372  0.00  0.00     0.105 A 
HETATM   12  C   UNK N   1      41.507  43.821  49.715  0.00  0.00     0.135 A 
HETATM   13  C   UNK N   1      41.557  45.187  50.038  0.00  0.00     0.105 A 
HETATM   14  C   UNK N   1      41.788  46.142  49.028  0.00  0.00     0.049 A 
BRANCH  11  15
HETATM   15  O   UNK N   1      41.795  42.115  48.029  0.00  0.00    -0.353 OA
HETATM   16  C   UNK N   1      42.448  41.722  46.877  0.00  0.00     0.210 C 
ENDBRANCH  11  15
BRANCH  12  17
HETATM   17  O   UNK N   1      41.226  42.946  50.722  0.00  0.00    -0.351 OA
HETATM   18  C   UNK N   1      40.116  42.961  51.547  0.00  0.00     0.210 C 
ENDBRANCH  12  17
BRANCH  13  19
HETATM   19  O   UNK N   1      41.372  45.549  51.339  0.00  0.00    -0.353 OA
HETATM   20  C   UNK N   1      42.357  45.590  52.305  0.00  0.00     0.210 C 
ENDBRANCH  13  19
ENDBRANCH   2   9
BRANCH   6  21
HETATM   21  C   UNK N   1      39.524  49.727  44.310  0.00  0.00    -0.026 A 
HETATM   22  C   UNK N   1      38.457  48.857  44.026  0.00  0.00     0.049 A 
HETATM   23  C   UNK N   1      37.756  48.958  42.803  0.00  0.00     0.101 A 
HETATM   24  C   UNK N   1      38.143  49.937  41.865  0.00  0.00     0.099 A 
HETATM   25  C   UNK N   1      39.207  50.795  42.151  0.00  0.00     0.040 A 
HETATM   26  C   UNK N   1      39.891  50.694  43.361  0.00  0.00     0.012 A 
BRANCH  23  27
HETATM   27  O   UNK N   1      36.712  48.138  42.505  0.00  0.00    -0.353 OA
HETATM   28  C   UNK N   1      35.469  48.185  43.101  0.00  0.00     0.210 C 
ENDBRANCH  23  27
BRANCH  24  29
HETATM   29  O   UNK N   1      37.498  50.068  40.685  0.00  0.00    -0.358 OA
HETATM   30  H   UNK N   1      37.080  49.320  40.236  0.00  0.00     0.218 HD
ENDBRANCH  24  29
ENDBRANCH   6  21
TORSDOF 7
ENDMDL
MODEL 6
REMARK VINA RESULT:      -5.2     12.770     15.714
REMARK  7 active torsions:
REMARK  status: ('A' for Active; 'I' for Inactive)
REMARK    1  A    between atoms: C_2  and  C_3 
REMARK    2  A    between atoms: C_5  and  O_6 
REMARK    3  A    between atoms: C_8  and  O_9 
REMARK    4  A    between atoms: C_11  and  O_13 
REMARK    5  A    between atoms: C_18  and  C_19 
REMARK    6  A    between atoms: C_21  and  O_22 
REMARK    7  A    between atoms: C_24  and  O_25 
ROOT
HETATM    1  O   UNK N   1      31.604  41.912  54.802  0.00  0.00    -0.380 OA
HETATM    2  C   UNK N   1      30.208  42.082  54.998  0.00  0.00     0.161 C 
HETATM    3  C   UNK N   1      30.007  42.685  56.397  0.00  0.00     0.052 C 
HETATM    4  C   UNK N   1      30.164  41.745  57.598  0.00  0.00     0.176 C 
HETATM    5  O   UNK N   1      30.743  42.504  58.646  0.00  0.00    -0.380 OA
HETATM    6  C   UNK N   1      31.387  43.623  58.042  0.00  0.00     0.161 C 
HETATM    7  C   UNK N   1      31.220  43.501  56.526  0.00  0.00     0.052 C 
HETATM    8  C   UNK N   1      32.256  42.593  55.855  0.00  0.00     0.176 C 
ENDROOT
BRANCH   2   9
HETATM    9  C   UNK N   1      29.425  40.801  54.776  0.00  0.00    -0.024 A 
HETATM   10  C   UNK N   1      28.154  40.855  54.194  0.00  0.00     0.049 A 
HETATM   11  C   UNK N   1      27.409  39.688  53.983  0.00  0.00     0.105 A 
HETATM   12  C   UNK N   1      27.931  38.428  54.382  0.00  0.00     0.135 A 
HETATM   13  C   UNK N   1      29.223  38.367  54.932  0.00  0.00     0.105 A 
HETATM   14  C   UNK N   1      29.962  39.551  55.129  0.00  0.00     0.049 A 
BRANCH  11  15
HETATM   15  O   UNK N   1      26.213  39.788  53.367  0.00  0.00    -0.353 OA
HETATM   16  C   UNK N   1      25.836  40.970  52.760  0.00  0.00     0.210 C 
ENDBRANCH  11  15
BRANCH  12  17
HETATM   17  O   UNK N   1      27.242  37.258  54.265  0.00  0.00    -0.351 OA
HETATM   18  C   UNK N   1      27.166  36.449  53.147  0.00  0.00     0.210 C 
ENDBRANCH  12  17
BRANCH  13  19
HETATM   19  O   UNK N   1      29.724  37.145  55.268  0.00  0.00    -0.353 OA
HETATM   20  C   UNK N   1      30.786  36.519  54.646  0.00  0.00     0.210 C 
ENDBRANCH  13  19
ENDBRANCH   2   9
BRANCH   6  21
HETATM   21  C   UNK N   1      30.811  44.920  58.571  0.00  0.00    -0.026 A 
HETATM   22  C   UNK N   1      30.510  45.997  57.719  0.00  0.00     0.049 A 
HETATM   23  C   UNK N   1      29.952  47.188  58.238  0.00  0.00     0.101 A 
HETATM   24  C   UNK N   1      29.707  47.288  59.622  0.00  0.00     0.099 A 
HETATM   25  C   UNK N   1      30.012  46.216  60.465  0.00  0.00     0.040 A 
HETATM   26  C   UNK N   1      30.557  45.043  59.947  0.00  0.00     0.012 A 
BRANCH  23  27
HETATM   27  O   UNK N   1      29.640  48.242  57.436  0.00  0.00    -0.353 OA
HETATM   28  C   UNK N   1      30.550  48.996  56.724  0.00  0.00     0.210 C 
ENDBRANCH  23  27
BRANCH  24  29
HETATM   29  O   UNK N   1      29.173  48.407  60.159  0.00  0.00    -0.358 OA
HETATM   30  H   UNK N   1      29.156  49.252  59.687  0.00  0.00     0.218 HD
ENDBRANCH  24  29
ENDBRANCH   6  21
TORSDOF 7
ENDMDL
MODEL 7
REMARK VINA RESULT:      -5.2     12.827     15.993
REMARK  7 active torsions:
REMARK  status: ('A' for Active; 'I' for Inactive)
REMARK    1  A    between atoms: C_2  and  C_3 
REMARK    2  A    between atoms: C_5  and  O_6 
REMARK    3  A    between atoms: C_8  and  O_9 
REMARK    4  A    between atoms: C_11  and  O_13 
REMARK    5  A    between atoms: C_18  and  C_19 
REMARK    6  A    between atoms: C_21  and  O_22 
REMARK    7  A    between atoms: C_24  and  O_25 
ROOT
HETATM    1  O   UNK N   1      31.461  41.938  54.858  0.00  0.00    -0.380 OA
HETATM    2  C   UNK N   1      30.072  42.097  55.105  0.00  0.00     0.161 C 
HETATM    3  C   UNK N   1      29.919  42.761  56.482  0.00  0.00     0.052 C 
HETATM    4  C   UNK N   1      30.141  41.880  57.717  0.00  0.00     0.176 C 
HETATM    5  O   UNK N   1      30.751  42.695  58.703  0.00  0.00    -0.380 OA
HETATM    6  C   UNK N   1      31.351  43.794  58.023  0.00  0.00     0.161 C 
HETATM    7  C   UNK N   1      31.122  43.600  56.522  0.00  0.00     0.052 C 
HETATM    8  C   UNK N   1      32.145  42.677  55.850  0.00  0.00     0.176 C 
ENDROOT
BRANCH   2   9
HETATM    9  C   UNK N   1      29.301  40.796  54.975  0.00  0.00    -0.024 A 
HETATM   10  C   UNK N   1      29.954  39.577  55.187  0.00  0.00     0.049 A 
HETATM   11  C   UNK N   1      29.267  38.362  55.070  0.00  0.00     0.105 A 
HETATM   12  C   UNK N   1      27.893  38.354  54.707  0.00  0.00     0.135 A 
HETATM   13  C   UNK N   1      27.226  39.578  54.530  0.00  0.00     0.105 A 
HETATM   14  C   UNK N   1      27.931  40.791  54.662  0.00  0.00     0.049 A 
BRANCH  11  15
HETATM   15  O   UNK N   1      29.928  37.217  55.339  0.00  0.00    -0.353 OA
HETATM   16  C   UNK N   1      30.863  36.724  54.449  0.00  0.00     0.210 C 
ENDBRANCH  11  15
BRANCH  12  17
HETATM   17  O   UNK N   1      27.175  37.212  54.514  0.00  0.00    -0.351 OA
HETATM   18  C   UNK N   1      26.601  36.419  55.490  0.00  0.00     0.210 C 
ENDBRANCH  12  17
BRANCH  13  19
HETATM   19  O   UNK N   1      25.898  39.551  54.227  0.00  0.00    -0.353 OA
HETATM   20  C   UNK N   1      24.891  40.095  54.998  0.00  0.00     0.210 C 
ENDBRANCH  13  19
ENDBRANCH   2   9
BRANCH   6  21
HETATM   21  C   UNK N   1      30.776  45.106  58.516  0.00  0.00    -0.026 A 
HETATM   22  C   UNK N   1      30.487  46.164  57.636  0.00  0.00     0.049 A 
HETATM   23  C   UNK N   1      29.930  47.369  58.121  0.00  0.00     0.101 A 
HETATM   24  C   UNK N   1      29.673  47.503  59.501  0.00  0.00     0.099 A 
HETATM   25  C   UNK N   1      29.966  46.450  60.371  0.00  0.00     0.040 A 
HETATM   26  C   UNK N   1      30.510  45.262  59.886  0.00  0.00     0.012 A 
BRANCH  23  27
HETATM   27  O   UNK N   1      29.630  48.405  57.292  0.00  0.00    -0.353 OA
HETATM   28  C   UNK N   1      30.542  49.304  56.782  0.00  0.00     0.210 C 
ENDBRANCH  23  27
BRANCH  24  29
HETATM   29  O   UNK N   1      29.139  48.636  60.006  0.00  0.00    -0.358 OA
HETATM   30  H   UNK N   1      28.388  48.629  60.616  0.00  0.00     0.218 HD
ENDBRANCH  24  29
ENDBRANCH   6  21
TORSDOF 7
ENDMDL
MODEL 8
REMARK VINA RESULT:      -5.0     13.802     15.905
REMARK  7 active torsions:
REMARK  status: ('A' for Active; 'I' for Inactive)
REMARK    1  A    between atoms: C_2  and  C_3 
REMARK    2  A    between atoms: C_5  and  O_6 
REMARK    3  A    between atoms: C_8  and  O_9 
REMARK    4  A    between atoms: C_11  and  O_13 
REMARK    5  A    between atoms: C_18  and  C_19 
REMARK    6  A    between atoms: C_21  and  O_22 
REMARK    7  A    between atoms: C_24  and  O_25 
ROOT
HETATM    1  O   UNK N   1      27.408  41.703  56.678  0.00  0.00    -0.380 OA
HETATM    2  C   UNK N   1      28.333  40.636  56.823  0.00  0.00     0.161 C 
HETATM    3  C   UNK N   1      29.728  41.254  57.011  0.00  0.00     0.052 C 
HETATM    4  C   UNK N   1      30.420  41.821  55.766  0.00  0.00     0.176 C 
HETATM    5  O   UNK N   1      31.155  42.959  56.182  0.00  0.00    -0.380 OA
HETATM    6  C   UNK N   1      30.579  43.400  57.408  0.00  0.00     0.161 C 
HETATM    7  C   UNK N   1      29.390  42.491  57.725  0.00  0.00     0.052 C 
HETATM    8  C   UNK N   1      28.092  42.892  57.016  0.00  0.00     0.176 C 
ENDROOT
BRANCH   2   9
HETATM    9  C   UNK N   1      28.265  39.642  55.678  0.00  0.00    -0.024 A 
HETATM   10  C   UNK N   1      27.466  39.919  54.563  0.00  0.00     0.049 A 
HETATM   11  C   UNK N   1      27.382  39.017  53.495  0.00  0.00     0.105 A 
HETATM   12  C   UNK N   1      28.096  37.789  53.543  0.00  0.00     0.135 A 
HETATM   13  C   UNK N   1      28.929  37.525  54.644  0.00  0.00     0.105 A 
HETATM   14  C   UNK N   1      29.008  38.449  55.705  0.00  0.00     0.049 A 
BRANCH  11  15
HETATM   15  O   UNK N   1      26.642  39.356  52.419  0.00  0.00    -0.353 OA
HETATM   16  C   UNK N   1      26.525  40.679  52.041  0.00  0.00     0.210 C 
ENDBRANCH  11  15
BRANCH  12  17
HETATM   17  O   UNK N   1      28.017  36.836  52.573  0.00  0.00    -0.351 OA
HETATM   18  C   UNK N   1      27.071  35.831  52.473  0.00  0.00     0.210 C 
ENDBRANCH  12  17
BRANCH  13  19
HETATM   19  O   UNK N   1      29.640  36.363  54.651  0.00  0.00    -0.353 OA
HETATM   20  C   UNK N   1      30.713  36.088  55.475  0.00  0.00     0.210 C 
ENDBRANCH  13  19
ENDBRANCH   2   9
BRANCH   6  21
HETATM   21  C   UNK N   1      31.610  43.387  58.519  0.00  0.00    -0.026 A 
HETATM   22  C   UNK N   1      31.281  43.742  59.838  0.00  0.00     0.049 A 
HETATM   23  C   UNK N   1      32.258  43.699  60.858  0.00  0.00     0.101 A 
HETATM   24  C   UNK N   1      33.572  43.302  60.537  0.00  0.00     0.099 A 
HETATM   25  C   UNK N   1      33.895  42.955  59.223  0.00  0.00     0.040 A 
HETATM   26  C   UNK N   1      32.926  42.994  58.223  0.00  0.00     0.012 A 
BRANCH  23  27
HETATM   27  O   UNK N   1      31.965  44.026  62.146  0.00  0.00    -0.353 OA
HETATM   28  C   UNK N   1      31.867  45.311  62.637  0.00  0.00     0.210 C 
ENDBRANCH  23  27
BRANCH  24  29
HETATM   29  O   UNK N   1      34.535  43.245  61.482  0.00  0.00    -0.358 OA
HETATM   30  H   UNK N   1      34.403  42.802  62.333  0.00  0.00     0.218 HD
ENDBRANCH  24  29
ENDBRANCH   6  21
TORSDOF 7
ENDMDL
MODEL 9
REMARK VINA RESULT:      -5.0     15.535     18.075
REMARK  7 active torsions:
REMARK  status: ('A' for Active; 'I' for Inactive)
REMARK    1  A    between atoms: C_2  and  C_3 
REMARK    2  A    between atoms: C_5  and  O_6 
REMARK    3  A    between atoms: C_8  and  O_9 
REMARK    4  A    between atoms: C_11  and  O_13 
REMARK    5  A    between atoms: C_18  and  C_19 
REMARK    6  A    between atoms: C_21  and  O_22 
REMARK    7  A    between atoms: C_24  and  O_25 
ROOT
HETATM    1  O   UNK N   1      47.561  53.868  60.347  0.00  0.00    -0.380 OA
HETATM    2  C   UNK N   1      46.288  53.241  60.301  0.00  0.00     0.161 C 
HETATM    3  C   UNK N   1      45.250  54.265  60.786  0.00  0.00     0.052 C 
HETATM    4  C   UNK N   1      45.177  54.534  62.293  0.00  0.00     0.176 C 
HETATM    5  O   UNK N   1      44.867  55.907  62.455  0.00  0.00    -0.380 OA
HETATM    6  C   UNK N   1      45.237  56.562  61.245  0.00  0.00     0.161 C 
HETATM    7  C   UNK N   1      45.851  55.517  60.312  0.00  0.00     0.052 C 
HETATM    8  C   UNK N   1      47.337  55.244  60.572  0.00  0.00     0.176 C 
ENDROOT
BRANCH   2   9
HETATM    9  C   UNK N   1      46.251  51.934  61.073  0.00  0.00    -0.024 A 
HETATM   10  C   UNK N   1      45.046  51.487  61.624  0.00  0.00     0.049 A 
HETATM   11  C   UNK N   1      44.985  50.287  62.344  0.00  0.00     0.105 A 
HETATM   12  C   UNK N   1      46.163  49.516  62.543  0.00  0.00     0.135 A 
HETATM   13  C   UNK N   1      47.367  49.945  61.959  0.00  0.00     0.105 A 
HETATM   14  C   UNK N   1      47.406  51.150  61.230  0.00  0.00     0.049 A 
BRANCH  11  15
HETATM   15  O   UNK N   1      43.788  49.871  62.808  0.00  0.00    -0.353 OA
HETATM   16  C   UNK N   1      42.649  50.611  62.560  0.00  0.00     0.210 C 
ENDBRANCH  11  15
BRANCH  12  17
HETATM   17  O   UNK N   1      46.195  48.372  63.283  0.00  0.00    -0.351 OA
HETATM   18  C   UNK N   1      46.313  48.277  64.658  0.00  0.00     0.210 C 
ENDBRANCH  12  17
BRANCH  13  19
HETATM   19  O   UNK N   1      48.475  49.170  62.123  0.00  0.00    -0.353 OA
HETATM   20  C   UNK N   1      49.560  49.484  62.916  0.00  0.00     0.210 C 
ENDBRANCH  13  19
ENDBRANCH   2   9
BRANCH   6  21
HETATM   21  C   UNK N   1      44.038  57.243  60.618  0.00  0.00    -0.026 A 
HETATM   22  C   UNK N   1      42.836  57.424  61.325  0.00  0.00     0.049 A 
HETATM   23  C   UNK N   1      41.741  58.084  60.722  0.00  0.00     0.101 A 
HETATM   24  C   UNK N   1      41.864  58.554  59.398  0.00  0.00     0.099 A 
HETATM   25  C   UNK N   1      43.059  58.367  58.699  0.00  0.00     0.040 A 
HETATM   26  C   UNK N   1      44.136  57.721  59.301  0.00  0.00     0.012 A 
BRANCH  23  27
HETATM   27  O   UNK N   1      40.570  58.283  61.386  0.00  0.00    -0.353 OA
HETATM   28  C   UNK N   1      40.458  58.572  62.729  0.00  0.00     0.210 C 
ENDBRANCH  23  27
BRANCH  24  29
HETATM   29  O   UNK N   1      40.842  59.191  58.785  0.00  0.00    -0.358 OA
HETATM   30  H   UNK N   1      40.119  58.716  58.353  0.00  0.00     0.218 HD
ENDBRANCH  24  29
ENDBRANCH   6  21
TORSDOF 7
ENDMDL
