MODEL 1
REMARK VINA RESULT:      -7.4      0.000      0.000
REMARK  3 active torsions:
REMARK  status: ('A' for Active; 'I' for Inactive)
REMARK    1  A    between atoms: O_1  and  C_2 
REMARK    2  A    between atoms: C_4  and  C_19 
REMARK    3  A    between atoms: C_9  and  O_10 
ROOT
HETATM    1  C   UNK N   1      39.946  47.019  46.223  0.00  0.00     0.073 A 
HETATM    2  C   UNK N   1      41.223  47.376  46.693  0.00  0.00    -0.018 A 
HETATM    3  C   UNK N   1      41.686  46.876  47.944  0.00  0.00    -0.017 A 
HETATM    4  C   UNK N   1      40.821  46.050  48.740  0.00  0.00    -0.008 A 
HETATM    5  C   UNK N   1      41.155  45.509  50.121  0.00  0.00    -0.018 A 
HETATM    6  C   UNK N   1      40.448  44.368  50.591  0.00  0.00    -0.038 A 
HETATM    7  C   UNK N   1      40.675  43.878  51.910  0.00  0.00    -0.022 A 
HETATM    8  C   UNK N   1      41.605  44.535  52.739  0.00  0.00     0.072 A 
HETATM    9  C   UNK N   1      42.284  45.662  52.274  0.00  0.00     0.038 A 
HETATM   10  C   UNK N   1      42.058  46.150  50.989  0.00  0.00     0.016 A 
HETATM   11  C   UNK N   1      39.938  42.662  52.424  0.00  0.00     0.052 C 
HETATM   12  C   UNK N   1      39.440  43.721  49.657  0.00  0.00     0.044 C 
HETATM   13  C   UNK N   1      38.610  44.840  49.037  0.00  0.00     0.044 C 
HETATM   14  C   UNK N   1      39.541  45.716  48.228  0.00  0.00    -0.043 A 
HETATM   15  C   UNK N   1      39.126  46.188  46.980  0.00  0.00     0.045 A 
HETATM   16  C   UNK N   1      42.125  48.237  45.834  0.00  0.00     0.052 C 
ENDROOT
BRANCH   1  17
HETATM   17  O   UNK N   1      39.517  47.467  45.021  0.00  0.00    -0.360 OA
HETATM   18  H   UNK N   1      39.447  48.411  44.821  0.00  0.00     0.217 HD
ENDBRANCH   1  17
BRANCH   3  19
HETATM   19  C   UNK N   1      43.100  47.169  48.302  0.00  0.00     0.002 C 
HETATM   20  C   UNK N   1      43.431  48.261  49.001  0.00  0.00     0.012 C 
ENDBRANCH   3  19
BRANCH   8  21
HETATM   21  O   UNK N   1      41.836  44.087  53.994  0.00  0.00    -0.360 OA
HETATM   22  H   UNK N   1      41.810  44.677  54.761  0.00  0.00     0.217 HD
ENDBRANCH   8  21
TORSDOF 3
ENDMDL
MODEL 2
REMARK VINA RESULT:      -7.2      1.017      6.422
REMARK  3 active torsions:
REMARK  status: ('A' for Active; 'I' for Inactive)
REMARK    1  A    between atoms: O_1  and  C_2 
REMARK    2  A    between atoms: C_4  and  C_19 
REMARK    3  A    between atoms: C_9  and  O_10 
ROOT
HETATM    1  C   UNK N   1      41.870  45.025  51.536  0.00  0.00     0.073 A 
HETATM    2  C   UNK N   1      40.833  44.438  50.788  0.00  0.00    -0.018 A 
HETATM    3  C   UNK N   1      40.491  44.965  49.511  0.00  0.00    -0.017 A 
HETATM    4  C   UNK N   1      41.175  46.128  49.018  0.00  0.00    -0.008 A 
HETATM    5  C   UNK N   1      40.866  46.840  47.711  0.00  0.00    -0.018 A 
HETATM    6  C   UNK N   1      41.872  47.658  47.128  0.00  0.00    -0.038 A 
HETATM    7  C   UNK N   1      41.594  48.404  45.947  0.00  0.00    -0.022 A 
HETATM    8  C   UNK N   1      40.314  48.319  45.363  0.00  0.00     0.072 A 
HETATM    9  C   UNK N   1      39.329  47.524  45.948  0.00  0.00     0.038 A 
HETATM   10  C   UNK N   1      39.593  46.801  47.110  0.00  0.00     0.016 A 
HETATM   11  C   UNK N   1      42.654  49.274  45.309  0.00  0.00     0.052 C 
HETATM   12  C   UNK N   1      43.222  47.726  47.822  0.00  0.00     0.044 C 
HETATM   13  C   UNK N   1      42.960  47.909  49.312  0.00  0.00     0.044 C 
HETATM   14  C   UNK N   1      42.213  46.690  49.806  0.00  0.00    -0.043 A 
HETATM   15  C   UNK N   1      42.555  46.129  51.039  0.00  0.00     0.045 A 
HETATM   16  C   UNK N   1      40.131  43.204  51.317  0.00  0.00     0.052 C 
ENDROOT
BRANCH   1  17
HETATM   17  O   UNK N   1      42.218  44.506  52.736  0.00  0.00    -0.360 OA
HETATM   18  H   UNK N   1      41.918  44.896  53.569  0.00  0.00     0.217 HD
ENDBRANCH   1  17
BRANCH   3  19
HETATM   19  C   UNK N   1      39.494  44.200  48.713  0.00  0.00     0.002 C 
HETATM   20  C   UNK N   1      38.259  44.670  48.506  0.00  0.00     0.012 C 
ENDBRANCH   3  19
BRANCH   8  21
HETATM   21  O   UNK N   1      40.029  49.018  44.241  0.00  0.00    -0.360 OA
HETATM   22  H   UNK N   1      39.120  49.228  43.986  0.00  0.00     0.217 HD
ENDBRANCH   8  21
TORSDOF 3
ENDMDL
MODEL 3
REMARK VINA RESULT:      -6.7     12.385     15.671
REMARK  3 active torsions:
REMARK  status: ('A' for Active; 'I' for Inactive)
REMARK    1  A    between atoms: O_1  and  C_2 
REMARK    2  A    between atoms: C_4  and  C_19 
REMARK    3  A    between atoms: C_9  and  O_10 
ROOT
HETATM    1  C   UNK N   1      32.651  50.760  42.838  0.00  0.00     0.073 A 
HETATM    2  C   UNK N   1      32.775  51.886  43.673  0.00  0.00    -0.018 A 
HETATM    3  C   UNK N   1      32.001  53.052  43.412  0.00  0.00    -0.017 A 
HETATM    4  C   UNK N   1      31.135  53.087  42.267  0.00  0.00    -0.008 A 
HETATM    5  C   UNK N   1      30.309  54.285  41.828  0.00  0.00    -0.018 A 
HETATM    6  C   UNK N   1      29.181  54.063  40.991  0.00  0.00    -0.038 A 
HETATM    7  C   UNK N   1      28.429  55.166  40.494  0.00  0.00    -0.022 A 
HETATM    8  C   UNK N   1      28.814  56.476  40.842  0.00  0.00     0.072 A 
HETATM    9  C   UNK N   1      29.930  56.686  41.652  0.00  0.00     0.038 A 
HETATM   10  C   UNK N   1      30.674  55.610  42.133  0.00  0.00     0.016 A 
HETATM   11  C   UNK N   1      27.222  54.948  39.609  0.00  0.00     0.052 C 
HETATM   12  C   UNK N   1      28.834  52.628  40.632  0.00  0.00     0.044 C 
HETATM   13  C   UNK N   1      30.132  51.930  40.243  0.00  0.00     0.044 C 
HETATM   14  C   UNK N   1      31.042  51.930  41.451  0.00  0.00    -0.043 A 
HETATM   15  C   UNK N   1      31.784  50.784  41.751  0.00  0.00     0.045 A 
HETATM   16  C   UNK N   1      33.683  51.827  44.884  0.00  0.00     0.052 C 
ENDROOT
BRANCH   1  17
HETATM   17  O   UNK N   1      33.362  49.640  43.102  0.00  0.00    -0.360 OA
HETATM   18  H   UNK N   1      33.064  48.765  42.817  0.00  0.00     0.217 HD
ENDBRANCH   1  17
BRANCH   3  19
HETATM   19  C   UNK N   1      32.068  54.143  44.423  0.00  0.00     0.002 C 
HETATM   20  C   UNK N   1      31.187  54.218  45.427  0.00  0.00     0.012 C 
ENDBRANCH   3  19
BRANCH   8  21
HETATM   21  O   UNK N   1      28.114  57.537  40.382  0.00  0.00    -0.360 OA
HETATM   22  H   UNK N   1      28.549  58.300  39.974  0.00  0.00     0.217 HD
ENDBRANCH   8  21
TORSDOF 3
ENDMDL
MODEL 4
REMARK VINA RESULT:      -6.2     11.963     15.524
REMARK  3 active torsions:
REMARK  status: ('A' for Active; 'I' for Inactive)
REMARK    1  A    between atoms: O_1  and  C_2 
REMARK    2  A    between atoms: C_4  and  C_19 
REMARK    3  A    between atoms: C_9  and  O_10 
ROOT
HETATM    1  C   UNK N   1      33.192  51.691  44.331  0.00  0.00     0.073 A 
HETATM    2  C   UNK N   1      32.784  50.910  43.234  0.00  0.00    -0.018 A 
HETATM    3  C   UNK N   1      31.890  51.453  42.268  0.00  0.00    -0.017 A 
HETATM    4  C   UNK N   1      31.372  52.780  42.450  0.00  0.00    -0.008 A 
HETATM    5  C   UNK N   1      30.358  53.458  41.541  0.00  0.00    -0.018 A 
HETATM    6  C   UNK N   1      30.279  54.877  41.552  0.00  0.00    -0.038 A 
HETATM    7  C   UNK N   1      29.289  55.546  40.775  0.00  0.00    -0.022 A 
HETATM    8  C   UNK N   1      28.394  54.785  39.996  0.00  0.00     0.072 A 
HETATM    9  C   UNK N   1      28.471  53.392  40.001  0.00  0.00     0.038 A 
HETATM   10  C   UNK N   1      29.431  52.734  40.767  0.00  0.00     0.016 A 
HETATM   11  C   UNK N   1      29.195  57.055  40.769  0.00  0.00     0.052 C 
HETATM   12  C   UNK N   1      31.256  55.637  42.433  0.00  0.00     0.044 C 
HETATM   13  C   UNK N   1      31.289  54.936  43.786  0.00  0.00     0.044 C 
HETATM   14  C   UNK N   1      31.808  53.532  43.571  0.00  0.00    -0.043 A 
HETATM   15  C   UNK N   1      32.716  52.989  44.484  0.00  0.00     0.045 A 
HETATM   16  C   UNK N   1      33.351  49.517  43.051  0.00  0.00     0.052 C 
ENDROOT
BRANCH   1  17
HETATM   17  O   UNK N   1      34.065  51.188  45.233  0.00  0.00    -0.360 OA
HETATM   18  H   UNK N   1      34.372  51.704  45.991  0.00  0.00     0.217 HD
ENDBRANCH   1  17
BRANCH   3  19
HETATM   19  C   UNK N   1      31.627  50.628  41.058  0.00  0.00     0.002 C 
HETATM   20  C   UNK N   1      30.806  49.572  41.099  0.00  0.00     0.012 C 
ENDBRANCH   3  19
BRANCH   8  21
HETATM   21  O   UNK N   1      27.448  55.399  39.251  0.00  0.00    -0.360 OA
HETATM   22  H   UNK N   1      27.535  56.321  38.971  0.00  0.00     0.217 HD
ENDBRANCH   8  21
TORSDOF 3
ENDMDL
MODEL 5
REMARK VINA RESULT:      -5.8     12.079     15.593
REMARK  3 active torsions:
REMARK  status: ('A' for Active; 'I' for Inactive)
REMARK    1  A    between atoms: O_1  and  C_2 
REMARK    2  A    between atoms: C_4  and  C_19 
REMARK    3  A    between atoms: C_9  and  O_10 
ROOT
HETATM    1  C   UNK N   1      32.908  54.440  44.702  0.00  0.00     0.073 A 
HETATM    2  C   UNK N   1      32.983  53.083  44.336  0.00  0.00    -0.018 A 
HETATM    3  C   UNK N   1      32.265  52.612  43.201  0.00  0.00    -0.017 A 
HETATM    4  C   UNK N   1      31.427  53.519  42.466  0.00  0.00    -0.008 A 
HETATM    5  C   UNK N   1      30.551  53.139  41.283  0.00  0.00    -0.018 A 
HETATM    6  C   UNK N   1      30.148  54.162  40.381  0.00  0.00    -0.038 A 
HETATM    7  C   UNK N   1      29.263  53.862  39.306  0.00  0.00    -0.022 A 
HETATM    8  C   UNK N   1      28.795  52.542  39.146  0.00  0.00     0.072 A 
HETATM    9  C   UNK N   1      29.185  51.547  40.043  0.00  0.00     0.038 A 
HETATM   10  C   UNK N   1      30.042  51.839  41.102  0.00  0.00     0.016 A 
HETATM   11  C   UNK N   1      28.830  54.935  38.333  0.00  0.00     0.052 C 
HETATM   12  C   UNK N   1      30.668  55.569  40.624  0.00  0.00     0.044 C 
HETATM   13  C   UNK N   1      30.515  55.861  42.112  0.00  0.00     0.044 C 
HETATM   14  C   UNK N   1      31.379  54.878  42.870  0.00  0.00    -0.043 A 
HETATM   15  C   UNK N   1      32.124  55.323  43.965  0.00  0.00     0.045 A 
HETATM   16  C   UNK N   1      33.881  52.145  45.115  0.00  0.00     0.052 C 
ENDROOT
BRANCH   1  17
HETATM   17  O   UNK N   1      33.613  54.896  45.761  0.00  0.00    -0.360 OA
HETATM   18  H   UNK N   1      33.973  55.794  45.790  0.00  0.00     0.217 HD
ENDBRANCH   1  17
BRANCH   3  19
HETATM   19  C   UNK N   1      32.514  51.205  42.785  0.00  0.00     0.002 C 
HETATM   20  C   UNK N   1      32.021  50.175  43.480  0.00  0.00     0.012 C 
ENDBRANCH   3  19
BRANCH   8  21
HETATM   21  O   UNK N   1      27.955  52.235  38.132  0.00  0.00    -0.360 OA
HETATM   22  H   UNK N   1      27.011  52.446  38.168  0.00  0.00     0.217 HD
ENDBRANCH   8  21
TORSDOF 3
ENDMDL
MODEL 6
REMARK VINA RESULT:      -5.6      1.518      5.652
REMARK  3 active torsions:
REMARK  status: ('A' for Active; 'I' for Inactive)
REMARK    1  A    between atoms: O_1  and  C_2 
REMARK    2  A    between atoms: C_4  and  C_19 
REMARK    3  A    between atoms: C_9  and  O_10 
ROOT
HETATM    1  C   UNK N   1      39.869  42.985  52.430  0.00  0.00     0.073 A 
HETATM    2  C   UNK N   1      40.858  43.843  52.946  0.00  0.00    -0.018 A 
HETATM    3  C   UNK N   1      41.411  44.866  52.125  0.00  0.00    -0.017 A 
HETATM    4  C   UNK N   1      40.990  44.981  50.756  0.00  0.00    -0.008 A 
HETATM    5  C   UNK N   1      41.546  45.974  49.749  0.00  0.00    -0.018 A 
HETATM    6  C   UNK N   1      40.759  46.298  48.610  0.00  0.00    -0.038 A 
HETATM    7  C   UNK N   1      41.277  47.163  47.603  0.00  0.00    -0.022 A 
HETATM    8  C   UNK N   1      42.575  47.693  47.750  0.00  0.00     0.072 A 
HETATM    9  C   UNK N   1      43.345  47.359  48.864  0.00  0.00     0.038 A 
HETATM   10  C   UNK N   1      42.846  46.506  49.846  0.00  0.00     0.016 A 
HETATM   11  C   UNK N   1      40.451  47.525  46.389  0.00  0.00     0.052 C 
HETATM   12  C   UNK N   1      39.378  45.673  48.499  0.00  0.00     0.044 C 
HETATM   13  C   UNK N   1      39.519  44.195  48.843  0.00  0.00     0.044 C 
HETATM   14  C   UNK N   1      39.992  44.094  50.276  0.00  0.00    -0.043 A 
HETATM   15  C   UNK N   1      39.437  43.124  51.115  0.00  0.00     0.045 A 
HETATM   16  C   UNK N   1      41.281  43.715  54.395  0.00  0.00     0.052 C 
ENDROOT
BRANCH   1  17
HETATM   17  O   UNK N   1      39.320  42.033  53.218  0.00  0.00    -0.360 OA
HETATM   18  H   UNK N   1      39.825  41.267  53.524  0.00  0.00     0.217 HD
ENDBRANCH   1  17
BRANCH   3  19
HETATM   19  C   UNK N   1      42.335  45.829  52.783  0.00  0.00     0.002 C 
HETATM   20  C   UNK N   1      41.909  46.661  53.740  0.00  0.00     0.012 C 
ENDBRANCH   3  19
BRANCH   8  21
HETATM   21  O   UNK N   1      43.086  48.516  46.807  0.00  0.00    -0.360 OA
HETATM   22  H   UNK N   1      43.437  48.180  45.970  0.00  0.00     0.217 HD
ENDBRANCH   8  21
TORSDOF 3
ENDMDL
MODEL 7
REMARK VINA RESULT:      -5.6      1.558      5.853
REMARK  3 active torsions:
REMARK  status: ('A' for Active; 'I' for Inactive)
REMARK    1  A    between atoms: O_1  and  C_2 
REMARK    2  A    between atoms: C_4  and  C_19 
REMARK    3  A    between atoms: C_9  and  O_10 
ROOT
HETATM    1  C   UNK N   1      40.489  44.154  50.066  0.00  0.00     0.073 A 
HETATM    2  C   UNK N   1      41.394  45.204  50.306  0.00  0.00    -0.018 A 
HETATM    3  C   UNK N   1      41.475  46.295  49.394  0.00  0.00    -0.017 A 
HETATM    4  C   UNK N   1      40.665  46.288  48.208  0.00  0.00    -0.008 A 
HETATM    5  C   UNK N   1      40.701  47.345  47.116  0.00  0.00    -0.018 A 
HETATM    6  C   UNK N   1      39.573  47.476  46.261  0.00  0.00    -0.038 A 
HETATM    7  C   UNK N   1      39.600  48.400  45.176  0.00  0.00    -0.022 A 
HETATM    8  C   UNK N   1      40.753  49.182  44.963  0.00  0.00     0.072 A 
HETATM    9  C   UNK N   1      41.861  49.037  45.800  0.00  0.00     0.038 A 
HETATM   10  C   UNK N   1      41.843  48.127  46.855  0.00  0.00     0.016 A 
HETATM   11  C   UNK N   1      38.406  48.558  44.261  0.00  0.00     0.052 C 
HETATM   12  C   UNK N   1      38.371  46.587  46.528  0.00  0.00     0.044 C 
HETATM   13  C   UNK N   1      38.894  45.176  46.770  0.00  0.00     0.044 C 
HETATM   14  C   UNK N   1      39.768  45.208  48.004  0.00  0.00    -0.043 A 
HETATM   15  C   UNK N   1      39.680  44.169  48.935  0.00  0.00     0.045 A 
HETATM   16  C   UNK N   1      42.230  45.201  51.569  0.00  0.00     0.052 C 
ENDROOT
BRANCH   1  17
HETATM   17  O   UNK N   1      40.388  43.132  50.947  0.00  0.00    -0.360 OA
HETATM   18  H   UNK N   1      39.816  42.369  50.783  0.00  0.00     0.217 HD
ENDBRANCH   1  17
BRANCH   3  19
HETATM   19  C   UNK N   1      42.339  47.440  49.792  0.00  0.00     0.002 C 
HETATM   20  C   UNK N   1      43.623  47.504  49.425  0.00  0.00     0.012 C 
ENDBRANCH   3  19
BRANCH   8  21
HETATM   21  O   UNK N   1      40.799  50.065  43.941  0.00  0.00    -0.360 OA
HETATM   22  H   UNK N   1      39.996  50.413  43.529  0.00  0.00     0.217 HD
ENDBRANCH   8  21
TORSDOF 3
ENDMDL
MODEL 8
REMARK VINA RESULT:      -5.5     12.300     15.108
REMARK  3 active torsions:
REMARK  status: ('A' for Active; 'I' for Inactive)
REMARK    1  A    between atoms: O_1  and  C_2 
REMARK    2  A    between atoms: C_4  and  C_19 
REMARK    3  A    between atoms: C_9  and  O_10 
ROOT
HETATM    1  C   UNK N   1      28.744  54.284  39.123  0.00  0.00     0.073 A 
HETATM    2  C   UNK N   1      28.806  52.914  39.439  0.00  0.00    -0.018 A 
HETATM    3  C   UNK N   1      29.593  52.473  40.540  0.00  0.00    -0.017 A 
HETATM    4  C   UNK N   1      30.360  53.428  41.290  0.00  0.00    -0.008 A 
HETATM    5  C   UNK N   1      31.297  53.091  42.440  0.00  0.00    -0.018 A 
HETATM    6  C   UNK N   1      31.624  54.114  43.371  0.00  0.00    -0.038 A 
HETATM    7  C   UNK N   1      32.560  53.860  44.415  0.00  0.00    -0.022 A 
HETATM    8  C   UNK N   1      33.154  52.586  44.514  0.00  0.00     0.072 A 
HETATM    9  C   UNK N   1      32.836  51.592  43.588  0.00  0.00     0.038 A 
HETATM   10  C   UNK N   1      31.929  51.839  42.560  0.00  0.00     0.016 A 
HETATM   11  C   UNK N   1      32.914  54.935  45.418  0.00  0.00     0.052 C 
HETATM   12  C   UNK N   1      30.969  55.473  43.193  0.00  0.00     0.044 C 
HETATM   13  C   UNK N   1      31.057  55.831  41.714  0.00  0.00     0.044 C 
HETATM   14  C   UNK N   1      30.270  54.799  40.937  0.00  0.00    -0.043 A 
HETATM   15  C   UNK N   1      29.460  55.210  39.876  0.00  0.00     0.045 A 
HETATM   16  C   UNK N   1      27.980  51.924  38.644  0.00  0.00     0.052 C 
ENDROOT
BRANCH   1  17
HETATM   17  O   UNK N   1      27.973  54.709  38.097  0.00  0.00    -0.360 OA
HETATM   18  H   UNK N   1      27.164  54.247  37.838  0.00  0.00     0.217 HD
ENDBRANCH   1  17
BRANCH   3  19
HETATM   19  C   UNK N   1      29.487  51.035  40.907  0.00  0.00     0.002 C 
HETATM   20  C   UNK N   1      30.441  50.158  40.576  0.00  0.00     0.012 C 
ENDBRANCH   3  19
BRANCH   8  21
HETATM   21  O   UNK N   1      34.043  52.323  45.497  0.00  0.00    -0.360 OA
HETATM   22  H   UNK N   1      34.998  52.340  45.341  0.00  0.00     0.217 HD
ENDBRANCH   8  21
TORSDOF 3
ENDMDL
MODEL 9
REMARK VINA RESULT:      -5.4      1.595      2.301
REMARK  3 active torsions:
REMARK  status: ('A' for Active; 'I' for Inactive)
REMARK    1  A    between atoms: O_1  and  C_2 
REMARK    2  A    between atoms: C_4  and  C_19 
REMARK    3  A    between atoms: C_9  and  O_10 
ROOT
HETATM    1  C   UNK N   1      39.028  48.465  44.818  0.00  0.00     0.073 A 
HETATM    2  C   UNK N   1      40.263  48.978  45.255  0.00  0.00    -0.018 A 
HETATM    3  C   UNK N   1      40.951  48.355  46.334  0.00  0.00    -0.017 A 
HETATM    4  C   UNK N   1      40.351  47.235  47.003  0.00  0.00    -0.008 A 
HETATM    5  C   UNK N   1      40.936  46.520  48.212  0.00  0.00    -0.018 A 
HETATM    6  C   UNK N   1      40.510  45.191  48.485  0.00  0.00    -0.038 A 
HETATM    7  C   UNK N   1      40.973  44.516  49.652  0.00  0.00    -0.022 A 
HETATM    8  C   UNK N   1      41.857  45.179  50.527  0.00  0.00     0.072 A 
HETATM    9  C   UNK N   1      42.258  46.488  50.257  0.00  0.00     0.038 A 
HETATM   10  C   UNK N   1      41.800  47.155  49.123  0.00  0.00     0.016 A 
HETATM   11  C   UNK N   1      40.537  43.101  49.955  0.00  0.00     0.052 C 
HETATM   12  C   UNK N   1      39.537  44.542  47.516  0.00  0.00     0.044 C 
HETATM   13  C   UNK N   1      38.450  45.566  47.208  0.00  0.00     0.044 C 
HETATM   14  C   UNK N   1      39.104  46.750  46.532  0.00  0.00    -0.043 A 
HETATM   15  C   UNK N   1      38.468  47.356  45.445  0.00  0.00     0.045 A 
HETATM   16  C   UNK N   1      40.886  50.153  44.528  0.00  0.00     0.052 C 
ENDROOT
BRANCH   1  17
HETATM   17  O   UNK N   1      38.388  49.036  43.773  0.00  0.00    -0.360 OA
HETATM   18  H   UNK N   1      37.902  48.512  43.121  0.00  0.00     0.217 HD
ENDBRANCH   1  17
BRANCH   3  19
HETATM   19  C   UNK N   1      42.319  48.856  46.637  0.00  0.00     0.002 C 
HETATM   20  C   UNK N   1      43.404  48.112  46.395  0.00  0.00     0.012 C 
ENDBRANCH   3  19
BRANCH   8  21
HETATM   21  O   UNK N   1      42.309  44.558  51.639  0.00  0.00    -0.360 OA
HETATM   22  H   UNK N   1      43.120  44.030  51.637  0.00  0.00     0.217 HD
ENDBRANCH   8  21
TORSDOF 3
ENDMDL
