MODEL 1
REMARK VINA RESULT:      -8.0      0.000      0.000
REMARK  12 active torsions:
REMARK  status: ('A' for Active; 'I' for Inactive)
REMARK    1  A    between atoms: C_2  and  O_3 
REMARK    2  A    between atoms: C_2  and  C_28 
REMARK    3  A    between atoms: O_3  and  C_4 
REMARK    4  A    between atoms: C_6  and  C_16 
REMARK    5  A    between atoms: C_7  and  O_8 
REMARK    6  A    between atoms: C_10  and  O_11 
REMARK    7  A    between atoms: C_13  and  O_14 
REMARK    8  A    between atoms: C_16  and  O_17 
REMARK    9  A    between atoms: O_17  and  C_18 
REMARK   10  A    between atoms: C_18  and  C_20 
REMARK   11  A    between atoms: C_23  and  O_24 
REMARK   12  A    between atoms: C_31  and  O_32 
ROOT
HETATM    1  C   UNK N   1      42.205  45.741  47.484  0.00  0.00     0.301 C 
HETATM    2  O   UNK N   1      41.339  46.871  47.492  0.00  0.00    -0.348 OA
HETATM    3  C   UNK N   1      39.972  46.487  47.426  0.00  0.00     0.180 C 
HETATM    4  C   UNK N   1      39.672  45.749  46.104  0.00  0.00     0.180 C 
HETATM    5  C   UNK N   1      40.548  44.487  46.048  0.00  0.00     0.183 C 
HETATM    6  C   UNK N   1      42.023  44.903  46.192  0.00  0.00     0.205 C 
ENDROOT
BRANCH   3   7
HETATM    7  C   UNK N   1      39.085  47.731  47.566  0.00  0.00     0.213 C 
BRANCH   7   8
HETATM    8  O   UNK N   1      39.705  48.803  46.957  0.00  0.00    -0.315 OA
BRANCH   8   9
HETATM    9  C   UNK N   1      39.035  49.844  46.397  0.00  0.00     0.293 C 
HETATM   10  O   UNK N   1      38.503  50.689  47.104  0.00  0.00    -0.259 OA
BRANCH   9  11
HETATM   11  C   UNK N   1      38.998  49.978  44.922  0.00  0.00     0.039 A 
HETATM   12  C   UNK N   1      39.877  50.852  44.257  0.00  0.00     0.020 A 
HETATM   13  C   UNK N   1      39.838  50.965  42.863  0.00  0.00     0.037 A 
HETATM   14  C   UNK N   1      38.916  50.214  42.120  0.00  0.00     0.065 A 
HETATM   15  C   UNK N   1      38.037  49.347  42.778  0.00  0.00     0.037 A 
HETATM   16  C   UNK N   1      38.078  49.225  44.170  0.00  0.00     0.020 A 
BRANCH  14  17
HETATM   17  O   UNK N   1      38.868  50.318  40.777  0.00  0.00    -0.361 OA
HETATM   18  H   UNK N   1      38.697  51.162  40.338  0.00  0.00     0.217 HD
ENDBRANCH  14  17
ENDBRANCH   9  11
ENDBRANCH   8   9
ENDBRANCH   7   8
ENDBRANCH   3   7
BRANCH   4  19
HETATM   19  O   UNK N   1      39.951  46.599  45.019  0.00  0.00    -0.390 OA
HETATM   20  H   UNK N   1      40.130  47.501  45.395  0.00  0.00     0.210 HD
ENDBRANCH   4  19
BRANCH   1  21
HETATM   21  O   UNK N   1      42.021  44.980  48.634  0.00  0.00    -0.283 OA
BRANCH  21  22
HETATM   22  C   UNK N   1      42.333  45.408  49.891  0.00  0.00     0.295 C 
HETATM   23  O   UNK N   1      43.182  46.272  50.057  0.00  0.00    -0.259 OA
BRANCH  22  24
HETATM   24  C   UNK N   1      41.630  44.834  51.065  0.00  0.00     0.039 A 
HETATM   25  C   UNK N   1      41.992  45.222  52.369  0.00  0.00     0.020 A 
HETATM   26  C   UNK N   1      41.327  44.684  53.476  0.00  0.00     0.037 A 
HETATM   27  C   UNK N   1      40.296  43.753  53.293  0.00  0.00     0.065 A 
HETATM   28  C   UNK N   1      39.935  43.362  51.999  0.00  0.00     0.037 A 
HETATM   29  C   UNK N   1      40.597  43.899  50.890  0.00  0.00     0.020 A 
BRANCH  27  30
HETATM   30  O   UNK N   1      39.646  43.231  54.353  0.00  0.00    -0.361 OA
HETATM   31  H   UNK N   1      39.881  42.365  54.717  0.00  0.00     0.217 HD
ENDBRANCH  27  30
ENDBRANCH  22  24
ENDBRANCH  21  22
ENDBRANCH   1  21
BRANCH   5  32
HETATM   32  O   UNK N   1      40.328  43.818  44.833  0.00  0.00    -0.390 OA
HETATM   33  H   UNK N   1      39.354  43.649  44.764  0.00  0.00     0.210 HD
ENDBRANCH   5  32
BRANCH   6  34
HETATM   34  O   UNK N   1      42.836  43.759  46.209  0.00  0.00    -0.388 OA
HETATM   35  H   UNK N   1      43.078  43.594  47.157  0.00  0.00     0.210 HD
ENDBRANCH   6  34
TORSDOF 12
ENDMDL
MODEL 2
REMARK VINA RESULT:      -7.4      3.358      9.328
REMARK  12 active torsions:
REMARK  status: ('A' for Active; 'I' for Inactive)
REMARK    1  A    between atoms: C_2  and  O_3 
REMARK    2  A    between atoms: C_2  and  C_28 
REMARK    3  A    between atoms: O_3  and  C_4 
REMARK    4  A    between atoms: C_6  and  C_16 
REMARK    5  A    between atoms: C_7  and  O_8 
REMARK    6  A    between atoms: C_10  and  O_11 
REMARK    7  A    between atoms: C_13  and  O_14 
REMARK    8  A    between atoms: C_16  and  O_17 
REMARK    9  A    between atoms: O_17  and  C_18 
REMARK   10  A    between atoms: C_18  and  C_20 
REMARK   11  A    between atoms: C_23  and  O_24 
REMARK   12  A    between atoms: C_31  and  O_32 
ROOT
HETATM    1  C   UNK N   1      37.754  49.234  43.156  0.00  0.00     0.301 C 
HETATM    2  O   UNK N   1      38.259  48.764  44.401  0.00  0.00    -0.348 OA
HETATM    3  C   UNK N   1      38.790  49.823  45.188  0.00  0.00     0.180 C 
HETATM    4  C   UNK N   1      39.992  50.483  44.481  0.00  0.00     0.180 C 
HETATM    5  C   UNK N   1      39.507  51.053  43.138  0.00  0.00     0.183 C 
HETATM    6  C   UNK N   1      38.868  49.916  42.320  0.00  0.00     0.205 C 
ENDROOT
BRANCH   3   7
HETATM    7  C   UNK N   1      39.199  49.282  46.563  0.00  0.00     0.213 C 
BRANCH   7   8
HETATM    8  O   UNK N   1      39.302  47.907  46.499  0.00  0.00    -0.315 OA
BRANCH   8   9
HETATM    9  C   UNK N   1      40.480  47.233  46.566  0.00  0.00     0.293 C 
HETATM   10  O   UNK N   1      41.155  47.066  45.559  0.00  0.00    -0.259 OA
BRANCH   9  11
HETATM   11  C   UNK N   1      40.969  46.747  47.878  0.00  0.00     0.039 A 
HETATM   12  C   UNK N   1      42.124  47.297  48.463  0.00  0.00     0.020 A 
HETATM   13  C   UNK N   1      42.573  46.836  49.705  0.00  0.00     0.037 A 
HETATM   14  C   UNK N   1      41.878  45.816  50.371  0.00  0.00     0.065 A 
HETATM   15  C   UNK N   1      40.732  45.264  49.791  0.00  0.00     0.037 A 
HETATM   16  C   UNK N   1      40.276  45.728  48.554  0.00  0.00     0.020 A 
BRANCH  14  17
HETATM   17  O   UNK N   1      42.304  45.362  51.567  0.00  0.00    -0.361 OA
HETATM   18  H   UNK N   1      42.712  45.949  52.219  0.00  0.00     0.217 HD
ENDBRANCH  14  17
ENDBRANCH   9  11
ENDBRANCH   8   9
ENDBRANCH   7   8
ENDBRANCH   3   7
BRANCH   4  19
HETATM   19  O   UNK N   1      41.001  49.524  44.280  0.00  0.00    -0.390 OA
HETATM   20  H   UNK N   1      41.498  49.442  45.137  0.00  0.00     0.210 HD
ENDBRANCH   4  19
BRANCH   1  21
HETATM   21  O   UNK N   1      36.663  50.073  43.359  0.00  0.00    -0.283 OA
BRANCH  21  22
HETATM   22  C   UNK N   1      35.362  49.671  43.262  0.00  0.00     0.295 C 
HETATM   23  O   UNK N   1      35.094  48.513  42.977  0.00  0.00    -0.259 OA
BRANCH  22  24
HETATM   24  C   UNK N   1      34.267  50.638  43.519  0.00  0.00     0.039 A 
HETATM   25  C   UNK N   1      34.416  51.636  44.501  0.00  0.00     0.020 A 
HETATM   26  C   UNK N   1      33.385  52.550  44.741  0.00  0.00     0.037 A 
HETATM   27  C   UNK N   1      32.194  52.477  44.005  0.00  0.00     0.065 A 
HETATM   28  C   UNK N   1      32.040  51.484  43.031  0.00  0.00     0.037 A 
HETATM   29  C   UNK N   1      33.070  50.570  42.787  0.00  0.00     0.020 A 
BRANCH  27  30
HETATM   30  O   UNK N   1      31.196  53.355  44.227  0.00  0.00    -0.361 OA
HETATM   31  H   UNK N   1      30.909  53.982  43.547  0.00  0.00     0.217 HD
ENDBRANCH  27  30
ENDBRANCH  22  24
ENDBRANCH  21  22
ENDBRANCH   1  21
BRANCH   5  32
HETATM   32  O   UNK N   1      40.593  51.621  42.451  0.00  0.00    -0.390 OA
HETATM   33  H   UNK N   1      40.595  52.590  42.660  0.00  0.00     0.210 HD
ENDBRANCH   5  32
BRANCH   6  34
HETATM   34  O   UNK N   1      38.360  50.429  41.117  0.00  0.00    -0.388 OA
HETATM   35  H   UNK N   1      37.371  50.423  41.199  0.00  0.00     0.210 HD
ENDBRANCH   6  34
TORSDOF 12
ENDMDL
MODEL 3
REMARK VINA RESULT:      -7.4      1.947      4.909
REMARK  12 active torsions:
REMARK  status: ('A' for Active; 'I' for Inactive)
REMARK    1  A    between atoms: C_2  and  O_3 
REMARK    2  A    between atoms: C_2  and  C_28 
REMARK    3  A    between atoms: O_3  and  C_4 
REMARK    4  A    between atoms: C_6  and  C_16 
REMARK    5  A    between atoms: C_7  and  O_8 
REMARK    6  A    between atoms: C_10  and  O_11 
REMARK    7  A    between atoms: C_13  and  O_14 
REMARK    8  A    between atoms: C_16  and  O_17 
REMARK    9  A    between atoms: O_17  and  C_18 
REMARK   10  A    between atoms: C_18  and  C_20 
REMARK   11  A    between atoms: C_23  and  O_24 
REMARK   12  A    between atoms: C_31  and  O_32 
ROOT
HETATM    1  C   UNK N   1      40.027  45.398  48.519  0.00  0.00     0.301 C 
HETATM    2  O   UNK N   1      40.363  46.526  47.718  0.00  0.00    -0.348 OA
HETATM    3  C   UNK N   1      41.768  46.642  47.535  0.00  0.00     0.180 C 
HETATM    4  C   UNK N   1      42.480  46.871  48.885  0.00  0.00     0.180 C 
HETATM    5  C   UNK N   1      42.192  45.663  49.792  0.00  0.00     0.183 C 
HETATM    6  C   UNK N   1      40.668  45.499  49.927  0.00  0.00     0.205 C 
ENDROOT
BRANCH   3   7
HETATM    7  C   UNK N   1      42.064  47.791  46.564  0.00  0.00     0.213 C 
BRANCH   7   8
HETATM    8  O   UNK N   1      41.058  47.863  45.623  0.00  0.00    -0.315 OA
BRANCH   8   9
HETATM    9  C   UNK N   1      40.050  48.775  45.661  0.00  0.00     0.293 C 
HETATM   10  O   UNK N   1      39.708  49.273  46.724  0.00  0.00    -0.259 OA
BRANCH   9  11
HETATM   11  C   UNK N   1      39.405  49.201  44.397  0.00  0.00     0.039 A 
HETATM   12  C   UNK N   1      39.925  50.274  43.651  0.00  0.00     0.020 A 
HETATM   13  C   UNK N   1      39.312  50.664  42.456  0.00  0.00     0.037 A 
HETATM   14  C   UNK N   1      38.170  49.992  41.997  0.00  0.00     0.065 A 
HETATM   15  C   UNK N   1      37.647  48.928  42.738  0.00  0.00     0.037 A 
HETATM   16  C   UNK N   1      38.261  48.530  43.929  0.00  0.00     0.020 A 
BRANCH  14  17
HETATM   17  O   UNK N   1      37.569  50.362  40.848  0.00  0.00    -0.361 OA
HETATM   18  H   UNK N   1      37.602  49.808  40.056  0.00  0.00     0.217 HD
ENDBRANCH  14  17
ENDBRANCH   9  11
ENDBRANCH   8   9
ENDBRANCH   7   8
ENDBRANCH   3   7
BRANCH   4  19
HETATM   19  O   UNK N   1      42.005  48.058  49.470  0.00  0.00    -0.390 OA
HETATM   20  H   UNK N   1      41.129  47.847  49.887  0.00  0.00     0.210 HD
ENDBRANCH   4  19
BRANCH   1  21
HETATM   21  O   UNK N   1      40.373  44.219  47.868  0.00  0.00    -0.283 OA
BRANCH  21  22
HETATM   22  C   UNK N   1      40.446  44.088  46.512  0.00  0.00     0.295 C 
HETATM   23  O   UNK N   1      39.548  44.515  45.801  0.00  0.00    -0.259 OA
BRANCH  22  24
HETATM   24  C   UNK N   1      41.628  43.439  45.893  0.00  0.00     0.039 A 
HETATM   25  C   UNK N   1      42.244  42.339  46.521  0.00  0.00     0.020 A 
HETATM   26  C   UNK N   1      43.356  41.724  45.937  0.00  0.00     0.037 A 
HETATM   27  C   UNK N   1      43.865  42.201  44.721  0.00  0.00     0.065 A 
HETATM   28  C   UNK N   1      43.259  43.296  44.095  0.00  0.00     0.037 A 
HETATM   29  C   UNK N   1      42.146  43.912  44.677  0.00  0.00     0.020 A 
BRANCH  27  30
HETATM   30  O   UNK N   1      44.935  41.614  44.147  0.00  0.00    -0.361 OA
HETATM   31  H   UNK N   1      45.266  41.894  43.282  0.00  0.00     0.217 HD
ENDBRANCH  27  30
ENDBRANCH  22  24
ENDBRANCH  21  22
ENDBRANCH   1  21
BRANCH   5  32
HETATM   32  O   UNK N   1      42.792  45.866  51.046  0.00  0.00    -0.390 OA
HETATM   33  H   UNK N   1      42.061  46.026  51.697  0.00  0.00     0.210 HD
ENDBRANCH   5  32
BRANCH   6  34
HETATM   34  O   UNK N   1      40.383  44.362  50.698  0.00  0.00    -0.388 OA
HETATM   35  H   UNK N   1      40.875  44.465  51.553  0.00  0.00     0.210 HD
ENDBRANCH   6  34
TORSDOF 12
ENDMDL
MODEL 4
REMARK VINA RESULT:      -7.4      1.712      2.227
REMARK  12 active torsions:
REMARK  status: ('A' for Active; 'I' for Inactive)
REMARK    1  A    between atoms: C_2  and  O_3 
REMARK    2  A    between atoms: C_2  and  C_28 
REMARK    3  A    between atoms: O_3  and  C_4 
REMARK    4  A    between atoms: C_6  and  C_16 
REMARK    5  A    between atoms: C_7  and  O_8 
REMARK    6  A    between atoms: C_10  and  O_11 
REMARK    7  A    between atoms: C_13  and  O_14 
REMARK    8  A    between atoms: C_16  and  O_17 
REMARK    9  A    between atoms: O_17  and  C_18 
REMARK   10  A    between atoms: C_18  and  C_20 
REMARK   11  A    between atoms: C_23  and  O_24 
REMARK   12  A    between atoms: C_31  and  O_32 
ROOT
HETATM    1  C   UNK N   1      41.681  44.534  47.908  0.00  0.00     0.301 C 
HETATM    2  O   UNK N   1      41.403  45.879  47.531  0.00  0.00    -0.348 OA
HETATM    3  C   UNK N   1      40.414  45.948  46.513  0.00  0.00     0.180 C 
HETATM    4  C   UNK N   1      40.903  45.254  45.225  0.00  0.00     0.180 C 
HETATM    5  C   UNK N   1      41.184  43.778  45.549  0.00  0.00     0.183 C 
HETATM    6  C   UNK N   1      42.202  43.711  46.701  0.00  0.00     0.205 C 
ENDROOT
BRANCH   3   7
HETATM    7  C   UNK N   1      40.062  47.415  46.240  0.00  0.00     0.213 C 
BRANCH   7   8
HETATM    8  O   UNK N   1      40.029  47.630  44.877  0.00  0.00    -0.315 OA
BRANCH   8   9
HETATM    9  C   UNK N   1      39.057  48.341  44.247  0.00  0.00     0.293 C 
HETATM   10  O   UNK N   1      37.932  47.876  44.125  0.00  0.00    -0.259 OA
BRANCH   9  11
HETATM   11  C   UNK N   1      39.355  49.707  43.757  0.00  0.00     0.039 A 
HETATM   12  C   UNK N   1      40.009  50.640  44.582  0.00  0.00     0.020 A 
HETATM   13  C   UNK N   1      40.291  51.925  44.106  0.00  0.00     0.037 A 
HETATM   14  C   UNK N   1      39.917  52.293  42.806  0.00  0.00     0.065 A 
HETATM   15  C   UNK N   1      39.263  51.370  41.984  0.00  0.00     0.037 A 
HETATM   16  C   UNK N   1      38.986  50.083  42.453  0.00  0.00     0.020 A 
BRANCH  14  17
HETATM   17  O   UNK N   1      40.182  53.530  42.339  0.00  0.00    -0.361 OA
HETATM   18  H   UNK N   1      40.672  53.669  41.516  0.00  0.00     0.217 HD
ENDBRANCH  14  17
ENDBRANCH   9  11
ENDBRANCH   8   9
ENDBRANCH   7   8
ENDBRANCH   3   7
BRANCH   4  19
HETATM   19  O   UNK N   1      42.067  45.894  44.761  0.00  0.00    -0.390 OA
HETATM   20  H   UNK N   1      42.039  45.864  43.769  0.00  0.00     0.210 HD
ENDBRANCH   4  19
BRANCH   1  21
HETATM   21  O   UNK N   1      40.563  43.953  48.496  0.00  0.00    -0.283 OA
BRANCH  21  22
HETATM   22  C   UNK N   1      39.894  44.487  49.559  0.00  0.00     0.295 C 
HETATM   23  O   UNK N   1      38.859  45.113  49.385  0.00  0.00    -0.259 OA
BRANCH  22  24
HETATM   24  C   UNK N   1      40.416  44.296  50.934  0.00  0.00     0.039 A 
HETATM   25  C   UNK N   1      39.895  43.278  51.756  0.00  0.00     0.020 A 
HETATM   26  C   UNK N   1      40.388  43.094  53.051  0.00  0.00     0.037 A 
HETATM   27  C   UNK N   1      41.405  43.925  53.541  0.00  0.00     0.065 A 
HETATM   28  C   UNK N   1      41.923  44.941  52.730  0.00  0.00     0.037 A 
HETATM   29  C   UNK N   1      41.433  45.125  51.433  0.00  0.00     0.020 A 
BRANCH  27  30
HETATM   30  O   UNK N   1      41.890  43.755  54.787  0.00  0.00    -0.361 OA
HETATM   31  H   UNK N   1      42.124  42.879  55.128  0.00  0.00     0.217 HD
ENDBRANCH  27  30
ENDBRANCH  22  24
ENDBRANCH  21  22
ENDBRANCH   1  21
BRANCH   5  32
HETATM   32  O   UNK N   1      41.675  43.132  44.403  0.00  0.00    -0.390 OA
HETATM   33  H   UNK N   1      41.253  43.567  43.618  0.00  0.00     0.210 HD
ENDBRANCH   5  32
BRANCH   6  34
HETATM   34  O   UNK N   1      42.424  42.372  47.057  0.00  0.00    -0.388 OA
HETATM   35  H   UNK N   1      43.400  42.273  47.207  0.00  0.00     0.210 HD
ENDBRANCH   6  34
TORSDOF 12
ENDMDL
MODEL 5
REMARK VINA RESULT:      -7.3      1.100      8.377
REMARK  12 active torsions:
REMARK  status: ('A' for Active; 'I' for Inactive)
REMARK    1  A    between atoms: C_2  and  O_3 
REMARK    2  A    between atoms: C_2  and  C_28 
REMARK    3  A    between atoms: O_3  and  C_4 
REMARK    4  A    between atoms: C_6  and  C_16 
REMARK    5  A    between atoms: C_7  and  O_8 
REMARK    6  A    between atoms: C_10  and  O_11 
REMARK    7  A    between atoms: C_13  and  O_14 
REMARK    8  A    between atoms: C_16  and  O_17 
REMARK    9  A    between atoms: O_17  and  C_18 
REMARK   10  A    between atoms: C_18  and  C_20 
REMARK   11  A    between atoms: C_23  and  O_24 
REMARK   12  A    between atoms: C_31  and  O_32 
ROOT
HETATM    1  C   UNK N   1      39.500  45.478  46.401  0.00  0.00     0.301 C 
HETATM    2  O   UNK N   1      40.325  45.932  47.468  0.00  0.00    -0.348 OA
HETATM    3  C   UNK N   1      41.652  46.194  47.033  0.00  0.00     0.180 C 
HETATM    4  C   UNK N   1      42.325  44.906  46.515  0.00  0.00     0.180 C 
HETATM    5  C   UNK N   1      41.505  44.379  45.326  0.00  0.00     0.183 C 
HETATM    6  C   UNK N   1      40.051  44.166  45.785  0.00  0.00     0.205 C 
ENDROOT
BRANCH   3   7
HETATM    7  C   UNK N   1      42.458  46.800  48.189  0.00  0.00     0.213 C 
BRANCH   7   8
HETATM    8  O   UNK N   1      41.816  46.534  49.381  0.00  0.00    -0.315 OA
BRANCH   8   9
HETATM    9  C   UNK N   1      42.430  45.992  50.466  0.00  0.00     0.293 C 
HETATM   10  O   UNK N   1      43.597  46.261  50.714  0.00  0.00    -0.259 OA
BRANCH   9  11
HETATM   11  C   UNK N   1      41.659  45.112  51.375  0.00  0.00     0.039 A 
HETATM   12  C   UNK N   1      41.870  45.154  52.765  0.00  0.00     0.020 A 
HETATM   13  C   UNK N   1      41.132  44.324  53.616  0.00  0.00     0.037 A 
HETATM   14  C   UNK N   1      40.182  43.439  53.086  0.00  0.00     0.065 A 
HETATM   15  C   UNK N   1      39.973  43.391  51.705  0.00  0.00     0.037 A 
HETATM   16  C   UNK N   1      40.703  44.224  50.852  0.00  0.00     0.020 A 
BRANCH  14  17
HETATM   17  O   UNK N   1      39.468  42.632  53.896  0.00  0.00    -0.361 OA
HETATM   18  H   UNK N   1      39.388  42.805  54.845  0.00  0.00     0.217 HD
ENDBRANCH  14  17
ENDBRANCH   9  11
ENDBRANCH   8   9
ENDBRANCH   7   8
ENDBRANCH   3   7
BRANCH   4  19
HETATM   19  O   UNK N   1      42.373  43.954  47.549  0.00  0.00    -0.390 OA
HETATM   20  H   UNK N   1      42.269  44.448  48.404  0.00  0.00     0.210 HD
ENDBRANCH   4  19
BRANCH   1  21
HETATM   21  O   UNK N   1      39.342  46.478  45.448  0.00  0.00    -0.283 OA
BRANCH  21  22
HETATM   22  C   UNK N   1      39.145  47.795  45.749  0.00  0.00     0.295 C 
HETATM   23  O   UNK N   1      38.921  48.138  46.901  0.00  0.00    -0.259 OA
BRANCH  22  24
HETATM   24  C   UNK N   1      39.217  48.819  44.677  0.00  0.00     0.039 A 
HETATM   25  C   UNK N   1      40.147  49.872  44.763  0.00  0.00     0.020 A 
HETATM   26  C   UNK N   1      40.218  50.835  43.752  0.00  0.00     0.037 A 
HETATM   27  C   UNK N   1      39.361  50.759  42.646  0.00  0.00     0.065 A 
HETATM   28  C   UNK N   1      38.432  49.716  42.558  0.00  0.00     0.037 A 
HETATM   29  C   UNK N   1      38.360  48.750  43.567  0.00  0.00     0.020 A 
BRANCH  27  30
HETATM   30  O   UNK N   1      39.423  51.681  41.664  0.00  0.00    -0.361 OA
HETATM   31  H   UNK N   1      39.296  51.443  40.734  0.00  0.00     0.217 HD
ENDBRANCH  27  30
ENDBRANCH  22  24
ENDBRANCH  21  22
ENDBRANCH   1  21
BRANCH   5  32
HETATM   32  O   UNK N   1      42.069  43.180  44.862  0.00  0.00    -0.390 OA
HETATM   33  H   UNK N   1      42.748  42.899  45.528  0.00  0.00     0.210 HD
ENDBRANCH   5  32
BRANCH   6  34
HETATM   34  O   UNK N   1      39.270  43.747  44.697  0.00  0.00    -0.388 OA
HETATM   35  H   UNK N   1      39.468  42.785  44.556  0.00  0.00     0.210 HD
ENDBRANCH   6  34
TORSDOF 12
ENDMDL
MODEL 6
REMARK VINA RESULT:      -7.0      2.401      6.884
REMARK  12 active torsions:
REMARK  status: ('A' for Active; 'I' for Inactive)
REMARK    1  A    between atoms: C_2  and  O_3 
REMARK    2  A    between atoms: C_2  and  C_28 
REMARK    3  A    between atoms: O_3  and  C_4 
REMARK    4  A    between atoms: C_6  and  C_16 
REMARK    5  A    between atoms: C_7  and  O_8 
REMARK    6  A    between atoms: C_10  and  O_11 
REMARK    7  A    between atoms: C_13  and  O_14 
REMARK    8  A    between atoms: C_16  and  O_17 
REMARK    9  A    between atoms: O_17  and  C_18 
REMARK   10  A    between atoms: C_18  and  C_20 
REMARK   11  A    between atoms: C_23  and  O_24 
REMARK   12  A    between atoms: C_31  and  O_32 
ROOT
HETATM    1  C   UNK N   1      42.515  45.419  50.447  0.00  0.00     0.301 C 
HETATM    2  O   UNK N   1      41.881  44.688  49.402  0.00  0.00    -0.348 OA
HETATM    3  C   UNK N   1      40.465  44.745  49.503  0.00  0.00     0.180 C 
HETATM    4  C   UNK N   1      39.981  44.090  50.814  0.00  0.00     0.180 C 
HETATM    5  C   UNK N   1      40.597  44.859  51.993  0.00  0.00     0.183 C 
HETATM    6  C   UNK N   1      42.128  44.856  51.839  0.00  0.00     0.205 C 
ENDROOT
BRANCH   3   7
HETATM    7  C   UNK N   1      39.837  44.053  48.287  0.00  0.00     0.213 C 
BRANCH   7   8
HETATM    8  O   UNK N   1      40.332  44.624  47.132  0.00  0.00    -0.315 OA
BRANCH   8   9
HETATM    9  C   UNK N   1      40.439  43.965  45.948  0.00  0.00     0.293 C 
HETATM   10  O   UNK N   1      39.514  43.978  45.148  0.00  0.00    -0.259 OA
BRANCH   9  11
HETATM   11  C   UNK N   1      41.705  43.274  45.611  0.00  0.00     0.039 A 
HETATM   12  C   UNK N   1      42.180  42.215  46.406  0.00  0.00     0.020 A 
HETATM   13  C   UNK N   1      43.373  41.565  46.074  0.00  0.00     0.037 A 
HETATM   14  C   UNK N   1      44.108  41.971  44.951  0.00  0.00     0.065 A 
HETATM   15  C   UNK N   1      43.642  43.026  44.160  0.00  0.00     0.037 A 
HETATM   16  C   UNK N   1      42.446  43.673  44.484  0.00  0.00     0.020 A 
BRANCH  14  17
HETATM   17  O   UNK N   1      45.262  41.353  44.624  0.00  0.00    -0.361 OA
HETATM   18  H   UNK N   1      45.864  41.718  43.960  0.00  0.00     0.217 HD
ENDBRANCH  14  17
ENDBRANCH   9  11
ENDBRANCH   8   9
ENDBRANCH   7   8
ENDBRANCH   3   7
BRANCH   4  19
HETATM   19  O   UNK N   1      40.377  42.740  50.837  0.00  0.00    -0.390 OA
HETATM   20  H   UNK N   1      40.001  42.341  51.665  0.00  0.00     0.210 HD
ENDBRANCH   4  19
BRANCH   1  21
HETATM   21  O   UNK N   1      42.231  46.775  50.333  0.00  0.00    -0.283 OA
BRANCH  21  22
HETATM   22  C   UNK N   1      42.686  47.568  49.319  0.00  0.00     0.295 C 
HETATM   23  O   UNK N   1      43.744  48.170  49.434  0.00  0.00    -0.259 OA
BRANCH  22  24
HETATM   24  C   UNK N   1      41.903  47.690  48.065  0.00  0.00     0.039 A 
HETATM   25  C   UNK N   1      42.501  47.405  46.823  0.00  0.00     0.020 A 
HETATM   26  C   UNK N   1      41.763  47.517  45.641  0.00  0.00     0.037 A 
HETATM   27  C   UNK N   1      40.420  47.916  45.685  0.00  0.00     0.065 A 
HETATM   28  C   UNK N   1      39.822  48.204  46.917  0.00  0.00     0.037 A 
HETATM   29  C   UNK N   1      40.557  48.091  48.101  0.00  0.00     0.020 A 
BRANCH  27  30
HETATM   30  O   UNK N   1      39.698  48.023  44.552  0.00  0.00    -0.361 OA
HETATM   31  H   UNK N   1      38.742  47.872  44.541  0.00  0.00     0.217 HD
ENDBRANCH  27  30
ENDBRANCH  22  24
ENDBRANCH  21  22
ENDBRANCH   1  21
BRANCH   5  32
HETATM   32  O   UNK N   1      40.209  44.256  53.201  0.00  0.00    -0.390 OA
HETATM   33  H   UNK N   1      39.670  43.457  52.968  0.00  0.00     0.210 HD
ENDBRANCH   5  32
BRANCH   6  34
HETATM   34  O   UNK N   1      42.708  45.610  52.871  0.00  0.00    -0.388 OA
HETATM   35  H   UNK N   1      43.488  45.093  53.200  0.00  0.00     0.210 HD
ENDBRANCH   6  34
TORSDOF 12
ENDMDL
MODEL 7
REMARK VINA RESULT:      -6.8      1.443      8.679
REMARK  12 active torsions:
REMARK  status: ('A' for Active; 'I' for Inactive)
REMARK    1  A    between atoms: C_2  and  O_3 
REMARK    2  A    between atoms: C_2  and  C_28 
REMARK    3  A    between atoms: O_3  and  C_4 
REMARK    4  A    between atoms: C_6  and  C_16 
REMARK    5  A    between atoms: C_7  and  O_8 
REMARK    6  A    between atoms: C_10  and  O_11 
REMARK    7  A    between atoms: C_13  and  O_14 
REMARK    8  A    between atoms: C_16  and  O_17 
REMARK    9  A    between atoms: O_17  and  C_18 
REMARK   10  A    between atoms: C_18  and  C_20 
REMARK   11  A    between atoms: C_23  and  O_24 
REMARK   12  A    between atoms: C_31  and  O_32 
ROOT
HETATM    1  C   UNK N   1      40.167  47.500  45.766  0.00  0.00     0.301 C 
HETATM    2  O   UNK N   1      39.643  46.191  45.968  0.00  0.00    -0.348 OA
HETATM    3  C   UNK N   1      39.881  45.727  47.290  0.00  0.00     0.180 C 
HETATM    4  C   UNK N   1      41.394  45.609  47.567  0.00  0.00     0.180 C 
HETATM    5  C   UNK N   1      42.023  47.002  47.406  0.00  0.00     0.183 C 
HETATM    6  C   UNK N   1      41.700  47.530  45.997  0.00  0.00     0.205 C 
ENDROOT
BRANCH   3   7
HETATM    7  C   UNK N   1      39.186  44.374  47.490  0.00  0.00     0.213 C 
BRANCH   7   8
HETATM    8  O   UNK N   1      39.196  44.050  48.831  0.00  0.00    -0.315 OA
BRANCH   8   9
HETATM    9  C   UNK N   1      40.261  43.495  49.467  0.00  0.00     0.293 C 
HETATM   10  O   UNK N   1      40.881  42.577  48.947  0.00  0.00    -0.259 OA
BRANCH   9  11
HETATM   11  C   UNK N   1      40.700  44.045  50.771  0.00  0.00     0.039 A 
HETATM   12  C   UNK N   1      40.133  43.584  51.972  0.00  0.00     0.020 A 
HETATM   13  C   UNK N   1      40.559  44.105  53.198  0.00  0.00     0.037 A 
HETATM   14  C   UNK N   1      41.549  45.098  53.236  0.00  0.00     0.065 A 
HETATM   15  C   UNK N   1      42.111  45.563  52.044  0.00  0.00     0.037 A 
HETATM   16  C   UNK N   1      41.694  45.039  50.817  0.00  0.00     0.020 A 
BRANCH  14  17
HETATM   17  O   UNK N   1      41.965  45.610  54.412  0.00  0.00    -0.361 OA
HETATM   18  H   UNK N   1      41.936  45.095  55.231  0.00  0.00     0.217 HD
ENDBRANCH  14  17
ENDBRANCH   9  11
ENDBRANCH   8   9
ENDBRANCH   7   8
ENDBRANCH   3   7
BRANCH   4  19
HETATM   19  O   UNK N   1      41.966  44.696  46.662  0.00  0.00    -0.390 OA
HETATM   20  H   UNK N   1      41.844  45.075  45.752  0.00  0.00     0.210 HD
ENDBRANCH   4  19
BRANCH   1  21
HETATM   21  O   UNK N   1      39.497  48.421  46.564  0.00  0.00    -0.283 OA
BRANCH  21  22
HETATM   22  C   UNK N   1      38.969  49.591  46.101  0.00  0.00     0.295 C 
HETATM   23  O   UNK N   1      38.601  50.454  46.884  0.00  0.00    -0.259 OA
BRANCH  22  24
HETATM   24  C   UNK N   1      38.852  49.825  44.641  0.00  0.00     0.039 A 
HETATM   25  C   UNK N   1      39.728  50.717  43.993  0.00  0.00     0.020 A 
HETATM   26  C   UNK N   1      39.621  50.936  42.616  0.00  0.00     0.037 A 
HETATM   27  C   UNK N   1      38.639  50.267  41.871  0.00  0.00     0.065 A 
HETATM   28  C   UNK N   1      37.764  49.382  42.512  0.00  0.00     0.037 A 
HETATM   29  C   UNK N   1      37.870  49.161  43.889  0.00  0.00     0.020 A 
BRANCH  27  30
HETATM   30  O   UNK N   1      38.530  50.468  40.543  0.00  0.00    -0.361 OA
HETATM   31  H   UNK N   1      39.300  50.678  39.994  0.00  0.00     0.217 HD
ENDBRANCH  27  30
ENDBRANCH  22  24
ENDBRANCH  21  22
ENDBRANCH   1  21
BRANCH   5  32
HETATM   32  O   UNK N   1      43.411  46.917  47.608  0.00  0.00    -0.390 OA
HETATM   33  H   UNK N   1      43.574  47.061  48.575  0.00  0.00     0.210 HD
ENDBRANCH   5  32
BRANCH   6  34
HETATM   34  O   UNK N   1      42.210  48.830  45.852  0.00  0.00    -0.388 OA
HETATM   35  H   UNK N   1      41.591  49.436  46.337  0.00  0.00     0.210 HD
ENDBRANCH   6  34
TORSDOF 12
ENDMDL
MODEL 8
REMARK VINA RESULT:      -6.7      3.345      9.150
REMARK  12 active torsions:
REMARK  status: ('A' for Active; 'I' for Inactive)
REMARK    1  A    between atoms: C_2  and  O_3 
REMARK    2  A    between atoms: C_2  and  C_28 
REMARK    3  A    between atoms: O_3  and  C_4 
REMARK    4  A    between atoms: C_6  and  C_16 
REMARK    5  A    between atoms: C_7  and  O_8 
REMARK    6  A    between atoms: C_10  and  O_11 
REMARK    7  A    between atoms: C_13  and  O_14 
REMARK    8  A    between atoms: C_16  and  O_17 
REMARK    9  A    between atoms: O_17  and  C_18 
REMARK   10  A    between atoms: C_18  and  C_20 
REMARK   11  A    between atoms: C_23  and  O_24 
REMARK   12  A    between atoms: C_31  and  O_32 
ROOT
HETATM    1  C   UNK N   1      37.729  49.218  43.197  0.00  0.00     0.301 C 
HETATM    2  O   UNK N   1      38.218  48.788  44.463  0.00  0.00    -0.348 OA
HETATM    3  C   UNK N   1      38.755  49.868  45.215  0.00  0.00     0.180 C 
HETATM    4  C   UNK N   1      39.971  50.486  44.495  0.00  0.00     0.180 C 
HETATM    5  C   UNK N   1      39.506  51.012  43.128  0.00  0.00     0.183 C 
HETATM    6  C   UNK N   1      38.860  49.854  42.347  0.00  0.00     0.205 C 
ENDROOT
BRANCH   3   7
HETATM    7  C   UNK N   1      39.146  49.373  46.613  0.00  0.00     0.213 C 
BRANCH   7   8
HETATM    8  O   UNK N   1      39.534  48.051  46.536  0.00  0.00    -0.315 OA
BRANCH   8   9
HETATM    9  C   UNK N   1      40.676  47.565  47.091  0.00  0.00     0.293 C 
HETATM   10  O   UNK N   1      41.331  48.255  47.860  0.00  0.00    -0.259 OA
BRANCH   9  11
HETATM   11  C   UNK N   1      41.092  46.173  46.801  0.00  0.00     0.039 A 
HETATM   12  C   UNK N   1      41.114  45.202  47.818  0.00  0.00     0.020 A 
HETATM   13  C   UNK N   1      41.502  43.889  47.531  0.00  0.00     0.037 A 
HETATM   14  C   UNK N   1      41.881  43.535  46.228  0.00  0.00     0.065 A 
HETATM   15  C   UNK N   1      41.865  44.498  45.215  0.00  0.00     0.037 A 
HETATM   16  C   UNK N   1      41.470  45.809  45.496  0.00  0.00     0.020 A 
BRANCH  14  17
HETATM   17  O   UNK N   1      42.260  42.273  45.942  0.00  0.00    -0.361 OA
HETATM   18  H   UNK N   1      41.722  41.510  46.193  0.00  0.00     0.217 HD
ENDBRANCH  14  17
ENDBRANCH   9  11
ENDBRANCH   8   9
ENDBRANCH   7   8
ENDBRANCH   3   7
BRANCH   4  19
HETATM   19  O   UNK N   1      40.971  49.508  44.339  0.00  0.00    -0.390 OA
HETATM   20  H   UNK N   1      41.844  49.979  44.367  0.00  0.00     0.210 HD
ENDBRANCH   4  19
BRANCH   1  21
HETATM   21  O   UNK N   1      36.647  50.076  43.358  0.00  0.00    -0.283 OA
BRANCH  21  22
HETATM   22  C   UNK N   1      35.343  49.685  43.273  0.00  0.00     0.295 C 
HETATM   23  O   UNK N   1      35.062  48.534  42.974  0.00  0.00    -0.259 OA
BRANCH  22  24
HETATM   24  C   UNK N   1      34.258  50.657  43.559  0.00  0.00     0.039 A 
HETATM   25  C   UNK N   1      33.061  50.622  42.818  0.00  0.00     0.020 A 
HETATM   26  C   UNK N   1      32.037  51.535  43.088  0.00  0.00     0.037 A 
HETATM   27  C   UNK N   1      32.197  52.493  44.100  0.00  0.00     0.065 A 
HETATM   28  C   UNK N   1      33.386  52.533  44.836  0.00  0.00     0.037 A 
HETATM   29  C   UNK N   1      34.412  51.620  44.568  0.00  0.00     0.020 A 
BRANCH  27  30
HETATM   30  O   UNK N   1      31.215  53.375  44.371  0.00  0.00    -0.361 OA
HETATM   31  H   UNK N   1      30.773  53.397  45.233  0.00  0.00     0.217 HD
ENDBRANCH  27  30
ENDBRANCH  22  24
ENDBRANCH  21  22
ENDBRANCH   1  21
BRANCH   5  32
HETATM   32  O   UNK N   1      40.604  51.541  42.430  0.00  0.00    -0.390 OA
HETATM   33  H   UNK N   1      40.243  52.141  41.728  0.00  0.00     0.210 HD
ENDBRANCH   5  32
BRANCH   6  34
HETATM   34  O   UNK N   1      38.368  50.328  41.121  0.00  0.00    -0.388 OA
HETATM   35  H   UNK N   1      38.793  49.780  40.411  0.00  0.00     0.210 HD
ENDBRANCH   6  34
TORSDOF 12
ENDMDL
MODEL 9
REMARK VINA RESULT:      -6.6      1.293      1.634
REMARK  12 active torsions:
REMARK  status: ('A' for Active; 'I' for Inactive)
REMARK    1  A    between atoms: C_2  and  O_3 
REMARK    2  A    between atoms: C_2  and  C_28 
REMARK    3  A    between atoms: O_3  and  C_4 
REMARK    4  A    between atoms: C_6  and  C_16 
REMARK    5  A    between atoms: C_7  and  O_8 
REMARK    6  A    between atoms: C_10  and  O_11 
REMARK    7  A    between atoms: C_13  and  O_14 
REMARK    8  A    between atoms: C_16  and  O_17 
REMARK    9  A    between atoms: O_17  and  C_18 
REMARK   10  A    between atoms: C_18  and  C_20 
REMARK   11  A    between atoms: C_23  and  O_24 
REMARK   12  A    between atoms: C_31  and  O_32 
ROOT
HETATM    1  C   UNK N   1      41.973  44.377  47.626  0.00  0.00     0.301 C 
HETATM    2  O   UNK N   1      41.971  45.791  47.465  0.00  0.00    -0.348 OA
HETATM    3  C   UNK N   1      40.847  46.234  46.715  0.00  0.00     0.180 C 
HETATM    4  C   UNK N   1      40.881  45.658  45.284  0.00  0.00     0.180 C 
HETATM    5  C   UNK N   1      40.844  44.124  45.381  0.00  0.00     0.183 C 
HETATM    6  C   UNK N   1      42.021  43.656  46.254  0.00  0.00     0.205 C 
ENDROOT
BRANCH   3   7
HETATM    7  C   UNK N   1      40.827  47.767  46.682  0.00  0.00     0.213 C 
BRANCH   7   8
HETATM    8  O   UNK N   1      39.532  48.209  46.864  0.00  0.00    -0.315 OA
BRANCH   8   9
HETATM    9  C   UNK N   1      39.074  49.409  46.419  0.00  0.00     0.293 C 
HETATM   10  O   UNK N   1      38.739  50.276  47.215  0.00  0.00    -0.259 OA
BRANCH   9  11
HETATM   11  C   UNK N   1      39.033  49.679  44.963  0.00  0.00     0.039 A 
HETATM   12  C   UNK N   1      39.838  50.682  44.395  0.00  0.00     0.020 A 
HETATM   13  C   UNK N   1      39.797  50.925  43.018  0.00  0.00     0.037 A 
HETATM   14  C   UNK N   1      38.944  50.174  42.196  0.00  0.00     0.065 A 
HETATM   15  C   UNK N   1      38.138  49.179  42.757  0.00  0.00     0.037 A 
HETATM   16  C   UNK N   1      38.183  48.928  44.132  0.00  0.00     0.020 A 
BRANCH  14  17
HETATM   17  O   UNK N   1      38.893  50.401  40.868  0.00  0.00    -0.361 OA
HETATM   18  H   UNK N   1      39.563  50.933  40.416  0.00  0.00     0.217 HD
ENDBRANCH  14  17
ENDBRANCH   9  11
ENDBRANCH   8   9
ENDBRANCH   7   8
ENDBRANCH   3   7
BRANCH   4  19
HETATM   19  O   UNK N   1      42.051  46.088  44.633  0.00  0.00    -0.390 OA
HETATM   20  H   UNK N   1      42.066  47.080  44.688  0.00  0.00     0.210 HD
ENDBRANCH   4  19
BRANCH   1  21
HETATM   21  O   UNK N   1      40.886  43.973  48.393  0.00  0.00    -0.283 OA
BRANCH  21  22
HETATM   22  C   UNK N   1      40.990  43.252  49.547  0.00  0.00     0.295 C 
HETATM   23  O   UNK N   1      40.965  42.030  49.516  0.00  0.00    -0.259 OA
BRANCH  22  24
HETATM   24  C   UNK N   1      41.151  43.951  50.846  0.00  0.00     0.039 A 
HETATM   25  C   UNK N   1      42.062  45.017  50.971  0.00  0.00     0.020 A 
HETATM   26  C   UNK N   1      42.212  45.679  52.193  0.00  0.00     0.037 A 
HETATM   27  C   UNK N   1      41.455  45.282  53.305  0.00  0.00     0.065 A 
HETATM   28  C   UNK N   1      40.551  44.221  53.187  0.00  0.00     0.037 A 
HETATM   29  C   UNK N   1      40.399  43.558  51.965  0.00  0.00     0.020 A 
BRANCH  27  30
HETATM   30  O   UNK N   1      41.589  45.915  54.488  0.00  0.00    -0.361 OA
HETATM   31  H   UNK N   1      40.878  46.459  54.858  0.00  0.00     0.217 HD
ENDBRANCH  27  30
ENDBRANCH  22  24
ENDBRANCH  21  22
ENDBRANCH   1  21
BRANCH   5  32
HETATM   32  O   UNK N   1      40.919  43.571  44.092  0.00  0.00    -0.390 OA
HETATM   33  H   UNK N   1      40.296  42.800  44.069  0.00  0.00     0.210 HD
ENDBRANCH   5  32
BRANCH   6  34
HETATM   34  O   UNK N   1      41.967  42.262  46.410  0.00  0.00    -0.388 OA
HETATM   35  H   UNK N   1      41.648  41.890  45.548  0.00  0.00     0.210 HD
ENDBRANCH   6  34
TORSDOF 12
ENDMDL
