MODEL 1
REMARK VINA RESULT:      -7.4      0.000      0.000
REMARK  11 active torsions:
REMARK  status: ('A' for Active; 'I' for Inactive)
REMARK    1  A    between atoms: C_2  and  O_3 
REMARK    2  A    between atoms: C_2  and  C_20 
REMARK    3  A    between atoms: O_3  and  C_4 
REMARK    4  A    between atoms: C_4  and  C_5 
REMARK    5  A    between atoms: C_5  and  O_7 
REMARK    6  A    between atoms: C_10  and  O_11 
REMARK    7  A    between atoms: C_13  and  O_14 
REMARK    8  A    between atoms: C_16  and  O_17 
REMARK    9  A    between atoms: C_21  and  C_22 
REMARK   10  A    between atoms: C_24  and  O_25 
REMARK   11  A    between atoms: C_27  and  O_28 
ROOT
HETATM    1  C   UNK N   1      40.819  47.472  46.169  0.00  0.00     0.160 C 
HETATM    2  C   UNK N   1      41.751  46.291  45.785  0.00  0.00     0.084 C 
HETATM    3  C   UNK N   1      41.508  45.050  46.671  0.00  0.00     0.152 C 
HETATM    4  C   UNK N   1      40.035  44.590  46.569  0.00  0.00     0.175 C 
HETATM    5  C   UNK N   1      39.104  45.749  46.981  0.00  0.00     0.152 C 
HETATM    6  C   UNK N   1      39.340  46.984  46.083  0.00  0.00     0.084 C 
ENDROOT
BRANCH   1   7
HETATM    7  O   UNK N   1      41.136  47.866  47.462  0.00  0.00    -0.295 OA
BRANCH   7   8
HETATM    8  C   UNK N   1      42.326  47.690  48.099  0.00  0.00     0.284 C 
HETATM    9  O   UNK N   1      43.374  48.077  47.603  0.00  0.00    -0.260 OA
BRANCH   8  10
HETATM   10  C   UNK N   1      42.319  46.980  49.388  0.00  0.00     0.083 C 
HETATM   11  C   UNK N   1      41.396  46.049  49.700  0.00  0.00     0.017 C 
BRANCH  11  12
HETATM   12  C   UNK N   1      41.384  45.320  51.000  0.00  0.00    -0.033 A 
HETATM   13  C   UNK N   1      40.445  44.309  51.293  0.00  0.00     0.050 A 
HETATM   14  C   UNK N   1      40.451  43.656  52.529  0.00  0.00     0.099 A 
HETATM   15  C   UNK N   1      41.408  44.023  53.507  0.00  0.00     0.098 A 
HETATM   16  C   UNK N   1      42.345  45.019  53.211  0.00  0.00     0.040 A 
HETATM   17  C   UNK N   1      42.339  45.658  51.969  0.00  0.00     0.014 A 
BRANCH  14  18
HETATM   18  O   UNK N   1      39.530  42.689  52.739  0.00  0.00    -0.358 OA
HETATM   19  H   UNK N   1      39.634  41.967  53.370  0.00  0.00     0.218 HD
ENDBRANCH  14  18
BRANCH  15  20
HETATM   20  O   UNK N   1      41.451  43.444  54.728  0.00  0.00    -0.358 OA
HETATM   21  H   UNK N   1      42.265  43.199  55.181  0.00  0.00     0.218 HD
ENDBRANCH  15  20
ENDBRANCH  11  12
ENDBRANCH   8  10
ENDBRANCH   7   8
ENDBRANCH   1   7
BRANCH   1  22
HETATM   22  C   UNK N   1      41.094  48.635  45.223  0.00  0.00     0.176 C 
HETATM   23  O   UNK N   1      40.194  49.117  44.552  0.00  0.00    -0.648 OA
BRANCH  22  24
HETATM   24  O   UNK N   1      42.332  49.169  45.142  0.00  0.00    -0.774 OA
HETATM   25  H   UNK N   1      43.117  48.612  45.035  0.00  0.00     0.167 HD
ENDBRANCH  22  24
ENDBRANCH   1  22
BRANCH   3  26
HETATM   26  O   UNK N   1      42.375  44.021  46.268  0.00  0.00    -0.393 OA
HETATM   27  H   UNK N   1      42.625  44.209  45.326  0.00  0.00     0.210 HD
ENDBRANCH   3  26
BRANCH   5  28
HETATM   28  O   UNK N   1      37.757  45.350  46.949  0.00  0.00    -0.393 OA
HETATM   29  H   UNK N   1      37.201  46.153  46.779  0.00  0.00     0.210 HD
ENDBRANCH   5  28
BRANCH   4  30
HETATM   30  O   UNK N   1      39.735  44.186  45.255  0.00  0.00    -0.390 OA
HETATM   31  H   UNK N   1      40.569  44.271  44.726  0.00  0.00     0.210 HD
ENDBRANCH   4  30
TORSDOF 11
ENDMDL
MODEL 2
REMARK VINA RESULT:      -7.1      2.981      7.206
REMARK  11 active torsions:
REMARK  status: ('A' for Active; 'I' for Inactive)
REMARK    1  A    between atoms: C_2  and  O_3 
REMARK    2  A    between atoms: C_2  and  C_20 
REMARK    3  A    between atoms: O_3  and  C_4 
REMARK    4  A    between atoms: C_4  and  C_5 
REMARK    5  A    between atoms: C_5  and  O_7 
REMARK    6  A    between atoms: C_10  and  O_11 
REMARK    7  A    between atoms: C_13  and  O_14 
REMARK    8  A    between atoms: C_16  and  O_17 
REMARK    9  A    between atoms: C_21  and  C_22 
REMARK   10  A    between atoms: C_24  and  O_25 
REMARK   11  A    between atoms: C_27  and  O_28 
ROOT
HETATM    1  C   UNK N   1      41.464  44.731  47.303  0.00  0.00     0.160 C 
HETATM    2  C   UNK N   1      42.155  43.381  47.632  0.00  0.00     0.084 C 
HETATM    3  C   UNK N   1      41.972  42.347  46.500  0.00  0.00     0.152 C 
HETATM    4  C   UNK N   1      42.534  42.895  45.168  0.00  0.00     0.175 C 
HETATM    5  C   UNK N   1      41.828  44.221  44.818  0.00  0.00     0.152 C 
HETATM    6  C   UNK N   1      42.025  45.258  45.947  0.00  0.00     0.084 C 
ENDROOT
BRANCH   1   7
HETATM    7  O   UNK N   1      40.097  44.505  47.219  0.00  0.00    -0.295 OA
BRANCH   7   8
HETATM    8  C   UNK N   1      39.112  45.444  47.239  0.00  0.00     0.284 C 
HETATM    9  O   UNK N   1      38.291  45.481  48.144  0.00  0.00    -0.260 OA
BRANCH   8  10
HETATM   10  C   UNK N   1      39.040  46.391  46.116  0.00  0.00     0.083 C 
HETATM   11  C   UNK N   1      39.432  47.676  46.222  0.00  0.00     0.017 C 
BRANCH  11  12
HETATM   12  C   UNK N   1      39.369  48.642  45.089  0.00  0.00    -0.033 A 
HETATM   13  C   UNK N   1      38.474  48.487  44.009  0.00  0.00     0.050 A 
HETATM   14  C   UNK N   1      38.451  49.403  42.954  0.00  0.00     0.099 A 
HETATM   15  C   UNK N   1      39.349  50.500  42.964  0.00  0.00     0.098 A 
HETATM   16  C   UNK N   1      40.228  50.658  44.039  0.00  0.00     0.040 A 
HETATM   17  C   UNK N   1      40.235  49.744  45.096  0.00  0.00     0.014 A 
BRANCH  14  18
HETATM   18  O   UNK N   1      37.561  49.200  41.958  0.00  0.00    -0.358 OA
HETATM   19  H   UNK N   1      37.536  49.708  41.138  0.00  0.00     0.218 HD
ENDBRANCH  14  18
BRANCH  15  20
HETATM   20  O   UNK N   1      39.390  51.407  41.962  0.00  0.00    -0.358 OA
HETATM   21  H   UNK N   1      38.829  52.190  41.918  0.00  0.00     0.218 HD
ENDBRANCH  15  20
ENDBRANCH  11  12
ENDBRANCH   8  10
ENDBRANCH   7   8
ENDBRANCH   1   7
BRANCH   1  22
HETATM   22  C   UNK N   1      41.728  45.703  48.447  0.00  0.00     0.176 C 
HETATM   23  O   UNK N   1      42.552  46.598  48.326  0.00  0.00    -0.648 OA
BRANCH  22  24
HETATM   24  O   UNK N   1      41.028  45.606  49.599  0.00  0.00    -0.774 OA
HETATM   25  H   UNK N   1      41.255  44.951  50.274  0.00  0.00     0.167 HD
ENDBRANCH  22  24
ENDBRANCH   1  22
BRANCH   3  26
HETATM   26  O   UNK N   1      42.624  41.155  46.857  0.00  0.00    -0.393 OA
HETATM   27  H   UNK N   1      42.189  40.424  46.345  0.00  0.00     0.210 HD
ENDBRANCH   3  26
BRANCH   5  28
HETATM   28  O   UNK N   1      42.280  44.722  43.585  0.00  0.00    -0.393 OA
HETATM   29  H   UNK N   1      43.235  44.971  43.684  0.00  0.00     0.210 HD
ENDBRANCH   5  28
BRANCH   4  30
HETATM   30  O   UNK N   1      43.921  43.108  45.269  0.00  0.00    -0.390 OA
HETATM   31  H   UNK N   1      44.357  42.218  45.227  0.00  0.00     0.210 HD
ENDBRANCH   4  30
TORSDOF 11
ENDMDL
MODEL 3
REMARK VINA RESULT:      -6.9      2.397      7.121
REMARK  11 active torsions:
REMARK  status: ('A' for Active; 'I' for Inactive)
REMARK    1  A    between atoms: C_2  and  O_3 
REMARK    2  A    between atoms: C_2  and  C_20 
REMARK    3  A    between atoms: O_3  and  C_4 
REMARK    4  A    between atoms: C_4  and  C_5 
REMARK    5  A    between atoms: C_5  and  O_7 
REMARK    6  A    between atoms: C_10  and  O_11 
REMARK    7  A    between atoms: C_13  and  O_14 
REMARK    8  A    between atoms: C_16  and  O_17 
REMARK    9  A    between atoms: C_21  and  C_22 
REMARK   10  A    between atoms: C_24  and  O_25 
REMARK   11  A    between atoms: C_27  and  O_28 
ROOT
HETATM    1  C   UNK N   1      41.447  44.735  47.325  0.00  0.00     0.160 C 
HETATM    2  C   UNK N   1      41.874  43.779  48.471  0.00  0.00     0.084 C 
HETATM    3  C   UNK N   1      41.500  44.337  49.860  0.00  0.00     0.152 C 
HETATM    4  C   UNK N   1      39.977  44.591  49.951  0.00  0.00     0.175 C 
HETATM    5  C   UNK N   1      39.551  45.566  48.835  0.00  0.00     0.152 C 
HETATM    6  C   UNK N   1      39.915  44.998  47.445  0.00  0.00     0.084 C 
ENDROOT
BRANCH   1   7
HETATM    7  O   UNK N   1      42.164  45.916  47.462  0.00  0.00    -0.295 OA
BRANCH   7   8
HETATM    8  C   UNK N   1      41.673  47.183  47.383  0.00  0.00     0.284 C 
HETATM    9  O   UNK N   1      41.716  47.941  48.341  0.00  0.00    -0.260 OA
BRANCH   8  10
HETATM   10  C   UNK N   1      41.048  47.602  46.118  0.00  0.00     0.083 C 
HETATM   11  C   UNK N   1      40.182  48.631  46.042  0.00  0.00     0.017 C 
BRANCH  11  12
HETATM   12  C   UNK N   1      39.548  49.068  44.765  0.00  0.00    -0.033 A 
HETATM   13  C   UNK N   1      38.390  48.452  44.244  0.00  0.00     0.050 A 
HETATM   14  C   UNK N   1      37.830  48.875  43.035  0.00  0.00     0.099 A 
HETATM   15  C   UNK N   1      38.441  49.933  42.317  0.00  0.00     0.098 A 
HETATM   16  C   UNK N   1      39.582  50.549  42.839  0.00  0.00     0.040 A 
HETATM   17  C   UNK N   1      40.128  50.128  44.054  0.00  0.00     0.014 A 
BRANCH  14  18
HETATM   18  O   UNK N   1      36.714  48.248  42.601  0.00  0.00    -0.358 OA
HETATM   19  H   UNK N   1      35.816  48.540  42.796  0.00  0.00     0.218 HD
ENDBRANCH  14  18
BRANCH  15  20
HETATM   20  O   UNK N   1      37.960  50.372  41.132  0.00  0.00    -0.358 OA
HETATM   21  H   UNK N   1      38.404  51.023  40.577  0.00  0.00     0.218 HD
ENDBRANCH  15  20
ENDBRANCH  11  12
ENDBRANCH   8  10
ENDBRANCH   7   8
ENDBRANCH   1   7
BRANCH   1  22
HETATM   22  C   UNK N   1      41.815  44.092  45.993  0.00  0.00     0.176 C 
HETATM   23  O   UNK N   1      41.180  44.351  44.981  0.00  0.00    -0.648 OA
BRANCH  22  24
HETATM   24  O   UNK N   1      42.870  43.253  45.909  0.00  0.00    -0.774 OA
HETATM   25  H   UNK N   1      43.140  42.704  46.660  0.00  0.00     0.167 HD
ENDBRANCH  22  24
ENDBRANCH   1  22
BRANCH   3  26
HETATM   26  O   UNK N   1      41.907  43.424  50.847  0.00  0.00    -0.393 OA
HETATM   27  H   UNK N   1      41.586  43.778  51.717  0.00  0.00     0.210 HD
ENDBRANCH   3  26
BRANCH   5  28
HETATM   28  O   UNK N   1      38.179  45.860  48.919  0.00  0.00    -0.393 OA
HETATM   29  H   UNK N   1      37.960  46.046  49.869  0.00  0.00     0.210 HD
ENDBRANCH   5  28
BRANCH   4  30
HETATM   30  O   UNK N   1      39.267  43.383  49.821  0.00  0.00    -0.390 OA
HETATM   31  H   UNK N   1      38.469  43.449  50.406  0.00  0.00     0.210 HD
ENDBRANCH   4  30
TORSDOF 11
ENDMDL
MODEL 4
REMARK VINA RESULT:      -6.8      2.462      7.697
REMARK  11 active torsions:
REMARK  status: ('A' for Active; 'I' for Inactive)
REMARK    1  A    between atoms: C_2  and  O_3 
REMARK    2  A    between atoms: C_2  and  C_20 
REMARK    3  A    between atoms: O_3  and  C_4 
REMARK    4  A    between atoms: C_4  and  C_5 
REMARK    5  A    between atoms: C_5  and  O_7 
REMARK    6  A    between atoms: C_10  and  O_11 
REMARK    7  A    between atoms: C_13  and  O_14 
REMARK    8  A    between atoms: C_16  and  O_17 
REMARK    9  A    between atoms: C_21  and  C_22 
REMARK   10  A    between atoms: C_24  and  O_25 
REMARK   11  A    between atoms: C_27  and  O_28 
ROOT
HETATM    1  C   UNK N   1      40.741  45.320  47.494  0.00  0.00     0.160 C 
HETATM    2  C   UNK N   1      42.030  46.044  47.968  0.00  0.00     0.084 C 
HETATM    3  C   UNK N   1      41.903  46.561  49.417  0.00  0.00     0.152 C 
HETATM    4  C   UNK N   1      41.589  45.395  50.384  0.00  0.00     0.175 C 
HETATM    5  C   UNK N   1      40.291  44.692  49.937  0.00  0.00     0.152 C 
HETATM    6  C   UNK N   1      40.426  44.163  48.491  0.00  0.00     0.084 C 
ENDROOT
BRANCH   1   7
HETATM    7  O   UNK N   1      39.710  46.250  47.472  0.00  0.00    -0.295 OA
BRANCH   7   8
HETATM    8  C   UNK N   1      38.635  46.256  46.637  0.00  0.00     0.284 C 
HETATM    9  O   UNK N   1      37.746  45.424  46.741  0.00  0.00    -0.260 OA
BRANCH   8  10
HETATM   10  C   UNK N   1      38.594  47.274  45.575  0.00  0.00     0.083 C 
HETATM   11  C   UNK N   1      39.472  48.294  45.512  0.00  0.00     0.017 C 
BRANCH  11  12
HETATM   12  C   UNK N   1      39.444  49.327  44.437  0.00  0.00    -0.033 A 
HETATM   13  C   UNK N   1      38.723  49.153  43.238  0.00  0.00     0.050 A 
HETATM   14  C   UNK N   1      38.730  50.135  42.243  0.00  0.00     0.099 A 
HETATM   15  C   UNK N   1      39.482  51.320  42.439  0.00  0.00     0.098 A 
HETATM   16  C   UNK N   1      40.188  51.496  43.633  0.00  0.00     0.040 A 
HETATM   17  C   UNK N   1      40.165  50.514  44.627  0.00  0.00     0.014 A 
BRANCH  14  18
HETATM   18  O   UNK N   1      38.008  49.907  41.123  0.00  0.00    -0.358 OA
HETATM   19  H   UNK N   1      38.118  49.138  40.552  0.00  0.00     0.218 HD
ENDBRANCH  14  18
BRANCH  15  20
HETATM   20  O   UNK N   1      39.546  52.296  41.506  0.00  0.00    -0.358 OA
HETATM   21  H   UNK N   1      39.571  52.134  40.556  0.00  0.00     0.218 HD
ENDBRANCH  15  20
ENDBRANCH  11  12
ENDBRANCH   8  10
ENDBRANCH   7   8
ENDBRANCH   1   7
BRANCH   1  22
HETATM   22  C   UNK N   1      40.965  44.808  46.076  0.00  0.00     0.176 C 
HETATM   23  O   UNK N   1      41.902  45.218  45.407  0.00  0.00    -0.648 OA
BRANCH  22  24
HETATM   24  O   UNK N   1      40.148  43.867  45.554  0.00  0.00    -0.774 OA
HETATM   25  H   UNK N   1      39.630  44.036  44.753  0.00  0.00     0.167 HD
ENDBRANCH  22  24
ENDBRANCH   1  22
BRANCH   3  26
HETATM   26  O   UNK N   1      43.100  47.196  49.784  0.00  0.00    -0.393 OA
HETATM   27  H   UNK N   1      43.776  46.958  49.097  0.00  0.00     0.210 HD
ENDBRANCH   3  26
BRANCH   5  28
HETATM   28  O   UNK N   1      39.947  43.657  50.824  0.00  0.00    -0.393 OA
HETATM   29  H   UNK N   1      39.343  44.032  51.516  0.00  0.00     0.210 HD
ENDBRANCH   5  28
BRANCH   4  30
HETATM   30  O   UNK N   1      42.648  44.469  50.400  0.00  0.00    -0.390 OA
HETATM   31  H   UNK N   1      43.492  44.991  50.404  0.00  0.00     0.210 HD
ENDBRANCH   4  30
TORSDOF 11
ENDMDL
MODEL 5
REMARK VINA RESULT:      -6.7      2.343      7.395
REMARK  11 active torsions:
REMARK  status: ('A' for Active; 'I' for Inactive)
REMARK    1  A    between atoms: C_2  and  O_3 
REMARK    2  A    between atoms: C_2  and  C_20 
REMARK    3  A    between atoms: O_3  and  C_4 
REMARK    4  A    between atoms: C_4  and  C_5 
REMARK    5  A    between atoms: C_5  and  O_7 
REMARK    6  A    between atoms: C_10  and  O_11 
REMARK    7  A    between atoms: C_13  and  O_14 
REMARK    8  A    between atoms: C_16  and  O_17 
REMARK    9  A    between atoms: C_21  and  C_22 
REMARK   10  A    between atoms: C_24  and  O_25 
REMARK   11  A    between atoms: C_27  and  O_28 
ROOT
HETATM    1  C   UNK N   1      41.524  46.174  48.156  0.00  0.00     0.160 C 
HETATM    2  C   UNK N   1      41.923  45.196  49.294  0.00  0.00     0.084 C 
HETATM    3  C   UNK N   1      41.138  43.869  49.219  0.00  0.00     0.152 C 
HETATM    4  C   UNK N   1      41.365  43.181  47.853  0.00  0.00     0.175 C 
HETATM    5  C   UNK N   1      40.940  44.135  46.719  0.00  0.00     0.152 C 
HETATM    6  C   UNK N   1      41.738  45.456  46.789  0.00  0.00     0.084 C 
ENDROOT
BRANCH   1   7
HETATM    7  O   UNK N   1      40.190  46.516  48.333  0.00  0.00    -0.295 OA
BRANCH   7   8
HETATM    8  C   UNK N   1      39.252  46.669  47.359  0.00  0.00     0.284 C 
HETATM    9  O   UNK N   1      38.393  45.820  47.168  0.00  0.00    -0.260 OA
BRANCH   8  10
HETATM   10  C   UNK N   1      39.326  47.870  46.513  0.00  0.00     0.083 C 
HETATM   11  C   UNK N   1      39.339  47.811  45.167  0.00  0.00     0.017 C 
BRANCH  11  12
HETATM   12  C   UNK N   1      39.408  49.022  44.300  0.00  0.00    -0.033 A 
HETATM   13  C   UNK N   1      38.766  49.095  43.047  0.00  0.00     0.050 A 
HETATM   14  C   UNK N   1      38.864  50.240  42.251  0.00  0.00     0.099 A 
HETATM   15  C   UNK N   1      39.629  51.342  42.708  0.00  0.00     0.098 A 
HETATM   16  C   UNK N   1      40.257  51.272  43.956  0.00  0.00     0.040 A 
HETATM   17  C   UNK N   1      40.143  50.129  44.749  0.00  0.00     0.014 A 
BRANCH  14  18
HETATM   18  O   UNK N   1      38.215  50.246  41.066  0.00  0.00    -0.358 OA
HETATM   19  H   UNK N   1      38.337  50.915  40.382  0.00  0.00     0.218 HD
ENDBRANCH  14  18
BRANCH  15  20
HETATM   20  O   UNK N   1      39.780  52.468  41.975  0.00  0.00    -0.358 OA
HETATM   21  H   UNK N   1      40.408  52.560  41.250  0.00  0.00     0.218 HD
ENDBRANCH  15  20
ENDBRANCH  11  12
ENDBRANCH   8  10
ENDBRANCH   7   8
ENDBRANCH   1   7
BRANCH   1  22
HETATM   22  C   UNK N   1      42.372  47.435  48.280  0.00  0.00     0.176 C 
HETATM   23  O   UNK N   1      42.645  47.896  49.379  0.00  0.00    -0.648 OA
BRANCH  22  24
HETATM   24  O   UNK N   1      42.861  48.038  47.175  0.00  0.00    -0.774 OA
HETATM   25  H   UNK N   1      42.577  47.775  46.287  0.00  0.00     0.167 HD
ENDBRANCH  22  24
ENDBRANCH   1  22
BRANCH   3  26
HETATM   26  O   UNK N   1      41.550  43.031  50.268  0.00  0.00    -0.393 OA
HETATM   27  H   UNK N   1      41.841  42.176  49.856  0.00  0.00     0.210 HD
ENDBRANCH   3  26
BRANCH   5  28
HETATM   28  O   UNK N   1      41.086  43.522  45.462  0.00  0.00    -0.393 OA
HETATM   29  H   UNK N   1      41.977  43.766  45.101  0.00  0.00     0.210 HD
ENDBRANCH   5  28
BRANCH   4  30
HETATM   30  O   UNK N   1      42.719  42.832  47.696  0.00  0.00    -0.390 OA
HETATM   31  H   UNK N   1      42.754  42.081  47.050  0.00  0.00     0.210 HD
ENDBRANCH   4  30
TORSDOF 11
ENDMDL
MODEL 6
REMARK VINA RESULT:      -6.6      1.859      3.859
REMARK  11 active torsions:
REMARK  status: ('A' for Active; 'I' for Inactive)
REMARK    1  A    between atoms: C_2  and  O_3 
REMARK    2  A    between atoms: C_2  and  C_20 
REMARK    3  A    between atoms: O_3  and  C_4 
REMARK    4  A    between atoms: C_4  and  C_5 
REMARK    5  A    between atoms: C_5  and  O_7 
REMARK    6  A    between atoms: C_10  and  O_11 
REMARK    7  A    between atoms: C_13  and  O_14 
REMARK    8  A    between atoms: C_16  and  O_17 
REMARK    9  A    between atoms: C_21  and  C_22 
REMARK   10  A    between atoms: C_24  and  O_25 
REMARK   11  A    between atoms: C_27  and  O_28 
ROOT
HETATM    1  C   UNK N   1      40.194  47.734  46.011  0.00  0.00     0.160 C 
HETATM    2  C   UNK N   1      40.091  48.158  44.521  0.00  0.00     0.084 C 
HETATM    3  C   UNK N   1      38.781  48.920  44.227  0.00  0.00     0.152 C 
HETATM    4  C   UNK N   1      38.672  50.176  45.122  0.00  0.00     0.175 C 
HETATM    5  C   UNK N   1      38.741  49.759  46.605  0.00  0.00     0.152 C 
HETATM    6  C   UNK N   1      40.059  49.008  46.900  0.00  0.00     0.084 C 
ENDROOT
BRANCH   1   7
HETATM    7  O   UNK N   1      39.169  46.835  46.274  0.00  0.00    -0.295 OA
BRANCH   7   8
HETATM    8  C   UNK N   1      39.297  45.575  46.773  0.00  0.00     0.284 C 
HETATM    9  O   UNK N   1      39.174  44.594  46.055  0.00  0.00    -0.260 OA
BRANCH   8  10
HETATM   10  C   UNK N   1      39.547  45.428  48.216  0.00  0.00     0.083 C 
HETATM   11  C   UNK N   1      40.522  44.639  48.707  0.00  0.00     0.017 C 
BRANCH  11  12
HETATM   12  C   UNK N   1      40.788  44.488  50.166  0.00  0.00    -0.033 A 
HETATM   13  C   UNK N   1      41.698  45.312  50.861  0.00  0.00     0.050 A 
HETATM   14  C   UNK N   1      41.936  45.133  52.227  0.00  0.00     0.099 A 
HETATM   15  C   UNK N   1      41.259  44.100  52.922  0.00  0.00     0.098 A 
HETATM   16  C   UNK N   1      40.350  43.290  52.234  0.00  0.00     0.040 A 
HETATM   17  C   UNK N   1      40.109  43.484  50.872  0.00  0.00     0.014 A 
BRANCH  14  18
HETATM   18  O   UNK N   1      42.812  45.965  52.832  0.00  0.00    -0.358 OA
HETATM   19  H   UNK N   1      43.061  46.833  52.492  0.00  0.00     0.218 HD
ENDBRANCH  14  18
BRANCH  15  20
HETATM   20  O   UNK N   1      41.463  43.862  54.237  0.00  0.00    -0.358 OA
HETATM   21  H   UNK N   1      40.794  43.990  54.919  0.00  0.00     0.218 HD
ENDBRANCH  15  20
ENDBRANCH  11  12
ENDBRANCH   8  10
ENDBRANCH   7   8
ENDBRANCH   1   7
BRANCH   1  22
HETATM   22  C   UNK N   1      41.528  47.027  46.223  0.00  0.00     0.176 C 
HETATM   23  O   UNK N   1      42.264  47.350  47.144  0.00  0.00    -0.648 OA
BRANCH  22  24
HETATM   24  O   UNK N   1      41.897  46.010  45.414  0.00  0.00    -0.774 OA
HETATM   25  H   UNK N   1      42.168  46.166  44.498  0.00  0.00     0.167 HD
ENDBRANCH  22  24
ENDBRANCH   1  22
BRANCH   3  26
HETATM   26  O   UNK N   1      38.754  49.279  42.869  0.00  0.00    -0.393 OA
HETATM   27  H   UNK N   1      38.448  48.480  42.366  0.00  0.00     0.210 HD
ENDBRANCH   3  26
BRANCH   5  28
HETATM   28  O   UNK N   1      38.593  50.873  47.450  0.00  0.00    -0.393 OA
HETATM   29  H   UNK N   1      39.106  51.626  47.060  0.00  0.00     0.210 HD
ENDBRANCH   5  28
BRANCH   4  30
HETATM   30  O   UNK N   1      39.712  51.079  44.835  0.00  0.00    -0.390 OA
HETATM   31  H   UNK N   1      39.434  51.965  45.183  0.00  0.00     0.210 HD
ENDBRANCH   4  30
TORSDOF 11
ENDMDL
MODEL 7
REMARK VINA RESULT:      -6.3      2.404      7.570
REMARK  11 active torsions:
REMARK  status: ('A' for Active; 'I' for Inactive)
REMARK    1  A    between atoms: C_2  and  O_3 
REMARK    2  A    between atoms: C_2  and  C_20 
REMARK    3  A    between atoms: O_3  and  C_4 
REMARK    4  A    between atoms: C_4  and  C_5 
REMARK    5  A    between atoms: C_5  and  O_7 
REMARK    6  A    between atoms: C_10  and  O_11 
REMARK    7  A    between atoms: C_13  and  O_14 
REMARK    8  A    between atoms: C_16  and  O_17 
REMARK    9  A    between atoms: C_21  and  C_22 
REMARK   10  A    between atoms: C_24  and  O_25 
REMARK   11  A    between atoms: C_27  and  O_28 
ROOT
HETATM    1  C   UNK N   1      41.420  45.627  48.526  0.00  0.00     0.160 C 
HETATM    2  C   UNK N   1      42.258  45.862  49.812  0.00  0.00     0.084 C 
HETATM    3  C   UNK N   1      41.458  45.534  51.091  0.00  0.00     0.152 C 
HETATM    4  C   UNK N   1      40.969  44.068  51.064  0.00  0.00     0.175 C 
HETATM    5  C   UNK N   1      40.108  43.836  49.805  0.00  0.00     0.152 C 
HETATM    6  C   UNK N   1      40.915  44.152  48.526  0.00  0.00     0.084 C 
ENDROOT
BRANCH   1   7
HETATM    7  O   UNK N   1      40.353  46.515  48.541  0.00  0.00    -0.295 OA
BRANCH   7   8
HETATM    8  C   UNK N   1      39.415  46.679  47.568  0.00  0.00     0.284 C 
HETATM    9  O   UNK N   1      38.490  45.891  47.440  0.00  0.00    -0.260 OA
BRANCH   8  10
HETATM   10  C   UNK N   1      39.570  47.815  46.646  0.00  0.00     0.083 C 
HETATM   11  C   UNK N   1      39.054  47.816  45.401  0.00  0.00     0.017 C 
BRANCH  11  12
HETATM   12  C   UNK N   1      39.201  48.964  44.461  0.00  0.00    -0.033 A 
HETATM   13  C   UNK N   1      38.588  48.986  43.190  0.00  0.00     0.050 A 
HETATM   14  C   UNK N   1      38.759  50.071  42.326  0.00  0.00     0.099 A 
HETATM   15  C   UNK N   1      39.569  51.162  42.729  0.00  0.00     0.098 A 
HETATM   16  C   UNK N   1      40.168  51.143  43.993  0.00  0.00     0.040 A 
HETATM   17  C   UNK N   1      39.981  50.060  44.855  0.00  0.00     0.014 A 
BRANCH  14  18
HETATM   18  O   UNK N   1      38.134  50.032  41.128  0.00  0.00    -0.358 OA
HETATM   19  H   UNK N   1      37.858  49.221  40.685  0.00  0.00     0.218 HD
ENDBRANCH  14  18
BRANCH  15  20
HETATM   20  O   UNK N   1      39.791  52.230  41.930  0.00  0.00    -0.358 OA
HETATM   21  H   UNK N   1      39.331  52.385  41.097  0.00  0.00     0.218 HD
ENDBRANCH  15  20
ENDBRANCH  11  12
ENDBRANCH   8  10
ENDBRANCH   7   8
ENDBRANCH   1   7
BRANCH   1  22
HETATM   22  C   UNK N   1      42.293  45.933  47.315  0.00  0.00     0.176 C 
HETATM   23  O   UNK N   1      42.313  45.177  46.355  0.00  0.00    -0.648 OA
BRANCH  22  24
HETATM   24  O   UNK N   1      43.030  47.065  47.274  0.00  0.00    -0.774 OA
HETATM   25  H   UNK N   1      43.801  47.146  46.694  0.00  0.00     0.167 HD
ENDBRANCH  22  24
ENDBRANCH   1  22
BRANCH   3  26
HETATM   26  O   UNK N   1      42.273  45.761  52.213  0.00  0.00    -0.393 OA
HETATM   27  H   UNK N   1      41.975  45.128  52.918  0.00  0.00     0.210 HD
ENDBRANCH   3  26
BRANCH   5  28
HETATM   28  O   UNK N   1      39.603  42.524  49.774  0.00  0.00    -0.393 OA
HETATM   29  H   UNK N   1      38.894  42.450  50.464  0.00  0.00     0.210 HD
ENDBRANCH   5  28
BRANCH   4  30
HETATM   30  O   UNK N   1      42.063  43.183  51.060  0.00  0.00    -0.390 OA
HETATM   31  H   UNK N   1      42.718  43.532  50.402  0.00  0.00     0.210 HD
ENDBRANCH   4  30
TORSDOF 11
ENDMDL
MODEL 8
REMARK VINA RESULT:      -6.2      1.646      3.253
REMARK  11 active torsions:
REMARK  status: ('A' for Active; 'I' for Inactive)
REMARK    1  A    between atoms: C_2  and  O_3 
REMARK    2  A    between atoms: C_2  and  C_20 
REMARK    3  A    between atoms: O_3  and  C_4 
REMARK    4  A    between atoms: C_4  and  C_5 
REMARK    5  A    between atoms: C_5  and  O_7 
REMARK    6  A    between atoms: C_10  and  O_11 
REMARK    7  A    between atoms: C_13  and  O_14 
REMARK    8  A    between atoms: C_16  and  O_17 
REMARK    9  A    between atoms: C_21  and  C_22 
REMARK   10  A    between atoms: C_24  and  O_25 
REMARK   11  A    between atoms: C_27  and  O_28 
ROOT
HETATM    1  C   UNK N   1      41.234  45.597  46.506  0.00  0.00     0.160 C 
HETATM    2  C   UNK N   1      41.989  44.517  47.327  0.00  0.00     0.084 C 
HETATM    3  C   UNK N   1      41.918  43.127  46.659  0.00  0.00     0.152 C 
HETATM    4  C   UNK N   1      42.505  43.182  45.230  0.00  0.00     0.175 C 
HETATM    5  C   UNK N   1      41.738  44.230  44.398  0.00  0.00     0.152 C 
HETATM    6  C   UNK N   1      41.823  45.623  45.062  0.00  0.00     0.084 C 
ENDROOT
BRANCH   1   7
HETATM    7  O   UNK N   1      39.888  45.258  46.486  0.00  0.00    -0.295 OA
BRANCH   7   8
HETATM    8  C   UNK N   1      39.014  45.327  47.527  0.00  0.00     0.284 C 
HETATM    9  O   UNK N   1      37.814  45.461  47.340  0.00  0.00    -0.260 OA
BRANCH   8  10
HETATM   10  C   UNK N   1      39.563  45.276  48.892  0.00  0.00     0.083 C 
HETATM   11  C   UNK N   1      39.734  44.120  49.563  0.00  0.00     0.017 C 
BRANCH  11  12
HETATM   12  C   UNK N   1      40.295  44.056  50.943  0.00  0.00    -0.033 A 
HETATM   13  C   UNK N   1      41.297  44.940  51.396  0.00  0.00     0.050 A 
HETATM   14  C   UNK N   1      41.813  44.843  52.691  0.00  0.00     0.099 A 
HETATM   15  C   UNK N   1      41.328  43.834  53.560  0.00  0.00     0.098 A 
HETATM   16  C   UNK N   1      40.328  42.965  53.113  0.00  0.00     0.040 A 
HETATM   17  C   UNK N   1      39.810  43.077  51.821  0.00  0.00     0.014 A 
BRANCH  14  18
HETATM   18  O   UNK N   1      42.763  45.730  53.063  0.00  0.00    -0.358 OA
HETATM   19  H   UNK N   1      42.830  46.630  52.723  0.00  0.00     0.218 HD
ENDBRANCH  14  18
BRANCH  15  20
HETATM   20  O   UNK N   1      41.803  43.675  54.816  0.00  0.00    -0.358 OA
HETATM   21  H   UNK N   1      42.484  43.038  55.060  0.00  0.00     0.218 HD
ENDBRANCH  15  20
ENDBRANCH  11  12
ENDBRANCH   8  10
ENDBRANCH   7   8
ENDBRANCH   1   7
BRANCH   1  22
HETATM   22  C   UNK N   1      41.389  46.939  47.211  0.00  0.00     0.176 C 
HETATM   23  O   UNK N   1      40.730  47.907  46.858  0.00  0.00    -0.648 OA
BRANCH  22  24
HETATM   24  O   UNK N   1      42.232  47.066  48.259  0.00  0.00    -0.774 OA
HETATM   25  H   UNK N   1      42.938  46.423  48.420  0.00  0.00     0.167 HD
ENDBRANCH  22  24
ENDBRANCH   1  22
BRANCH   3  26
HETATM   26  O   UNK N   1      42.623  42.202  47.447  0.00  0.00    -0.393 OA
HETATM   27  H   UNK N   1      43.470  42.003  46.968  0.00  0.00     0.210 HD
ENDBRANCH   3  26
BRANCH   5  28
HETATM   28  O   UNK N   1      42.214  44.270  43.075  0.00  0.00    -0.393 OA
HETATM   29  H   UNK N   1      43.191  44.104  43.094  0.00  0.00     0.210 HD
ENDBRANCH   5  28
BRANCH   4  30
HETATM   30  O   UNK N   1      43.871  43.516  45.271  0.00  0.00    -0.390 OA
HETATM   31  H   UNK N   1      44.374  42.673  45.413  0.00  0.00     0.210 HD
ENDBRANCH   4  30
TORSDOF 11
ENDMDL
MODEL 9
REMARK VINA RESULT:      -6.1     12.810     15.659
REMARK  11 active torsions:
REMARK  status: ('A' for Active; 'I' for Inactive)
REMARK    1  A    between atoms: C_2  and  O_3 
REMARK    2  A    between atoms: C_2  and  C_20 
REMARK    3  A    between atoms: O_3  and  C_4 
REMARK    4  A    between atoms: C_4  and  C_5 
REMARK    5  A    between atoms: C_5  and  O_7 
REMARK    6  A    between atoms: C_10  and  O_11 
REMARK    7  A    between atoms: C_13  and  O_14 
REMARK    8  A    between atoms: C_16  and  O_17 
REMARK    9  A    between atoms: C_21  and  C_22 
REMARK   10  A    between atoms: C_24  and  O_25 
REMARK   11  A    between atoms: C_27  and  O_28 
ROOT
HETATM    1  C   UNK N   1      32.695  42.497  59.440  0.00  0.00     0.160 C 
HETATM    2  C   UNK N   1      32.385  43.685  60.391  0.00  0.00     0.084 C 
HETATM    3  C   UNK N   1      30.946  43.622  60.946  0.00  0.00     0.152 C 
HETATM    4  C   UNK N   1      30.714  42.292  61.700  0.00  0.00     0.175 C 
HETATM    5  C   UNK N   1      30.988  41.107  60.752  0.00  0.00     0.152 C 
HETATM    6  C   UNK N   1      32.434  41.166  60.209  0.00  0.00     0.084 C 
ENDROOT
BRANCH   1   7
HETATM    7  O   UNK N   1      31.861  42.603  58.335  0.00  0.00    -0.295 OA
BRANCH   7   8
HETATM    8  C   UNK N   1      32.004  43.457  57.284  0.00  0.00     0.284 C 
HETATM    9  O   UNK N   1      32.351  43.053  56.183  0.00  0.00    -0.260 OA
BRANCH   8  10
HETATM   10  C   UNK N   1      31.768  44.889  57.523  0.00  0.00     0.083 C 
HETATM   11  C   UNK N   1      30.538  45.399  57.724  0.00  0.00     0.017 C 
BRANCH  11  12
HETATM   12  C   UNK N   1      30.289  46.848  57.973  0.00  0.00    -0.033 A 
HETATM   13  C   UNK N   1      30.580  47.842  57.015  0.00  0.00     0.050 A 
HETATM   14  C   UNK N   1      30.349  49.194  57.287  0.00  0.00     0.099 A 
HETATM   15  C   UNK N   1      29.823  49.572  58.547  0.00  0.00     0.098 A 
HETATM   16  C   UNK N   1      29.526  48.584  59.491  0.00  0.00     0.040 A 
HETATM   17  C   UNK N   1      29.748  47.235  59.207  0.00  0.00     0.014 A 
BRANCH  14  18
HETATM   18  O   UNK N   1      30.640  50.093  56.320  0.00  0.00    -0.358 OA
HETATM   19  H   UNK N   1      30.954  50.990  56.488  0.00  0.00     0.218 HD
ENDBRANCH  14  18
BRANCH  15  20
HETATM   20  O   UNK N   1      29.599  50.864  58.877  0.00  0.00    -0.358 OA
HETATM   21  H   UNK N   1      30.251  51.567  58.779  0.00  0.00     0.218 HD
ENDBRANCH  15  20
ENDBRANCH  11  12
ENDBRANCH   8  10
ENDBRANCH   7   8
ENDBRANCH   1   7
BRANCH   1  22
HETATM   22  C   UNK N   1      34.141  42.614  58.972  0.00  0.00     0.176 C 
HETATM   23  O   UNK N   1      34.742  43.674  59.068  0.00  0.00    -0.648 OA
BRANCH  22  24
HETATM   24  O   UNK N   1      34.786  41.535  58.477  0.00  0.00    -0.774 OA
HETATM   25  H   UNK N   1      35.714  41.360  58.691  0.00  0.00     0.167 HD
ENDBRANCH  22  24
ENDBRANCH   1  22
BRANCH   3  26
HETATM   26  O   UNK N   1      30.735  44.716  61.800  0.00  0.00    -0.393 OA
HETATM   27  H   UNK N   1      30.976  45.532  61.288  0.00  0.00     0.210 HD
ENDBRANCH   3  26
BRANCH   5  28
HETATM   28  O   UNK N   1      30.737  39.881  61.391  0.00  0.00    -0.393 OA
HETATM   29  H   UNK N   1      30.003  40.018  62.044  0.00  0.00     0.210 HD
ENDBRANCH   5  28
BRANCH   4  30
HETATM   30  O   UNK N   1      31.560  42.207  62.822  0.00  0.00    -0.390 OA
HETATM   31  H   UNK N   1      32.399  41.772  62.522  0.00  0.00     0.210 HD
ENDBRANCH   4  30
TORSDOF 11
ENDMDL
