MODEL 1
REMARK VINA RESULT:      -6.2      0.000      0.000
REMARK  9 active torsions:
REMARK  status: ('A' for Active; 'I' for Inactive)
REMARK    1  A    between atoms: C_2  and  O_3 
REMARK    2  A    between atoms: O_3  and  C_4 
REMARK    3  A    between atoms: C_5  and  O_6 
REMARK    4  A    between atoms: C_8  and  C_11 
REMARK    5  A    between atoms: C_13  and  O_14 
REMARK    6  A    between atoms: C_16  and  O_17 
REMARK    7  A    between atoms: C_23  and  C_24 
REMARK    8  A    between atoms: C_26  and  O_27 
REMARK    9  A    between atoms: C_29  and  O_30 
ROOT
HETATM    1  C   UNK N   1      40.735  45.318  47.383  0.00  0.00     0.157 C 
HETATM    2  C   UNK N   1      40.823  46.789  47.179  0.00  0.00     0.146 C 
HETATM    3  C   UNK N   1      41.167  46.901  45.684  0.00  0.00     0.194 C 
HETATM    4  O   UNK N   1      40.650  45.755  45.028  0.00  0.00    -0.375 OA
HETATM    5  C   UNK N   1      40.113  44.913  46.025  0.00  0.00     0.213 C 
HETATM    6  C   UNK N   1      39.399  47.203  47.618  0.00  0.00     0.213 C 
HETATM    7  O   UNK N   1      39.001  46.362  48.682  0.00  0.00    -0.375 OA
HETATM    8  C   UNK N   1      39.766  45.171  48.591  0.00  0.00     0.195 C 
ENDROOT
BRANCH   3   9
HETATM    9  C   UNK N   1      40.649  48.187  45.064  0.00  0.00    -0.024 A 
HETATM   10  C   UNK N   1      39.338  48.249  44.561  0.00  0.00     0.049 A 
HETATM   11  C   UNK N   1      38.832  49.440  44.004  0.00  0.00     0.101 A 
HETATM   12  C   UNK N   1      39.661  50.576  43.942  0.00  0.00     0.099 A 
HETATM   13  C   UNK N   1      40.968  50.514  44.442  0.00  0.00     0.040 A 
HETATM   14  C   UNK N   1      41.459  49.331  45.004  0.00  0.00     0.013 A 
BRANCH  11  15
HETATM   15  O   UNK N   1      37.558  49.520  43.528  0.00  0.00    -0.353 OA
HETATM   16  C   UNK N   1      37.087  48.870  42.404  0.00  0.00     0.210 C 
ENDBRANCH  11  15
BRANCH  12  17
HETATM   17  O   UNK N   1      39.216  51.734  43.410  0.00  0.00    -0.358 OA
HETATM   18  H   UNK N   1      39.793  52.335  42.917  0.00  0.00     0.218 HD
ENDBRANCH  12  17
ENDBRANCH   3   9
BRANCH   2  19
HETATM   19  O   UNK N   1      41.805  47.394  47.977  0.00  0.00    -0.381 OA
HETATM   20  H   UNK N   1      42.482  47.788  47.368  0.00  0.00     0.211 HD
ENDBRANCH   2  19
BRANCH   1  21
HETATM   21  O   UNK N   1      41.978  44.712  47.558  0.00  0.00    -0.302 OA
BRANCH  21  22
HETATM   22  C   UNK N   1      42.256  43.420  47.220  0.00  0.00     0.255 C 
HETATM   23  O   UNK N   1      42.089  42.512  48.022  0.00  0.00    -0.266 OA
HETATM   24  C   UNK N   1      42.804  43.109  45.865  0.00  0.00     0.126 C 
ENDBRANCH  21  22
ENDBRANCH   1  21
BRANCH   8  25
HETATM   25  C   UNK N   1      40.412  44.906  49.948  0.00  0.00    -0.024 A 
HETATM   26  C   UNK N   1      40.019  43.822  50.744  0.00  0.00     0.049 A 
HETATM   27  C   UNK N   1      40.612  43.584  51.997  0.00  0.00     0.101 A 
HETATM   28  C   UNK N   1      41.633  44.440  52.448  0.00  0.00     0.099 A 
HETATM   29  C   UNK N   1      42.042  45.514  51.651  0.00  0.00     0.040 A 
HETATM   30  C   UNK N   1      41.439  45.747  50.413  0.00  0.00     0.013 A 
BRANCH  27  31
HETATM   31  O   UNK N   1      40.216  42.543  52.783  0.00  0.00    -0.353 OA
HETATM   32  C   UNK N   1      39.082  42.536  53.574  0.00  0.00     0.210 C 
ENDBRANCH  27  31
BRANCH  28  33
HETATM   33  O   UNK N   1      42.232  44.243  53.641  0.00  0.00    -0.358 OA
HETATM   34  H   UNK N   1      43.132  44.549  53.824  0.00  0.00     0.218 HD
ENDBRANCH  28  33
ENDBRANCH   8  25
TORSDOF 9
ENDMDL
MODEL 2
REMARK VINA RESULT:      -5.8      1.090      8.066
REMARK  9 active torsions:
REMARK  status: ('A' for Active; 'I' for Inactive)
REMARK    1  A    between atoms: C_2  and  O_3 
REMARK    2  A    between atoms: O_3  and  C_4 
REMARK    3  A    between atoms: C_5  and  O_6 
REMARK    4  A    between atoms: C_8  and  C_11 
REMARK    5  A    between atoms: C_13  and  O_14 
REMARK    6  A    between atoms: C_16  and  O_17 
REMARK    7  A    between atoms: C_23  and  C_24 
REMARK    8  A    between atoms: C_26  and  O_27 
REMARK    9  A    between atoms: C_29  and  O_30 
ROOT
HETATM    1  C   UNK N   1      41.155  46.015  46.614  0.00  0.00     0.157 C 
HETATM    2  C   UNK N   1      40.645  46.059  48.012  0.00  0.00     0.146 C 
HETATM    3  C   UNK N   1      40.966  44.647  48.530  0.00  0.00     0.194 C 
HETATM    4  O   UNK N   1      42.086  44.159  47.810  0.00  0.00    -0.375 OA
HETATM    5  C   UNK N   1      42.401  45.125  46.829  0.00  0.00     0.213 C 
HETATM    6  C   UNK N   1      41.487  47.232  48.565  0.00  0.00     0.213 C 
HETATM    7  O   UNK N   1      41.657  48.182  47.532  0.00  0.00    -0.375 OA
HETATM    8  C   UNK N   1      41.487  47.502  46.298  0.00  0.00     0.195 C 
ENDROOT
BRANCH   3   9
HETATM    9  C   UNK N   1      41.204  44.619  50.030  0.00  0.00    -0.024 A 
HETATM   10  C   UNK N   1      40.637  43.601  50.815  0.00  0.00     0.049 A 
HETATM   11  C   UNK N   1      40.865  43.546  52.204  0.00  0.00     0.101 A 
HETATM   12  C   UNK N   1      41.664  44.535  52.809  0.00  0.00     0.099 A 
HETATM   13  C   UNK N   1      42.229  45.550  52.027  0.00  0.00     0.040 A 
HETATM   14  C   UNK N   1      42.006  45.591  50.647  0.00  0.00     0.013 A 
BRANCH  11  15
HETATM   15  O   UNK N   1      40.337  42.555  52.975  0.00  0.00    -0.353 OA
HETATM   16  C   UNK N   1      39.050  42.541  53.478  0.00  0.00     0.210 C 
ENDBRANCH  11  15
BRANCH  12  17
HETATM   17  O   UNK N   1      41.902  44.520  54.138  0.00  0.00    -0.358 OA
HETATM   18  H   UNK N   1      42.465  43.854  54.557  0.00  0.00     0.218 HD
ENDBRANCH  12  17
ENDBRANCH   3   9
BRANCH   2  19
HETATM   19  O   UNK N   1      39.271  46.331  48.084  0.00  0.00    -0.381 OA
HETATM   20  H   UNK N   1      38.817  45.742  47.428  0.00  0.00     0.211 HD
ENDBRANCH   2  19
BRANCH   1  21
HETATM   21  O   UNK N   1      40.265  45.417  45.723  0.00  0.00    -0.302 OA
BRANCH  21  22
HETATM   22  C   UNK N   1      40.569  44.339  44.945  0.00  0.00     0.255 C 
HETATM   23  O   UNK N   1      39.805  43.387  44.866  0.00  0.00    -0.266 OA
HETATM   24  C   UNK N   1      41.867  44.299  44.206  0.00  0.00     0.126 C 
ENDBRANCH  21  22
ENDBRANCH   1  21
BRANCH   8  25
HETATM   25  C   UNK N   1      40.461  48.263  45.464  0.00  0.00    -0.024 A 
HETATM   26  C   UNK N   1      40.732  49.542  44.960  0.00  0.00     0.049 A 
HETATM   27  C   UNK N   1      39.782  50.244  44.198  0.00  0.00     0.101 A 
HETATM   28  C   UNK N   1      38.543  49.638  43.918  0.00  0.00     0.099 A 
HETATM   29  C   UNK N   1      38.272  48.354  44.403  0.00  0.00     0.040 A 
HETATM   30  C   UNK N   1      39.219  47.671  45.169  0.00  0.00     0.013 A 
BRANCH  27  31
HETATM   31  O   UNK N   1      40.035  51.497  43.725  0.00  0.00    -0.353 OA
HETATM   32  C   UNK N   1      40.000  51.861  42.392  0.00  0.00     0.210 C 
ENDBRANCH  27  31
BRANCH  28  33
HETATM   33  O   UNK N   1      37.606  50.274  43.184  0.00  0.00    -0.358 OA
HETATM   34  H   UNK N   1      37.214  49.878  42.392  0.00  0.00     0.218 HD
ENDBRANCH  28  33
ENDBRANCH   8  25
TORSDOF 9
ENDMDL
MODEL 3
REMARK VINA RESULT:      -5.4      1.156      7.820
REMARK  9 active torsions:
REMARK  status: ('A' for Active; 'I' for Inactive)
REMARK    1  A    between atoms: C_2  and  O_3 
REMARK    2  A    between atoms: O_3  and  C_4 
REMARK    3  A    between atoms: C_5  and  O_6 
REMARK    4  A    between atoms: C_8  and  C_11 
REMARK    5  A    between atoms: C_13  and  O_14 
REMARK    6  A    between atoms: C_16  and  O_17 
REMARK    7  A    between atoms: C_23  and  C_24 
REMARK    8  A    between atoms: C_26  and  O_27 
REMARK    9  A    between atoms: C_29  and  O_30 
ROOT
HETATM    1  C   UNK N   1      41.416  46.406  46.449  0.00  0.00     0.157 C 
HETATM    2  C   UNK N   1      40.753  46.347  47.780  0.00  0.00     0.146 C 
HETATM    3  C   UNK N   1      41.176  44.964  48.304  0.00  0.00     0.194 C 
HETATM    4  O   UNK N   1      42.419  44.631  47.708  0.00  0.00    -0.375 OA
HETATM    5  C   UNK N   1      42.726  45.656  46.788  0.00  0.00     0.213 C 
HETATM    6  C   UNK N   1      41.387  47.590  48.448  0.00  0.00     0.213 C 
HETATM    7  O   UNK N   1      41.559  48.586  47.459  0.00  0.00    -0.375 OA
HETATM    8  C   UNK N   1      41.607  47.931  46.202  0.00  0.00     0.195 C 
ENDROOT
BRANCH   3   9
HETATM    9  C   UNK N   1      41.248  44.916  49.821  0.00  0.00    -0.024 A 
HETATM   10  C   UNK N   1      40.262  44.231  50.552  0.00  0.00     0.049 A 
HETATM   11  C   UNK N   1      40.324  44.156  51.957  0.00  0.00     0.101 A 
HETATM   12  C   UNK N   1      41.385  44.789  52.633  0.00  0.00     0.099 A 
HETATM   13  C   UNK N   1      42.367  45.472  51.905  0.00  0.00     0.040 A 
HETATM   14  C   UNK N   1      42.304  45.533  50.509  0.00  0.00     0.013 A 
BRANCH  11  15
HETATM   15  O   UNK N   1      39.386  43.481  52.678  0.00  0.00    -0.353 OA
HETATM   16  C   UNK N   1      39.658  42.581  53.690  0.00  0.00     0.210 C 
ENDBRANCH  11  15
BRANCH  12  17
HETATM   17  O   UNK N   1      41.477  44.745  53.980  0.00  0.00    -0.358 OA
HETATM   18  H   UNK N   1      41.162  45.465  54.545  0.00  0.00     0.218 HD
ENDBRANCH  12  17
ENDBRANCH   3   9
BRANCH   2  19
HETATM   19  O   UNK N   1      39.357  46.460  47.701  0.00  0.00    -0.381 OA
HETATM   20  H   UNK N   1      38.970  45.775  48.306  0.00  0.00     0.211 HD
ENDBRANCH   2  19
BRANCH   1  21
HETATM   21  O   UNK N   1      40.707  45.740  45.452  0.00  0.00    -0.302 OA
BRANCH  21  22
HETATM   22  C   UNK N   1      41.223  44.739  44.683  0.00  0.00     0.255 C 
HETATM   23  O   UNK N   1      41.964  44.988  43.742  0.00  0.00    -0.266 OA
HETATM   24  C   UNK N   1      40.853  43.319  44.967  0.00  0.00     0.126 C 
ENDBRANCH  21  22
ENDBRANCH   1  21
BRANCH   8  25
HETATM   25  C   UNK N   1      40.599  48.597  45.271  0.00  0.00    -0.024 A 
HETATM   26  C   UNK N   1      39.399  47.963  44.920  0.00  0.00     0.049 A 
HETATM   27  C   UNK N   1      38.474  48.576  44.057  0.00  0.00     0.101 A 
HETATM   28  C   UNK N   1      38.751  49.860  43.554  0.00  0.00     0.099 A 
HETATM   29  C   UNK N   1      39.938  50.506  43.914  0.00  0.00     0.040 A 
HETATM   30  C   UNK N   1      40.855  49.883  44.763  0.00  0.00     0.013 A 
BRANCH  27  31
HETATM   31  O   UNK N   1      37.317  47.953  43.696  0.00  0.00    -0.353 OA
HETATM   32  C   UNK N   1      36.565  48.267  42.580  0.00  0.00     0.210 C 
ENDBRANCH  27  31
BRANCH  28  33
HETATM   33  O   UNK N   1      37.887  50.488  42.728  0.00  0.00    -0.358 OA
HETATM   34  H   UNK N   1      36.963  50.645  42.970  0.00  0.00     0.218 HD
ENDBRANCH  28  33
ENDBRANCH   8  25
TORSDOF 9
ENDMDL
MODEL 4
REMARK VINA RESULT:      -5.3     13.634     15.680
REMARK  9 active torsions:
REMARK  status: ('A' for Active; 'I' for Inactive)
REMARK    1  A    between atoms: C_2  and  O_3 
REMARK    2  A    between atoms: O_3  and  C_4 
REMARK    3  A    between atoms: C_5  and  O_6 
REMARK    4  A    between atoms: C_8  and  C_11 
REMARK    5  A    between atoms: C_13  and  O_14 
REMARK    6  A    between atoms: C_16  and  O_17 
REMARK    7  A    between atoms: C_23  and  C_24 
REMARK    8  A    between atoms: C_26  and  O_27 
REMARK    9  A    between atoms: C_29  and  O_30 
ROOT
HETATM    1  C   UNK N   1      29.495  44.338  59.215  0.00  0.00     0.157 C 
HETATM    2  C   UNK N   1      30.109  45.641  58.840  0.00  0.00     0.146 C 
HETATM    3  C   UNK N   1      28.980  46.331  58.056  0.00  0.00     0.194 C 
HETATM    4  O   UNK N   1      27.744  45.824  58.530  0.00  0.00    -0.375 OA
HETATM    5  C   UNK N   1      28.042  44.808  59.464  0.00  0.00     0.213 C 
HETATM    6  C   UNK N   1      30.443  46.190  60.247  0.00  0.00     0.213 C 
HETATM    7  O   UNK N   1      30.822  45.105  61.069  0.00  0.00    -0.375 OA
HETATM    8  C   UNK N   1      30.258  43.930  60.508  0.00  0.00     0.195 C 
ENDROOT
BRANCH   3   9
HETATM    9  C   UNK N   1      29.045  47.845  58.159  0.00  0.00    -0.024 A 
HETATM   10  C   UNK N   1      29.751  48.587  57.197  0.00  0.00     0.049 A 
HETATM   11  C   UNK N   1      29.803  49.994  57.262  0.00  0.00     0.101 A 
HETATM   12  C   UNK N   1      29.146  50.657  58.316  0.00  0.00     0.099 A 
HETATM   13  C   UNK N   1      28.443  49.918  59.275  0.00  0.00     0.040 A 
HETATM   14  C   UNK N   1      28.387  48.523  59.197  0.00  0.00     0.013 A 
BRANCH  11  15
HETATM   15  O   UNK N   1      30.469  50.728  56.327  0.00  0.00    -0.353 OA
HETATM   16  C   UNK N   1      30.140  50.792  54.987  0.00  0.00     0.210 C 
ENDBRANCH  11  15
BRANCH  12  17
HETATM   17  O   UNK N   1      29.177  52.004  58.417  0.00  0.00    -0.358 OA
HETATM   18  H   UNK N   1      29.529  52.457  59.197  0.00  0.00     0.218 HD
ENDBRANCH  12  17
ENDBRANCH   3   9
BRANCH   2  19
HETATM   19  O   UNK N   1      31.263  45.496  58.056  0.00  0.00    -0.381 OA
HETATM   20  H   UNK N   1      30.977  45.495  57.106  0.00  0.00     0.211 HD
ENDBRANCH   2  19
BRANCH   1  21
HETATM   21  O   UNK N   1      29.542  43.394  58.191  0.00  0.00    -0.302 OA
BRANCH  21  22
HETATM   22  C   UNK N   1      28.502  42.579  57.851  0.00  0.00     0.255 C 
HETATM   23  O   UNK N   1      28.181  41.640  58.566  0.00  0.00    -0.266 OA
HETATM   24  C   UNK N   1      27.764  42.811  56.572  0.00  0.00     0.126 C 
ENDBRANCH  21  22
ENDBRANCH   1  21
BRANCH   8  25
HETATM   25  C   UNK N   1      31.364  42.893  60.342  0.00  0.00    -0.024 A 
HETATM   26  C   UNK N   1      31.092  41.520  60.402  0.00  0.00     0.049 A 
HETATM   27  C   UNK N   1      32.115  40.566  60.256  0.00  0.00     0.101 A 
HETATM   28  C   UNK N   1      33.432  41.001  60.024  0.00  0.00     0.099 A 
HETATM   29  C   UNK N   1      33.708  42.371  59.945  0.00  0.00     0.040 A 
HETATM   30  C   UNK N   1      32.686  43.309  60.103  0.00  0.00     0.013 A 
BRANCH  27  31
HETATM   31  O   UNK N   1      31.857  39.230  60.335  0.00  0.00    -0.353 OA
HETATM   32  C   UNK N   1      30.805  38.590  59.708  0.00  0.00     0.210 C 
ENDBRANCH  27  31
BRANCH  28  33
HETATM   33  O   UNK N   1      34.442  40.119  59.870  0.00  0.00    -0.358 OA
HETATM   34  H   UNK N   1      34.568  39.369  60.469  0.00  0.00     0.218 HD
ENDBRANCH  28  33
ENDBRANCH   8  25
TORSDOF 9
ENDMDL
MODEL 5
REMARK VINA RESULT:      -5.2      1.804      3.119
REMARK  9 active torsions:
REMARK  status: ('A' for Active; 'I' for Inactive)
REMARK    1  A    between atoms: C_2  and  O_3 
REMARK    2  A    between atoms: O_3  and  C_4 
REMARK    3  A    between atoms: C_5  and  O_6 
REMARK    4  A    between atoms: C_8  and  C_11 
REMARK    5  A    between atoms: C_13  and  O_14 
REMARK    6  A    between atoms: C_16  and  O_17 
REMARK    7  A    between atoms: C_23  and  C_24 
REMARK    8  A    between atoms: C_26  and  O_27 
REMARK    9  A    between atoms: C_29  and  O_30 
ROOT
HETATM    1  C   UNK N   1      41.367  47.364  46.896  0.00  0.00     0.157 C 
HETATM    2  C   UNK N   1      40.101  47.751  46.216  0.00  0.00     0.146 C 
HETATM    3  C   UNK N   1      40.454  49.118  45.604  0.00  0.00     0.194 C 
HETATM    4  O   UNK N   1      41.851  49.144  45.367  0.00  0.00    -0.375 OA
HETATM    5  C   UNK N   1      42.383  47.942  45.883  0.00  0.00     0.213 C 
HETATM    6  C   UNK N   1      39.941  46.555  45.250  0.00  0.00     0.213 C 
HETATM    7  O   UNK N   1      40.411  45.391  45.902  0.00  0.00    -0.375 OA
HETATM    8  C   UNK N   1      41.310  45.809  46.917  0.00  0.00     0.195 C 
ENDROOT
BRANCH   3   9
HETATM    9  C   UNK N   1      39.662  49.409  44.341  0.00  0.00    -0.024 A 
HETATM   10  C   UNK N   1      38.526  48.642  44.029  0.00  0.00     0.049 A 
HETATM   11  C   UNK N   1      37.766  48.912  42.874  0.00  0.00     0.101 A 
HETATM   12  C   UNK N   1      38.162  49.959  42.019  0.00  0.00     0.099 A 
HETATM   13  C   UNK N   1      39.294  50.722  42.330  0.00  0.00     0.040 A 
HETATM   14  C   UNK N   1      40.037  50.455  43.484  0.00  0.00     0.013 A 
BRANCH  11  15
HETATM   15  O   UNK N   1      36.653  48.190  42.567  0.00  0.00    -0.353 OA
HETATM   16  C   UNK N   1      35.396  48.403  43.100  0.00  0.00     0.210 C 
ENDBRANCH  11  15
BRANCH  12  17
HETATM   17  O   UNK N   1      37.464  50.246  40.900  0.00  0.00    -0.358 OA
HETATM   18  H   UNK N   1      36.620  50.719  40.922  0.00  0.00     0.218 HD
ENDBRANCH  12  17
ENDBRANCH   3   9
BRANCH   2  19
HETATM   19  O   UNK N   1      39.015  47.851  47.099  0.00  0.00    -0.381 OA
HETATM   20  H   UNK N   1      39.352  47.641  48.008  0.00  0.00     0.211 HD
ENDBRANCH   2  19
BRANCH   1  21
HETATM   21  O   UNK N   1      41.522  47.956  48.148  0.00  0.00    -0.302 OA
BRANCH  21  22
HETATM   22  C   UNK N   1      42.718  48.088  48.790  0.00  0.00     0.255 C 
HETATM   23  O   UNK N   1      42.787  48.021  50.009  0.00  0.00    -0.266 OA
HETATM   24  C   UNK N   1      43.958  48.355  48.000  0.00  0.00     0.126 C 
ENDBRANCH  21  22
ENDBRANCH   1  21
BRANCH   8  25
HETATM   25  C   UNK N   1      40.888  45.164  48.233  0.00  0.00    -0.024 A 
HETATM   26  C   UNK N   1      41.742  45.145  49.345  0.00  0.00     0.049 A 
HETATM   27  C   UNK N   1      41.352  44.545  50.555  0.00  0.00     0.101 A 
HETATM   28  C   UNK N   1      40.071  43.971  50.656  0.00  0.00     0.099 A 
HETATM   29  C   UNK N   1      39.207  44.003  49.556  0.00  0.00     0.040 A 
HETATM   30  C   UNK N   1      39.609  44.592  48.356  0.00  0.00     0.013 A 
BRANCH  27  31
HETATM   31  O   UNK N   1      42.189  44.505  51.630  0.00  0.00    -0.353 OA
HETATM   32  C   UNK N   1      42.211  45.440  52.648  0.00  0.00     0.210 C 
ENDBRANCH  27  31
BRANCH  28  33
HETATM   33  O   UNK N   1      39.655  43.391  51.801  0.00  0.00    -0.358 OA
HETATM   34  H   UNK N   1      39.221  42.526  51.814  0.00  0.00     0.218 HD
ENDBRANCH  28  33
ENDBRANCH   8  25
TORSDOF 9
ENDMDL
MODEL 6
REMARK VINA RESULT:      -5.2     13.580     16.650
REMARK  9 active torsions:
REMARK  status: ('A' for Active; 'I' for Inactive)
REMARK    1  A    between atoms: C_2  and  O_3 
REMARK    2  A    between atoms: O_3  and  C_4 
REMARK    3  A    between atoms: C_5  and  O_6 
REMARK    4  A    between atoms: C_8  and  C_11 
REMARK    5  A    between atoms: C_13  and  O_14 
REMARK    6  A    between atoms: C_16  and  O_17 
REMARK    7  A    between atoms: C_23  and  C_24 
REMARK    8  A    between atoms: C_26  and  O_27 
REMARK    9  A    between atoms: C_29  and  O_30 
ROOT
HETATM    1  C   UNK N   1      28.676  40.805  55.730  0.00  0.00     0.157 C 
HETATM    2  C   UNK N   1      29.174  41.987  56.484  0.00  0.00     0.146 C 
HETATM    3  C   UNK N   1      29.011  41.544  57.948  0.00  0.00     0.194 C 
HETATM    4  O   UNK N   1      29.097  40.129  57.990  0.00  0.00    -0.375 OA
HETATM    5  C   UNK N   1      29.195  39.679  56.655  0.00  0.00     0.213 C 
HETATM    6  C   UNK N   1      30.611  42.075  55.919  0.00  0.00     0.213 C 
HETATM    7  O   UNK N   1      30.576  41.700  54.556  0.00  0.00    -0.375 OA
HETATM    8  C   UNK N   1      29.422  40.898  54.367  0.00  0.00     0.195 C 
ENDROOT
BRANCH   3   9
HETATM    9  C   UNK N   1      30.027  42.198  58.868  0.00  0.00    -0.024 A 
HETATM   10  C   UNK N   1      29.910  43.560  59.192  0.00  0.00     0.049 A 
HETATM   11  C   UNK N   1      30.830  44.179  60.062  0.00  0.00     0.101 A 
HETATM   12  C   UNK N   1      31.885  43.418  60.601  0.00  0.00     0.099 A 
HETATM   13  C   UNK N   1      32.002  42.061  60.277  0.00  0.00     0.040 A 
HETATM   14  C   UNK N   1      31.079  41.452  59.421  0.00  0.00     0.013 A 
BRANCH  11  15
HETATM   15  O   UNK N   1      30.719  45.494  60.400  0.00  0.00    -0.353 OA
HETATM   16  C   UNK N   1      30.005  46.439  59.689  0.00  0.00     0.210 C 
ENDBRANCH  11  15
BRANCH  12  17
HETATM   17  O   UNK N   1      32.790  43.975  61.434  0.00  0.00    -0.358 OA
HETATM   18  H   UNK N   1      33.269  43.460  62.099  0.00  0.00     0.218 HD
ENDBRANCH  12  17
ENDBRANCH   3   9
BRANCH   2  19
HETATM   19  O   UNK N   1      28.442  43.154  56.218  0.00  0.00    -0.381 OA
HETATM   20  H   UNK N   1      29.095  43.889  56.086  0.00  0.00     0.211 HD
ENDBRANCH   2  19
BRANCH   1  21
HETATM   21  O   UNK N   1      27.286  40.763  55.629  0.00  0.00    -0.302 OA
BRANCH  21  22
HETATM   22  C   UNK N   1      26.536  39.642  55.835  0.00  0.00     0.255 C 
HETATM   23  O   UNK N   1      26.544  38.725  55.026  0.00  0.00    -0.266 OA
HETATM   24  C   UNK N   1      25.665  39.545  57.045  0.00  0.00     0.126 C 
ENDBRANCH  21  22
ENDBRANCH   1  21
BRANCH   8  25
HETATM   25  C   UNK N   1      28.625  41.465  53.197  0.00  0.00    -0.024 A 
HETATM   26  C   UNK N   1      27.750  40.663  52.451  0.00  0.00     0.049 A 
HETATM   27  C   UNK N   1      27.022  41.187  51.368  0.00  0.00     0.101 A 
HETATM   28  C   UNK N   1      27.160  42.549  51.043  0.00  0.00     0.099 A 
HETATM   29  C   UNK N   1      28.018  43.360  51.794  0.00  0.00     0.040 A 
HETATM   30  C   UNK N   1      28.744  42.826  52.860  0.00  0.00     0.013 A 
BRANCH  27  31
HETATM   31  O   UNK N   1      26.187  40.404  50.628  0.00  0.00    -0.353 OA
HETATM   32  C   UNK N   1      24.907  40.041  51.001  0.00  0.00     0.210 C 
ENDBRANCH  27  31
BRANCH  28  33
HETATM   33  O   UNK N   1      26.474  43.094  50.016  0.00  0.00    -0.358 OA
HETATM   34  H   UNK N   1      26.247  42.590  49.221  0.00  0.00     0.218 HD
ENDBRANCH  28  33
ENDBRANCH   8  25
TORSDOF 9
ENDMDL
MODEL 7
REMARK VINA RESULT:      -5.0     13.351     16.687
REMARK  9 active torsions:
REMARK  status: ('A' for Active; 'I' for Inactive)
REMARK    1  A    between atoms: C_2  and  O_3 
REMARK    2  A    between atoms: O_3  and  C_4 
REMARK    3  A    between atoms: C_5  and  O_6 
REMARK    4  A    between atoms: C_8  and  C_11 
REMARK    5  A    between atoms: C_13  and  O_14 
REMARK    6  A    between atoms: C_16  and  O_17 
REMARK    7  A    between atoms: C_23  and  C_24 
REMARK    8  A    between atoms: C_26  and  O_27 
REMARK    9  A    between atoms: C_29  and  O_30 
ROOT
HETATM    1  C   UNK N   1      29.239  45.363  59.519  0.00  0.00     0.157 C 
HETATM    2  C   UNK N   1      29.490  44.690  58.215  0.00  0.00     0.146 C 
HETATM    3  C   UNK N   1      30.123  43.355  58.642  0.00  0.00     0.194 C 
HETATM    4  O   UNK N   1      29.645  43.039  59.939  0.00  0.00    -0.375 OA
HETATM    5  C   UNK N   1      28.857  44.128  60.368  0.00  0.00     0.213 C 
HETATM    6  C   UNK N   1      28.048  44.652  57.656  0.00  0.00     0.213 C 
HETATM    7  O   UNK N   1      27.383  45.832  58.061  0.00  0.00    -0.375 OA
HETATM    8  C   UNK N   1      28.048  46.317  59.217  0.00  0.00     0.195 C 
ENDROOT
BRANCH   3   9
HETATM    9  C   UNK N   1      29.845  42.239  57.651  0.00  0.00    -0.024 A 
HETATM   10  C   UNK N   1      30.214  42.384  56.303  0.00  0.00     0.049 A 
HETATM   11  C   UNK N   1      29.986  41.351  55.373  0.00  0.00     0.101 A 
HETATM   12  C   UNK N   1      29.367  40.162  55.806  0.00  0.00     0.099 A 
HETATM   13  C   UNK N   1      28.997  40.017  57.149  0.00  0.00     0.040 A 
HETATM   14  C   UNK N   1      29.238  41.044  58.067  0.00  0.00     0.013 A 
BRANCH  11  15
HETATM   15  O   UNK N   1      30.355  41.470  54.067  0.00  0.00    -0.353 OA
HETATM   16  C   UNK N   1      29.596  42.067  53.079  0.00  0.00     0.210 C 
ENDBRANCH  11  15
BRANCH  12  17
HETATM   17  O   UNK N   1      29.125  39.150  54.945  0.00  0.00    -0.358 OA
HETATM   18  H   UNK N   1      28.242  38.970  54.592  0.00  0.00     0.218 HD
ENDBRANCH  12  17
ENDBRANCH   3   9
BRANCH   2  19
HETATM   19  O   UNK N   1      30.348  45.420  57.380  0.00  0.00    -0.381 OA
HETATM   20  H   UNK N   1      29.952  45.416  56.470  0.00  0.00     0.211 HD
ENDBRANCH   2  19
BRANCH   1  21
HETATM   21  O   UNK N   1      30.369  45.992  60.038  0.00  0.00    -0.302 OA
BRANCH  21  22
HETATM   22  C   UNK N   1      30.741  45.938  61.350  0.00  0.00     0.255 C 
HETATM   23  O   UNK N   1      31.543  45.102  61.741  0.00  0.00    -0.266 OA
HETATM   24  C   UNK N   1      30.136  46.888  62.332  0.00  0.00     0.126 C 
ENDBRANCH  21  22
ENDBRANCH   1  21
BRANCH   8  25
HETATM   25  C   UNK N   1      28.396  47.785  58.994  0.00  0.00    -0.024 A 
HETATM   26  C   UNK N   1      28.862  48.246  57.755  0.00  0.00     0.049 A 
HETATM   27  C   UNK N   1      29.189  49.599  57.555  0.00  0.00     0.101 A 
HETATM   28  C   UNK N   1      29.022  50.510  58.614  0.00  0.00     0.099 A 
HETATM   29  C   UNK N   1      28.540  50.060  59.848  0.00  0.00     0.040 A 
HETATM   30  C   UNK N   1      28.229  48.712  60.039  0.00  0.00     0.013 A 
BRANCH  27  31
HETATM   31  O   UNK N   1      29.664  50.045  56.358  0.00  0.00    -0.353 OA
HETATM   32  C   UNK N   1      30.983  49.966  55.952  0.00  0.00     0.210 C 
ENDBRANCH  27  31
BRANCH  28  33
HETATM   33  O   UNK N   1      29.316  51.818  58.461  0.00  0.00    -0.358 OA
HETATM   34  H   UNK N   1      28.782  52.407  57.910  0.00  0.00     0.218 HD
ENDBRANCH  28  33
ENDBRANCH   8  25
TORSDOF 9
ENDMDL
MODEL 8
REMARK VINA RESULT:      -5.0      1.894      8.162
REMARK  9 active torsions:
REMARK  status: ('A' for Active; 'I' for Inactive)
REMARK    1  A    between atoms: C_2  and  O_3 
REMARK    2  A    between atoms: O_3  and  C_4 
REMARK    3  A    between atoms: C_5  and  O_6 
REMARK    4  A    between atoms: C_8  and  C_11 
REMARK    5  A    between atoms: C_13  and  O_14 
REMARK    6  A    between atoms: C_16  and  O_17 
REMARK    7  A    between atoms: C_23  and  C_24 
REMARK    8  A    between atoms: C_26  and  O_27 
REMARK    9  A    between atoms: C_29  and  O_30 
ROOT
HETATM    1  C   UNK N   1      41.114  48.218  46.813  0.00  0.00     0.157 C 
HETATM    2  C   UNK N   1      40.540  46.893  47.172  0.00  0.00     0.146 C 
HETATM    3  C   UNK N   1      41.654  46.264  48.025  0.00  0.00     0.194 C 
HETATM    4  O   UNK N   1      42.389  47.315  48.630  0.00  0.00    -0.375 OA
HETATM    5  C   UNK N   1      41.871  48.528  48.126  0.00  0.00     0.213 C 
HETATM    6  C   UNK N   1      39.254  47.350  47.899  0.00  0.00     0.213 C 
HETATM    7  O   UNK N   1      38.767  48.510  47.253  0.00  0.00    -0.375 OA
HETATM    8  C   UNK N   1      39.861  49.110  46.579  0.00  0.00     0.195 C 
ENDROOT
BRANCH   3   9
HETATM    9  C   UNK N   1      41.114  45.288  49.056  0.00  0.00    -0.024 A 
HETATM   10  C   UNK N   1      41.542  45.367  50.393  0.00  0.00     0.049 A 
HETATM   11  C   UNK N   1      41.035  44.485  51.368  0.00  0.00     0.101 A 
HETATM   12  C   UNK N   1      40.097  43.507  50.988  0.00  0.00     0.099 A 
HETATM   13  C   UNK N   1      39.672  43.427  49.656  0.00  0.00     0.040 A 
HETATM   14  C   UNK N   1      40.171  44.313  48.697  0.00  0.00     0.013 A 
BRANCH  11  15
HETATM   15  O   UNK N   1      41.426  44.561  52.671  0.00  0.00    -0.353 OA
HETATM   16  C   UNK N   1      41.957  45.683  53.276  0.00  0.00     0.210 C 
ENDBRANCH  11  15
BRANCH  12  17
HETATM   17  O   UNK N   1      39.592  42.639  51.892  0.00  0.00    -0.358 OA
HETATM   18  H   UNK N   1      39.258  41.766  51.642  0.00  0.00     0.218 HD
ENDBRANCH  12  17
ENDBRANCH   3   9
BRANCH   2  19
HETATM   19  O   UNK N   1      40.246  46.103  46.051  0.00  0.00    -0.381 OA
HETATM   20  H   UNK N   1      39.258  46.076  45.958  0.00  0.00     0.211 HD
ENDBRANCH   2  19
BRANCH   1  21
HETATM   21  O   UNK N   1      41.995  48.161  45.734  0.00  0.00    -0.302 OA
BRANCH  21  22
HETATM   22  C   UNK N   1      43.062  48.996  45.571  0.00  0.00     0.255 C 
HETATM   23  O   UNK N   1      43.098  49.794  44.645  0.00  0.00    -0.266 OA
HETATM   24  C   UNK N   1      44.219  48.914  46.513  0.00  0.00     0.126 C 
ENDBRANCH  21  22
ENDBRANCH   1  21
BRANCH   8  25
HETATM   25  C   UNK N   1      39.462  49.350  45.127  0.00  0.00    -0.024 A 
HETATM   26  C   UNK N   1      38.480  48.570  44.500  0.00  0.00     0.049 A 
HETATM   27  C   UNK N   1      38.119  48.788  43.159  0.00  0.00     0.101 A 
HETATM   28  C   UNK N   1      38.741  49.826  42.441  0.00  0.00     0.099 A 
HETATM   29  C   UNK N   1      39.709  50.620  43.065  0.00  0.00     0.040 A 
HETATM   30  C   UNK N   1      40.068  50.386  44.394  0.00  0.00     0.013 A 
BRANCH  27  31
HETATM   31  O   UNK N   1      37.181  48.017  42.541  0.00  0.00    -0.353 OA
HETATM   32  C   UNK N   1      35.878  47.856  42.976  0.00  0.00     0.210 C 
ENDBRANCH  27  31
BRANCH  28  33
HETATM   33  O   UNK N   1      38.418  50.074  41.154  0.00  0.00    -0.358 OA
HETATM   34  H   UNK N   1      37.506  50.034  40.833  0.00  0.00     0.218 HD
ENDBRANCH  28  33
ENDBRANCH   8  25
TORSDOF 9
ENDMDL
MODEL 9
REMARK VINA RESULT:      -4.9     13.529     16.183
REMARK  9 active torsions:
REMARK  status: ('A' for Active; 'I' for Inactive)
REMARK    1  A    between atoms: C_2  and  O_3 
REMARK    2  A    between atoms: O_3  and  C_4 
REMARK    3  A    between atoms: C_5  and  O_6 
REMARK    4  A    between atoms: C_8  and  C_11 
REMARK    5  A    between atoms: C_13  and  O_14 
REMARK    6  A    between atoms: C_16  and  O_17 
REMARK    7  A    between atoms: C_23  and  C_24 
REMARK    8  A    between atoms: C_26  and  O_27 
REMARK    9  A    between atoms: C_29  and  O_30 
ROOT
HETATM    1  C   UNK N   1      29.789  43.625  59.194  0.00  0.00     0.157 C 
HETATM    2  C   UNK N   1      29.552  43.524  57.728  0.00  0.00     0.146 C 
HETATM    3  C   UNK N   1      30.254  42.205  57.365  0.00  0.00     0.194 C 
HETATM    4  O   UNK N   1      30.246  41.373  58.513  0.00  0.00    -0.375 OA
HETATM    5  C   UNK N   1      29.687  42.127  59.568  0.00  0.00     0.213 C 
HETATM    6  C   UNK N   1      28.006  43.541  57.707  0.00  0.00     0.213 C 
HETATM    7  O   UNK N   1      27.558  44.401  58.736  0.00  0.00    -0.375 OA
HETATM    8  C   UNK N   1      28.595  44.485  59.700  0.00  0.00     0.195 C 
ENDROOT
BRANCH   3   9
HETATM    9  C   UNK N   1      29.617  41.519  56.168  0.00  0.00    -0.024 A 
HETATM   10  C   UNK N   1      29.758  42.070  54.883  0.00  0.00     0.049 A 
HETATM   11  C   UNK N   1      29.194  41.437  53.758  0.00  0.00     0.101 A 
HETATM   12  C   UNK N   1      28.471  40.242  53.933  0.00  0.00     0.099 A 
HETATM   13  C   UNK N   1      28.329  39.693  55.214  0.00  0.00     0.040 A 
HETATM   14  C   UNK N   1      28.901  40.323  56.324  0.00  0.00     0.013 A 
BRANCH  11  15
HETATM   15  O   UNK N   1      29.338  41.949  52.504  0.00  0.00    -0.353 OA
HETATM   16  C   UNK N   1      28.637  43.028  52.002  0.00  0.00     0.210 C 
ENDBRANCH  11  15
BRANCH  12  17
HETATM   17  O   UNK N   1      27.910  39.608  52.881  0.00  0.00    -0.358 OA
HETATM   18  H   UNK N   1      27.313  40.055  52.264  0.00  0.00     0.218 HD
ENDBRANCH  12  17
ENDBRANCH   3   9
BRANCH   2  19
HETATM   19  O   UNK N   1      30.090  44.604  57.012  0.00  0.00    -0.381 OA
HETATM   20  H   UNK N   1      30.751  44.235  56.371  0.00  0.00     0.211 HD
ENDBRANCH   2  19
BRANCH   1  21
HETATM   21  O   UNK N   1      31.047  44.132  59.514  0.00  0.00    -0.302 OA
BRANCH  21  22
HETATM   22  C   UNK N   1      31.832  43.653  60.521  0.00  0.00     0.255 C 
HETATM   23  O   UNK N   1      31.562  43.884  61.692  0.00  0.00    -0.266 OA
HETATM   24  C   UNK N   1      33.060  42.866  60.195  0.00  0.00     0.126 C 
ENDBRANCH  21  22
ENDBRANCH   1  21
BRANCH   8  25
HETATM   25  C   UNK N   1      28.888  45.958  59.967  0.00  0.00    -0.024 A 
HETATM   26  C   UNK N   1      28.863  46.907  58.936  0.00  0.00     0.049 A 
HETATM   27  C   UNK N   1      29.140  48.263  59.184  0.00  0.00     0.101 A 
HETATM   28  C   UNK N   1      29.426  48.677  60.498  0.00  0.00     0.099 A 
HETATM   29  C   UNK N   1      29.434  47.738  61.536  0.00  0.00     0.040 A 
HETATM   30  C   UNK N   1      29.169  46.392  61.275  0.00  0.00     0.013 A 
BRANCH  27  31
HETATM   31  O   UNK N   1      29.139  49.184  58.179  0.00  0.00    -0.353 OA
HETATM   32  C   UNK N   1      30.132  49.315  57.226  0.00  0.00     0.210 C 
ENDBRANCH  27  31
BRANCH  28  33
HETATM   33  O   UNK N   1      29.690  49.969  60.781  0.00  0.00    -0.358 OA
HETATM   34  H   UNK N   1      28.995  50.642  60.820  0.00  0.00     0.218 HD
ENDBRANCH  28  33
ENDBRANCH   8  25
TORSDOF 9
ENDMDL
