MODEL 1
REMARK VINA RESULT:      -5.6      0.000      0.000
REMARK  2 active torsions:
REMARK  status: ('A' for Active; 'I' for Inactive)
REMARK    1  A    between atoms: C_7  and  O_8 
REMARK    2  A    between atoms: C_11  and  O_12 
ROOT
HETATM    1  O   UNK N   1      41.662  42.721  52.759  0.00  0.00    -0.265 OA
HETATM    2  C   UNK N   1      41.815  43.442  51.788  0.00  0.00     0.263 C 
HETATM    3  O   UNK N   1      41.677  42.988  50.526  0.00  0.00    -0.311 OA
HETATM    4  C   UNK N   1      41.690  44.008  49.601  0.00  0.00     0.160 C 
HETATM    5  C   UNK N   1      40.234  44.278  49.237  0.00  0.00     0.011 C 
HETATM    6  C   UNK N   1      39.654  44.410  48.005  0.00  0.00    -0.057 C 
HETATM    7  C   UNK N   1      40.397  44.380  46.650  0.00  0.00     0.149 C 
HETATM    8  C   UNK N   1      41.567  45.382  46.540  0.00  0.00     0.072 C 
HETATM    9  C   UNK N   1      41.267  46.875  46.844  0.00  0.00     0.149 C 
HETATM   10  C   UNK N   1      42.498  47.545  47.451  0.00  0.00    -0.061 C 
HETATM   11  C   UNK N   1      43.214  46.928  48.659  0.00  0.00     0.036 C 
HETATM   12  C   UNK N   1      42.337  46.636  49.908  0.00  0.00     0.013 C 
HETATM   13  C   UNK N   1      42.405  45.161  50.394  0.00  0.00     0.032 C 
HETATM   14  C   UNK N   1      42.056  44.909  51.876  0.00  0.00     0.088 C 
HETATM   15  C   UNK N   1      40.842  45.660  52.442  0.00  0.00     0.021 C 
HETATM   16  C   UNK N   1      42.965  48.686  46.920  0.00  0.00     0.017 C 
HETATM   17  C   UNK N   1      38.150  44.622  47.972  0.00  0.00     0.046 C 
ENDROOT
BRANCH   7  18
HETATM   18  O   UNK N   1      39.510  44.645  45.592  0.00  0.00    -0.391 OA
HETATM   19  H   UNK N   1      38.715  45.096  45.978  0.00  0.00     0.210 HD
ENDBRANCH   7  18
BRANCH   9  20
HETATM   20  O   UNK N   1      40.207  47.021  47.745  0.00  0.00    -0.391 OA
HETATM   21  H   UNK N   1      39.376  47.098  47.204  0.00  0.00     0.210 HD
ENDBRANCH   9  20
TORSDOF 2
ENDMDL
MODEL 2
REMARK VINA RESULT:      -4.9     16.035     18.446
REMARK  2 active torsions:
REMARK  status: ('A' for Active; 'I' for Inactive)
REMARK    1  A    between atoms: C_7  and  O_8 
REMARK    2  A    between atoms: C_11  and  O_12 
ROOT
HETATM    1  O   UNK N   1      27.354  51.670  37.113  0.00  0.00    -0.265 OA
HETATM    2  C   UNK N   1      27.978  52.330  37.925  0.00  0.00     0.263 C 
HETATM    3  O   UNK N   1      28.572  53.496  37.602  0.00  0.00    -0.311 OA
HETATM    4  C   UNK N   1      29.040  54.168  38.709  0.00  0.00     0.160 C 
HETATM    5  C   UNK N   1      28.007  55.243  39.030  0.00  0.00     0.011 C 
HETATM    6  C   UNK N   1      28.188  56.574  39.291  0.00  0.00    -0.057 C 
HETATM    7  C   UNK N   1      29.550  57.298  39.389  0.00  0.00     0.149 C 
HETATM    8  C   UNK N   1      30.542  56.659  40.385  0.00  0.00     0.072 C 
HETATM    9  C   UNK N   1      30.056  56.437  41.842  0.00  0.00     0.149 C 
HETATM   10  C   UNK N   1      30.725  55.198  42.436  0.00  0.00    -0.061 C 
HETATM   11  C   UNK N   1      30.694  53.856  41.694  0.00  0.00     0.036 C 
HETATM   12  C   UNK N   1      29.292  53.323  41.287  0.00  0.00     0.013 C 
HETATM   13  C   UNK N   1      29.153  53.014  39.770  0.00  0.00     0.032 C 
HETATM   14  C   UNK N   1      28.064  51.993  39.374  0.00  0.00     0.088 C 
HETATM   15  C   UNK N   1      26.705  52.120  40.077  0.00  0.00     0.021 C 
HETATM   16  C   UNK N   1      31.353  55.283  43.619  0.00  0.00     0.017 C 
HETATM   17  C   UNK N   1      26.937  57.405  39.520  0.00  0.00     0.046 C 
ENDROOT
BRANCH   7  18
HETATM   18  O   UNK N   1      29.372  58.640  39.767  0.00  0.00    -0.391 OA
HETATM   19  H   UNK N   1      29.007  58.642  40.690  0.00  0.00     0.210 HD
ENDBRANCH   7  18
BRANCH   9  20
HETATM   20  O   UNK N   1      28.671  56.255  41.908  0.00  0.00    -0.391 OA
HETATM   21  H   UNK N   1      28.411  56.357  42.862  0.00  0.00     0.210 HD
ENDBRANCH   9  20
TORSDOF 2
ENDMDL
MODEL 3
REMARK VINA RESULT:      -4.9     16.139     18.593
REMARK  2 active torsions:
REMARK  status: ('A' for Active; 'I' for Inactive)
REMARK    1  A    between atoms: C_7  and  O_8 
REMARK    2  A    between atoms: C_11  and  O_12 
ROOT
HETATM    1  O   UNK N   1      25.595  51.292  40.223  0.00  0.00    -0.265 OA
HETATM    2  C   UNK N   1      26.164  52.369  40.180  0.00  0.00     0.263 C 
HETATM    3  O   UNK N   1      26.532  53.034  41.293  0.00  0.00    -0.311 OA
HETATM    4  C   UNK N   1      27.336  54.117  41.011  0.00  0.00     0.160 C 
HETATM    5  C   UNK N   1      28.769  53.673  41.285  0.00  0.00     0.011 C 
HETATM    6  C   UNK N   1      29.753  54.299  42.001  0.00  0.00    -0.057 C 
HETATM    7  C   UNK N   1      29.641  55.692  42.662  0.00  0.00     0.149 C 
HETATM    8  C   UNK N   1      29.202  56.820  41.703  0.00  0.00     0.072 C 
HETATM    9  C   UNK N   1      30.022  57.016  40.400  0.00  0.00     0.149 C 
HETATM   10  C   UNK N   1      29.115  57.526  39.281  0.00  0.00    -0.061 C 
HETATM   11  C   UNK N   1      27.806  56.804  38.939  0.00  0.00     0.036 C 
HETATM   12  C   UNK N   1      27.916  55.287  38.621  0.00  0.00     0.013 C 
HETATM   13  C   UNK N   1      26.999  54.392  39.502  0.00  0.00     0.032 C 
HETATM   14  C   UNK N   1      26.616  53.016  38.916  0.00  0.00     0.088 C 
HETATM   15  C   UNK N   1      27.732  52.219  38.226  0.00  0.00     0.021 C 
HETATM   16  C   UNK N   1      29.463  58.623  38.590  0.00  0.00     0.017 C 
HETATM   17  C   UNK N   1      31.075  53.564  42.140  0.00  0.00     0.046 C 
ENDROOT
BRANCH   7  18
HETATM   18  O   UNK N   1      30.870  56.071  43.231  0.00  0.00    -0.391 OA
HETATM   19  H   UNK N   1      31.250  56.790  42.662  0.00  0.00     0.210 HD
ENDBRANCH   7  18
BRANCH   9  20
HETATM   20  O   UNK N   1      30.611  55.823  39.969  0.00  0.00    -0.391 OA
HETATM   21  H   UNK N   1      29.878  55.159  39.866  0.00  0.00     0.210 HD
ENDBRANCH   9  20
TORSDOF 2
ENDMDL
MODEL 4
REMARK VINA RESULT:      -4.8     17.166     18.500
REMARK  2 active torsions:
REMARK  status: ('A' for Active; 'I' for Inactive)
REMARK    1  A    between atoms: C_7  and  O_8 
REMARK    2  A    between atoms: C_11  and  O_12 
ROOT
HETATM    1  O   UNK N   1      26.139  49.308  39.693  0.00  0.00    -0.265 OA
HETATM    2  C   UNK N   1      26.555  50.419  39.974  0.00  0.00     0.263 C 
HETATM    3  O   UNK N   1      27.870  50.713  39.991  0.00  0.00    -0.311 OA
HETATM    4  C   UNK N   1      28.101  52.064  40.130  0.00  0.00     0.160 C 
HETATM    5  C   UNK N   1      28.409  52.595  38.735  0.00  0.00     0.011 C 
HETATM    6  C   UNK N   1      29.431  53.402  38.316  0.00  0.00    -0.057 C 
HETATM    7  C   UNK N   1      30.510  54.036  39.223  0.00  0.00     0.149 C 
HETATM    8  C   UNK N   1      29.950  54.852  40.408  0.00  0.00     0.072 C 
HETATM    9  C   UNK N   1      28.928  55.976  40.088  0.00  0.00     0.149 C 
HETATM   10  C   UNK N   1      27.937  56.129  41.240  0.00  0.00    -0.061 C 
HETATM   11  C   UNK N   1      27.180  54.915  41.792  0.00  0.00     0.036 C 
HETATM   12  C   UNK N   1      26.375  54.074  40.762  0.00  0.00     0.013 C 
HETATM   13  C   UNK N   1      26.749  52.565  40.753  0.00  0.00     0.032 C 
HETATM   14  C   UNK N   1      25.673  51.595  40.218  0.00  0.00     0.088 C 
HETATM   15  C   UNK N   1      24.919  52.023  38.951  0.00  0.00     0.021 C 
HETATM   16  C   UNK N   1      27.726  57.339  41.782  0.00  0.00     0.017 C 
HETATM   17  C   UNK N   1      29.497  53.713  36.831  0.00  0.00     0.046 C 
ENDROOT
BRANCH   7  18
HETATM   18  O   UNK N   1      31.347  54.887  38.479  0.00  0.00    -0.391 OA
HETATM   19  H   UNK N   1      31.381  55.757  38.954  0.00  0.00     0.210 HD
ENDBRANCH   7  18
BRANCH   9  20
HETATM   20  O   UNK N   1      28.200  55.705  38.925  0.00  0.00    -0.391 OA
HETATM   21  H   UNK N   1      27.238  55.791  39.159  0.00  0.00     0.210 HD
ENDBRANCH   9  20
TORSDOF 2
ENDMDL
MODEL 5
REMARK VINA RESULT:      -4.6     15.476     17.402
REMARK  2 active torsions:
REMARK  status: ('A' for Active; 'I' for Inactive)
REMARK    1  A    between atoms: C_7  and  O_8 
REMARK    2  A    between atoms: C_11  and  O_12 
ROOT
HETATM    1  O   UNK N   1      31.913  52.254  43.541  0.00  0.00    -0.265 OA
HETATM    2  C   UNK N   1      31.447  53.049  42.744  0.00  0.00     0.263 C 
HETATM    3  O   UNK N   1      30.928  52.663  41.561  0.00  0.00    -0.311 OA
HETATM    4  C   UNK N   1      30.278  53.692  40.916  0.00  0.00     0.160 C 
HETATM    5  C   UNK N   1      28.790  53.494  41.180  0.00  0.00     0.011 C 
HETATM    6  C   UNK N   1      27.740  53.514  40.303  0.00  0.00    -0.057 C 
HETATM    7  C   UNK N   1      27.832  53.822  38.791  0.00  0.00     0.149 C 
HETATM    8  C   UNK N   1      28.530  55.157  38.453  0.00  0.00     0.072 C 
HETATM    9  C   UNK N   1      27.989  56.444  39.132  0.00  0.00     0.149 C 
HETATM   10  C   UNK N   1      29.128  57.437  39.357  0.00  0.00    -0.061 C 
HETATM   11  C   UNK N   1      30.418  57.008  40.066  0.00  0.00     0.036 C 
HETATM   12  C   UNK N   1      30.253  56.359  41.469  0.00  0.00     0.013 C 
HETATM   13  C   UNK N   1      30.915  54.958  41.595  0.00  0.00     0.032 C 
HETATM   14  C   UNK N   1      31.294  54.505  43.021  0.00  0.00     0.088 C 
HETATM   15  C   UNK N   1      30.270  54.776  44.132  0.00  0.00     0.021 C 
HETATM   16  C   UNK N   1      29.003  58.702  38.924  0.00  0.00     0.017 C 
HETATM   17  C   UNK N   1      26.362  53.222  40.873  0.00  0.00     0.046 C 
ENDROOT
BRANCH   7  18
HETATM   18  O   UNK N   1      26.551  53.853  38.212  0.00  0.00    -0.391 OA
HETATM   19  H   UNK N   1      26.347  52.935  37.897  0.00  0.00     0.210 HD
ENDBRANCH   7  18
BRANCH   9  20
HETATM   20  O   UNK N   1      27.402  56.172  40.372  0.00  0.00    -0.391 OA
HETATM   21  H   UNK N   1      27.209  57.049  40.799  0.00  0.00     0.210 HD
ENDBRANCH   9  20
TORSDOF 2
ENDMDL
MODEL 6
REMARK VINA RESULT:      -4.6     17.071     19.610
REMARK  2 active torsions:
REMARK  status: ('A' for Active; 'I' for Inactive)
REMARK    1  A    between atoms: C_7  and  O_8 
REMARK    2  A    between atoms: C_11  and  O_12 
ROOT
HETATM    1  O   UNK N   1      27.635  58.700  36.355  0.00  0.00    -0.265 OA
HETATM    2  C   UNK N   1      27.961  58.126  37.379  0.00  0.00     0.263 C 
HETATM    3  O   UNK N   1      27.059  57.699  38.284  0.00  0.00    -0.311 OA
HETATM    4  C   UNK N   1      27.628  56.902  39.253  0.00  0.00     0.160 C 
HETATM    5  C   UNK N   1      27.322  55.461  38.861  0.00  0.00     0.011 C 
HETATM    6  C   UNK N   1      26.824  54.438  39.622  0.00  0.00    -0.057 C 
HETATM    7  C   UNK N   1      26.512  54.507  41.133  0.00  0.00     0.149 C 
HETATM    8  C   UNK N   1      27.691  54.986  42.009  0.00  0.00     0.072 C 
HETATM    9  C   UNK N   1      29.040  54.230  41.872  0.00  0.00     0.149 C 
HETATM   10  C   UNK N   1      30.206  55.188  42.117  0.00  0.00    -0.061 C 
HETATM   11  C   UNK N   1      30.304  56.517  41.358  0.00  0.00     0.036 C 
HETATM   12  C   UNK N   1      30.254  56.433  39.807  0.00  0.00     0.013 C 
HETATM   13  C   UNK N   1      29.142  57.312  39.166  0.00  0.00     0.032 C 
HETATM   14  C   UNK N   1      29.363  57.733  37.697  0.00  0.00     0.088 C 
HETATM   15  C   UNK N   1      29.893  56.658  36.737  0.00  0.00     0.021 C 
HETATM   16  C   UNK N   1      31.155  54.867  43.010  0.00  0.00     0.017 C 
HETATM   17  C   UNK N   1      26.574  53.116  38.917  0.00  0.00     0.046 C 
ENDROOT
BRANCH   7  18
HETATM   18  O   UNK N   1      26.108  53.250  41.615  0.00  0.00    -0.391 OA
HETATM   19  H   UNK N   1      25.766  52.733  40.840  0.00  0.00     0.210 HD
ENDBRANCH   7  18
BRANCH   9  20
HETATM   20  O   UNK N   1      29.200  53.672  40.600  0.00  0.00    -0.391 OA
HETATM   21  H   UNK N   1      29.945  53.017  40.662  0.00  0.00     0.210 HD
ENDBRANCH   9  20
TORSDOF 2
ENDMDL
MODEL 7
REMARK VINA RESULT:      -4.5     14.805     17.023
REMARK  2 active torsions:
REMARK  status: ('A' for Active; 'I' for Inactive)
REMARK    1  A    between atoms: C_7  and  O_8 
REMARK    2  A    between atoms: C_11  and  O_12 
ROOT
HETATM    1  O   UNK N   1      33.394  55.247  43.754  0.00  0.00    -0.265 OA
HETATM    2  C   UNK N   1      32.306  55.293  43.207  0.00  0.00     0.263 C 
HETATM    3  O   UNK N   1      32.162  55.139  41.875  0.00  0.00    -0.311 OA
HETATM    4  C   UNK N   1      30.841  55.022  41.504  0.00  0.00     0.160 C 
HETATM    5  C   UNK N   1      30.580  53.533  41.302  0.00  0.00     0.011 C 
HETATM    6  C   UNK N   1      29.971  52.889  40.259  0.00  0.00    -0.057 C 
HETATM    7  C   UNK N   1      29.323  53.571  39.033  0.00  0.00     0.149 C 
HETATM    8  C   UNK N   1      28.268  54.644  39.380  0.00  0.00     0.072 C 
HETATM    9  C   UNK N   1      27.104  54.230  40.319  0.00  0.00     0.149 C 
HETATM   10  C   UNK N   1      26.657  55.425  41.160  0.00  0.00    -0.061 C 
HETATM   11  C   UNK N   1      27.674  56.246  41.964  0.00  0.00     0.036 C 
HETATM   12  C   UNK N   1      28.575  55.453  42.952  0.00  0.00     0.013 C 
HETATM   13  C   UNK N   1      30.098  55.670  42.727  0.00  0.00     0.032 C 
HETATM   14  C   UNK N   1      31.015  55.411  43.941  0.00  0.00     0.088 C 
HETATM   15  C   UNK N   1      30.715  54.164  44.785  0.00  0.00     0.021 C 
HETATM   16  C   UNK N   1      25.360  55.768  41.194  0.00  0.00     0.017 C 
HETATM   17  C   UNK N   1      29.913  51.373  40.327  0.00  0.00     0.046 C 
ENDROOT
BRANCH   7  18
HETATM   18  O   UNK N   1      28.703  52.618  38.206  0.00  0.00    -0.391 OA
HETATM   19  H   UNK N   1      28.629  51.777  38.727  0.00  0.00     0.210 HD
ENDBRANCH   7  18
BRANCH   9  20
HETATM   20  O   UNK N   1      27.477  53.203  41.192  0.00  0.00    -0.391 OA
HETATM   21  H   UNK N   1      27.104  53.433  42.085  0.00  0.00     0.210 HD
ENDBRANCH   9  20
TORSDOF 2
ENDMDL
MODEL 8
REMARK VINA RESULT:      -4.5     12.522     15.280
REMARK  2 active torsions:
REMARK  status: ('A' for Active; 'I' for Inactive)
REMARK    1  A    between atoms: C_7  and  O_8 
REMARK    2  A    between atoms: C_11  and  O_12 
ROOT
HETATM    1  O   UNK N   1      29.659  56.996  40.431  0.00  0.00    -0.265 OA
HETATM    2  C   UNK N   1      30.158  55.935  40.763  0.00  0.00     0.263 C 
HETATM    3  O   UNK N   1      31.366  55.861  41.357  0.00  0.00    -0.311 OA
HETATM    4  C   UNK N   1      31.639  54.595  41.827  0.00  0.00     0.160 C 
HETATM    5  C   UNK N   1      31.349  54.619  43.324  0.00  0.00     0.011 C 
HETATM    6  C   UNK N   1      32.113  54.170  44.366  0.00  0.00    -0.057 C 
HETATM    7  C   UNK N   1      33.471  53.444  44.242  0.00  0.00     0.149 C 
HETATM    8  C   UNK N   1      33.451  52.200  43.327  0.00  0.00     0.072 C 
HETATM    9  C   UNK N   1      32.392  51.105  43.627  0.00  0.00     0.149 C 
HETATM   10  C   UNK N   1      31.962  50.421  42.331  0.00  0.00    -0.061 C 
HETATM   11  C   UNK N   1      31.493  51.245  41.125  0.00  0.00     0.036 C 
HETATM   12  C   UNK N   1      30.333  52.247  41.381  0.00  0.00     0.013 C 
HETATM   13  C   UNK N   1      30.664  53.710  40.971  0.00  0.00     0.032 C 
HETATM   14  C   UNK N   1      29.459  54.623  40.656  0.00  0.00     0.088 C 
HETATM   15  C   UNK N   1      28.253  54.534  41.603  0.00  0.00     0.021 C 
HETATM   16  C   UNK N   1      31.998  49.082  42.240  0.00  0.00     0.017 C 
HETATM   17  C   UNK N   1      31.564  54.391  45.765  0.00  0.00     0.046 C 
ENDROOT
BRANCH   7  18
HETATM   18  O   UNK N   1      33.932  53.035  45.506  0.00  0.00    -0.391 OA
HETATM   19  H   UNK N   1      33.713  53.758  46.149  0.00  0.00     0.210 HD
ENDBRANCH   7  18
BRANCH   9  20
HETATM   20  O   UNK N   1      31.250  51.635  44.236  0.00  0.00    -0.391 OA
HETATM   21  H   UNK N   1      30.661  50.867  44.464  0.00  0.00     0.210 HD
ENDBRANCH   9  20
TORSDOF 2
ENDMDL
MODEL 9
REMARK VINA RESULT:      -4.5     13.375     15.761
REMARK  2 active torsions:
REMARK  status: ('A' for Active; 'I' for Inactive)
REMARK    1  A    between atoms: C_7  and  O_8 
REMARK    2  A    between atoms: C_11  and  O_12 
ROOT
HETATM    1  O   UNK N   1      46.632  47.576  60.336  0.00  0.00    -0.265 OA
HETATM    2  C   UNK N   1      46.217  48.666  60.690  0.00  0.00     0.263 C 
HETATM    3  O   UNK N   1      44.956  48.848  61.131  0.00  0.00    -0.311 OA
HETATM    4  C   UNK N   1      44.767  50.102  61.667  0.00  0.00     0.160 C 
HETATM    5  C   UNK N   1      44.848  49.941  63.182  0.00  0.00     0.011 C 
HETATM    6  C   UNK N   1      44.006  50.409  64.154  0.00  0.00    -0.057 C 
HETATM    7  C   UNK N   1      42.769  51.304  63.921  0.00  0.00     0.149 C 
HETATM    8  C   UNK N   1      43.054  52.595  63.123  0.00  0.00     0.072 C 
HETATM    9  C   UNK N   1      44.180  53.528  63.645  0.00  0.00     0.149 C 
HETATM   10  C   UNK N   1      44.856  54.240  62.475  0.00  0.00    -0.061 C 
HETATM   11  C   UNK N   1      45.387  53.449  61.273  0.00  0.00     0.036 C 
HETATM   12  C   UNK N   1      46.380  52.296  61.589  0.00  0.00     0.013 C 
HETATM   13  C   UNK N   1      45.944  50.917  61.019  0.00  0.00     0.032 C 
HETATM   14  C   UNK N   1      47.068  49.885  60.783  0.00  0.00     0.088 C 
HETATM   15  C   UNK N   1      48.137  49.760  61.878  0.00  0.00     0.021 C 
HETATM   16  C   UNK N   1      44.985  55.577  62.493  0.00  0.00     0.017 C 
HETATM   17  C   UNK N   1      44.332  50.027  65.587  0.00  0.00     0.046 C 
ENDROOT
BRANCH   7  18
HETATM   18  O   UNK N   1      42.191  51.680  65.146  0.00  0.00    -0.391 OA
HETATM   19  H   UNK N   1      41.225  51.458  65.098  0.00  0.00     0.210 HD
ENDBRANCH   7  18
BRANCH   9  20
HETATM   20  O   UNK N   1      45.161  52.821  64.346  0.00  0.00    -0.391 OA
HETATM   21  H   UNK N   1      45.075  51.867  64.081  0.00  0.00     0.210 HD
ENDBRANCH   9  20
TORSDOF 2
ENDMDL
