MODEL 1
REMARK VINA RESULT:      -5.9      0.000      0.000
REMARK  6 active torsions:
REMARK  status: ('A' for Active; 'I' for Inactive)
REMARK    1  A    between atoms: C_5  and  O_6 
REMARK    2  A    between atoms: C_8  and  O_9 
REMARK    3  A    between atoms: C_11  and  C_13 
REMARK    4  A    between atoms: C_13  and  C_14 
REMARK    5  A    between atoms: C_14  and  O_15 
REMARK    6  A    between atoms: O_15  and  C_16 
ROOT
HETATM    1  O   UNK N   1      27.337  42.382  58.723  0.00  0.00    -0.292 OA
HETATM    2  C   UNK N   1      28.519  42.697  58.725  0.00  0.00     0.160 C 
HETATM    3  C   UNK N   1      29.378  42.382  57.544  0.00  0.00     0.020 A 
HETATM    4  C   UNK N   1      30.683  42.946  57.409  0.00  0.00     0.000 A 
HETATM    5  C   UNK N   1      31.380  42.708  56.176  0.00  0.00     0.107 A 
HETATM    6  C   UNK N   1      30.843  41.849  55.199  0.00  0.00     0.106 A 
HETATM    7  C   UNK N   1      29.576  41.265  55.377  0.00  0.00    -0.015 A 
HETATM    8  C   UNK N   1      28.852  41.556  56.536  0.00  0.00     0.026 A 
HETATM    9  C   UNK N   1      31.236  43.848  58.560  0.00  0.00    -0.008 C 
HETATM   10  C   UNK N   1      30.582  43.458  59.954  0.00  0.00     0.013 C 
HETATM   11  C   UNK N   1      31.139  42.109  60.618  0.00  0.00    -0.043 C 
HETATM   12  C   UNK N   1      32.688  42.148  60.640  0.00  0.00     0.009 C 
HETATM   13  C   UNK N   1      33.286  42.437  59.269  0.00  0.00     0.002 C 
HETATM   14  C   UNK N   1      32.788  43.800  58.801  0.00  0.00     0.014 C 
HETATM   15  C   UNK N   1      30.683  40.799  59.928  0.00  0.00     0.015 C 
HETATM   16  C   UNK N   1      30.693  42.021  62.103  0.00  0.00     0.015 C 
HETATM   17  C   UNK N   1      29.042  43.507  59.870  0.00  0.00     0.090 C 
HETATM   18  C   UNK N   1      30.873  45.307  58.191  0.00  0.00     0.021 C 
ENDROOT
BRANCH   7  19
HETATM   19  C   UNK N   1      28.955  40.348  54.321  0.00  0.00     0.042 C 
HETATM   20  C   UNK N   1      28.748  38.925  54.858  0.00  0.00     0.017 C 
BRANCH  19  21
HETATM   21  C   UNK N   1      27.643  40.925  53.762  0.00  0.00     0.187 C 
BRANCH  21  22
HETATM   22  O   UNK N   1      27.794  41.179  52.414  0.00  0.00    -0.321 OA
BRANCH  22  23
HETATM   23  C   UNK N   1      28.408  42.282  51.923  0.00  0.00     0.254 C 
HETATM   24  O   UNK N   1      29.456  42.191  51.298  0.00  0.00    -0.266 OA
HETATM   25  C   UNK N   1      27.791  43.621  52.158  0.00  0.00     0.126 C 
ENDBRANCH  22  23
ENDBRANCH  21  22
ENDBRANCH  19  21
ENDBRANCH   7  19
BRANCH   6  26
HETATM   26  O   UNK N   1      31.537  41.603  54.067  0.00  0.00    -0.357 OA
HETATM   27  H   UNK N   1      31.188  41.078  53.333  0.00  0.00     0.218 HD
ENDBRANCH   6  26
BRANCH   5  28
HETATM   28  O   UNK N   1      32.541  43.316  55.863  0.00  0.00    -0.357 OA
HETATM   29  H   UNK N   1      32.604  43.979  55.170  0.00  0.00     0.218 HD
ENDBRANCH   5  28
TORSDOF 6
ENDMDL
MODEL 2
REMARK VINA RESULT:      -5.8     16.065     20.188
REMARK  6 active torsions:
REMARK  status: ('A' for Active; 'I' for Inactive)
REMARK    1  A    between atoms: C_5  and  O_6 
REMARK    2  A    between atoms: C_8  and  O_9 
REMARK    3  A    between atoms: C_11  and  C_13 
REMARK    4  A    between atoms: C_13  and  C_14 
REMARK    5  A    between atoms: C_14  and  O_15 
REMARK    6  A    between atoms: O_15  and  C_16 
ROOT
HETATM    1  O   UNK N   1      29.713  50.933  40.102  0.00  0.00    -0.292 OA
HETATM    2  C   UNK N   1      29.392  52.099  39.917  0.00  0.00     0.160 C 
HETATM    3  C   UNK N   1      29.934  53.172  40.802  0.00  0.00     0.020 A 
HETATM    4  C   UNK N   1      29.780  54.553  40.469  0.00  0.00     0.000 A 
HETATM    5  C   UNK N   1      30.457  55.510  41.296  0.00  0.00     0.107 A 
HETATM    6  C   UNK N   1      31.138  55.105  42.459  0.00  0.00     0.106 A 
HETATM    7  C   UNK N   1      31.235  53.742  42.794  0.00  0.00    -0.015 A 
HETATM    8  C   UNK N   1      30.651  52.794  41.951  0.00  0.00     0.026 A 
HETATM    9  C   UNK N   1      28.963  54.931  39.191  0.00  0.00    -0.008 C 
HETATM   10  C   UNK N   1      27.886  53.814  38.850  0.00  0.00     0.013 C 
HETATM   11  C   UNK N   1      26.588  53.806  39.790  0.00  0.00    -0.043 C 
HETATM   12  C   UNK N   1      26.002  55.239  39.871  0.00  0.00     0.009 C 
HETATM   13  C   UNK N   1      27.041  56.273  40.286  0.00  0.00     0.002 C 
HETATM   14  C   UNK N   1      28.158  56.279  39.249  0.00  0.00     0.014 C 
HETATM   15  C   UNK N   1      26.820  53.281  41.229  0.00  0.00     0.015 C 
HETATM   16  C   UNK N   1      25.475  52.925  39.159  0.00  0.00     0.015 C 
HETATM   17  C   UNK N   1      28.554  52.429  38.721  0.00  0.00     0.090 C 
HETATM   18  C   UNK N   1      29.985  55.055  38.034  0.00  0.00     0.021 C 
ENDROOT
BRANCH   7  19
HETATM   19  C   UNK N   1      31.992  53.269  44.037  0.00  0.00     0.042 C 
HETATM   20  C   UNK N   1      31.239  53.623  45.327  0.00  0.00     0.017 C 
BRANCH  19  21
HETATM   21  C   UNK N   1      32.310  51.765  43.976  0.00  0.00     0.187 C 
BRANCH  21  22
HETATM   22  O   UNK N   1      33.674  51.591  43.871  0.00  0.00    -0.321 OA
BRANCH  22  23
HETATM   23  C   UNK N   1      34.255  50.427  43.491  0.00  0.00     0.254 C 
HETATM   24  O   UNK N   1      35.450  50.376  43.234  0.00  0.00    -0.266 OA
HETATM   25  C   UNK N   1      33.414  49.199  43.383  0.00  0.00     0.126 C 
ENDBRANCH  22  23
ENDBRANCH  21  22
ENDBRANCH  19  21
ENDBRANCH   7  19
BRANCH   6  26
HETATM   26  O   UNK N   1      31.730  56.029  43.247  0.00  0.00    -0.357 OA
HETATM   27  H   UNK N   1      31.664  56.982  43.090  0.00  0.00     0.218 HD
ENDBRANCH   6  26
BRANCH   5  28
HETATM   28  O   UNK N   1      30.524  56.822  40.993  0.00  0.00    -0.357 OA
HETATM   29  H   UNK N   1      30.078  57.197  40.230  0.00  0.00     0.218 HD
ENDBRANCH   5  28
TORSDOF 6
ENDMDL
MODEL 3
REMARK VINA RESULT:      -5.8     16.065     19.904
REMARK  6 active torsions:
REMARK  status: ('A' for Active; 'I' for Inactive)
REMARK    1  A    between atoms: C_5  and  O_6 
REMARK    2  A    between atoms: C_8  and  O_9 
REMARK    3  A    between atoms: C_11  and  C_13 
REMARK    4  A    between atoms: C_13  and  C_14 
REMARK    5  A    between atoms: C_14  and  O_15 
REMARK    6  A    between atoms: O_15  and  C_16 
ROOT
HETATM    1  O   UNK N   1      31.648  51.951  39.449  0.00  0.00    -0.292 OA
HETATM    2  C   UNK N   1      30.797  52.777  39.748  0.00  0.00     0.160 C 
HETATM    3  C   UNK N   1      30.686  53.259  41.157  0.00  0.00     0.020 A 
HETATM    4  C   UNK N   1      29.879  54.389  41.490  0.00  0.00     0.000 A 
HETATM    5  C   UNK N   1      29.946  54.873  42.840  0.00  0.00     0.107 A 
HETATM    6  C   UNK N   1      30.681  54.178  43.819  0.00  0.00     0.106 A 
HETATM    7  C   UNK N   1      31.429  53.038  43.478  0.00  0.00    -0.015 A 
HETATM    8  C   UNK N   1      31.439  52.606  42.149  0.00  0.00     0.026 A 
HETATM    9  C   UNK N   1      29.047  55.078  40.360  0.00  0.00    -0.008 C 
HETATM   10  C   UNK N   1      28.690  54.047  39.205  0.00  0.00     0.013 C 
HETATM   11  C   UNK N   1      27.525  53.003  39.556  0.00  0.00    -0.043 C 
HETATM   12  C   UNK N   1      26.299  53.769  40.114  0.00  0.00     0.009 C 
HETATM   13  C   UNK N   1      26.660  54.683  41.278  0.00  0.00     0.002 C 
HETATM   14  C   UNK N   1      27.674  55.711  40.790  0.00  0.00     0.014 C 
HETATM   15  C   UNK N   1      27.918  51.891  40.560  0.00  0.00     0.015 C 
HETATM   16  C   UNK N   1      27.034  52.296  38.263  0.00  0.00     0.015 C 
HETATM   17  C   UNK N   1      29.966  53.376  38.656  0.00  0.00     0.090 C 
HETATM   18  C   UNK N   1      29.925  56.223  39.799  0.00  0.00     0.021 C 
ENDROOT
BRANCH   7  19
HETATM   19  C   UNK N   1      32.260  52.278  44.514  0.00  0.00     0.042 C 
HETATM   20  C   UNK N   1      32.276  50.769  44.230  0.00  0.00     0.017 C 
BRANCH  19  21
HETATM   21  C   UNK N   1      33.689  52.835  44.623  0.00  0.00     0.187 C 
BRANCH  21  22
HETATM   22  O   UNK N   1      33.668  54.007  45.352  0.00  0.00    -0.321 OA
BRANCH  22  23
HETATM   23  C   UNK N   1      34.091  55.199  44.868  0.00  0.00     0.254 C 
HETATM   24  O   UNK N   1      34.430  55.318  43.698  0.00  0.00    -0.266 OA
HETATM   25  C   UNK N   1      34.145  56.376  45.785  0.00  0.00     0.126 C 
ENDBRANCH  22  23
ENDBRANCH  21  22
ENDBRANCH  19  21
ENDBRANCH   7  19
BRANCH   6  26
HETATM   26  O   UNK N   1      30.692  54.626  45.093  0.00  0.00    -0.357 OA
HETATM   27  H   UNK N   1      30.939  54.073  45.848  0.00  0.00     0.218 HD
ENDBRANCH   6  26
BRANCH   5  28
HETATM   28  O   UNK N   1      29.364  56.022  43.236  0.00  0.00    -0.357 OA
HETATM   29  H   UNK N   1      28.412  56.108  43.338  0.00  0.00     0.218 HD
ENDBRANCH   5  28
TORSDOF 6
ENDMDL
MODEL 4
REMARK VINA RESULT:      -5.6     16.661     20.825
REMARK  6 active torsions:
REMARK  status: ('A' for Active; 'I' for Inactive)
REMARK    1  A    between atoms: C_5  and  O_6 
REMARK    2  A    between atoms: C_8  and  O_9 
REMARK    3  A    between atoms: C_11  and  C_13 
REMARK    4  A    between atoms: C_13  and  C_14 
REMARK    5  A    between atoms: C_14  and  O_15 
REMARK    6  A    between atoms: O_15  and  C_16 
ROOT
HETATM    1  O   UNK N   1      27.481  56.902  42.334  0.00  0.00    -0.292 OA
HETATM    2  C   UNK N   1      27.858  56.090  41.501  0.00  0.00     0.160 C 
HETATM    3  C   UNK N   1      29.006  55.185  41.807  0.00  0.00     0.020 A 
HETATM    4  C   UNK N   1      29.314  54.072  40.968  0.00  0.00     0.000 A 
HETATM    5  C   UNK N   1      30.339  53.172  41.415  0.00  0.00     0.107 A 
HETATM    6  C   UNK N   1      31.092  53.453  42.570  0.00  0.00     0.106 A 
HETATM    7  C   UNK N   1      30.803  54.584  43.356  0.00  0.00    -0.015 A 
HETATM    8  C   UNK N   1      29.752  55.422  42.976  0.00  0.00     0.026 A 
HETATM    9  C   UNK N   1      28.470  53.853  39.670  0.00  0.00    -0.008 C 
HETATM   10  C   UNK N   1      27.879  55.226  39.135  0.00  0.00     0.013 C 
HETATM   11  C   UNK N   1      28.934  56.184  38.398  0.00  0.00    -0.043 C 
HETATM   12  C   UNK N   1      29.706  55.372  37.327  0.00  0.00     0.009 C 
HETATM   13  C   UNK N   1      30.334  54.105  37.893  0.00  0.00     0.002 C 
HETATM   14  C   UNK N   1      29.223  53.219  38.445  0.00  0.00     0.014 C 
HETATM   15  C   UNK N   1      29.959  56.876  39.332  0.00  0.00     0.015 C 
HETATM   16  C   UNK N   1      28.189  57.308  37.628  0.00  0.00     0.015 C 
HETATM   17  C   UNK N   1      27.071  55.942  40.236  0.00  0.00     0.090 C 
HETATM   18  C   UNK N   1      27.319  52.890  40.049  0.00  0.00     0.021 C 
ENDROOT
BRANCH   7  19
HETATM   19  C   UNK N   1      31.585  54.901  44.632  0.00  0.00     0.042 C 
HETATM   20  C   UNK N   1      31.479  53.763  45.658  0.00  0.00     0.017 C 
BRANCH  19  21
HETATM   21  C   UNK N   1      33.055  55.241  44.334  0.00  0.00     0.187 C 
BRANCH  21  22
HETATM   22  O   UNK N   1      33.753  55.328  45.521  0.00  0.00    -0.321 OA
BRANCH  22  23
HETATM   23  C   UNK N   1      34.098  56.501  46.104  0.00  0.00     0.254 C 
HETATM   24  O   UNK N   1      34.418  57.469  45.427  0.00  0.00    -0.266 OA
HETATM   25  C   UNK N   1      34.089  56.601  47.594  0.00  0.00     0.126 C 
ENDBRANCH  22  23
ENDBRANCH  21  22
ENDBRANCH  19  21
ENDBRANCH   7  19
BRANCH   6  26
HETATM   26  O   UNK N   1      32.082  52.616  42.947  0.00  0.00    -0.357 OA
HETATM   27  H   UNK N   1      32.210  51.737  42.562  0.00  0.00     0.218 HD
ENDBRANCH   6  26
BRANCH   5  28
HETATM   28  O   UNK N   1      30.608  52.004  40.799  0.00  0.00    -0.357 OA
HETATM   29  H   UNK N   1      30.302  51.159  41.141  0.00  0.00     0.218 HD
ENDBRANCH   5  28
TORSDOF 6
ENDMDL
MODEL 5
REMARK VINA RESULT:      -5.5     16.033     20.573
REMARK  6 active torsions:
REMARK  status: ('A' for Active; 'I' for Inactive)
REMARK    1  A    between atoms: C_5  and  O_6 
REMARK    2  A    between atoms: C_8  and  O_9 
REMARK    3  A    between atoms: C_11  and  C_13 
REMARK    4  A    between atoms: C_13  and  C_14 
REMARK    5  A    between atoms: C_14  and  O_15 
REMARK    6  A    between atoms: O_15  and  C_16 
ROOT
HETATM    1  O   UNK N   1      28.336  56.822  42.318  0.00  0.00    -0.292 OA
HETATM    2  C   UNK N   1      28.282  55.993  41.420  0.00  0.00     0.160 C 
HETATM    3  C   UNK N   1      29.186  54.805  41.447  0.00  0.00     0.020 A 
HETATM    4  C   UNK N   1      28.986  53.703  40.560  0.00  0.00     0.000 A 
HETATM    5  C   UNK N   1      29.808  52.543  40.753  0.00  0.00     0.107 A 
HETATM    6  C   UNK N   1      30.852  52.547  41.697  0.00  0.00     0.106 A 
HETATM    7  C   UNK N   1      31.062  53.663  42.527  0.00  0.00    -0.015 A 
HETATM    8  C   UNK N   1      30.214  54.767  42.405  0.00  0.00     0.026 A 
HETATM    9  C   UNK N   1      27.840  53.791  39.499  0.00  0.00    -0.008 C 
HETATM   10  C   UNK N   1      27.531  55.302  39.117  0.00  0.00     0.013 C 
HETATM   11  C   UNK N   1      28.606  55.996  38.151  0.00  0.00    -0.043 C 
HETATM   12  C   UNK N   1      28.867  55.080  36.928  0.00  0.00     0.009 C 
HETATM   13  C   UNK N   1      29.247  53.661  37.331  0.00  0.00     0.002 C 
HETATM   14  C   UNK N   1      28.097  53.061  38.132  0.00  0.00     0.014 C 
HETATM   15  C   UNK N   1      29.963  56.340  38.814  0.00  0.00     0.015 C 
HETATM   16  C   UNK N   1      28.031  57.320  37.577  0.00  0.00     0.015 C 
HETATM   17  C   UNK N   1      27.217  56.133  40.378  0.00  0.00     0.090 C 
HETATM   18  C   UNK N   1      26.592  53.139  40.142  0.00  0.00     0.021 C 
ENDROOT
BRANCH   7  19
HETATM   19  C   UNK N   1      32.171  53.687  43.581  0.00  0.00     0.042 C 
HETATM   20  C   UNK N   1      32.469  55.117  44.056  0.00  0.00     0.017 C 
BRANCH  19  21
HETATM   21  C   UNK N   1      31.851  52.764  44.770  0.00  0.00     0.187 C 
BRANCH  21  22
HETATM   22  O   UNK N   1      32.495  51.556  44.595  0.00  0.00    -0.321 OA
BRANCH  22  23
HETATM   23  C   UNK N   1      33.840  51.409  44.646  0.00  0.00     0.254 C 
HETATM   24  O   UNK N   1      34.474  51.760  45.632  0.00  0.00    -0.266 OA
HETATM   25  C   UNK N   1      34.549  50.814  43.474  0.00  0.00     0.126 C 
ENDBRANCH  22  23
ENDBRANCH  21  22
ENDBRANCH  19  21
ENDBRANCH   7  19
BRANCH   6  26
HETATM   26  O   UNK N   1      31.642  51.460  41.829  0.00  0.00    -0.357 OA
HETATM   27  H   UNK N   1      31.598  50.696  41.236  0.00  0.00     0.218 HD
ENDBRANCH   6  26
BRANCH   5  28
HETATM   28  O   UNK N   1      29.607  51.385  40.093  0.00  0.00    -0.357 OA
HETATM   29  H   UNK N   1      30.085  50.580  40.307  0.00  0.00     0.218 HD
ENDBRANCH   5  28
TORSDOF 6
ENDMDL
MODEL 6
REMARK VINA RESULT:      -5.1     17.401     20.909
REMARK  6 active torsions:
REMARK  status: ('A' for Active; 'I' for Inactive)
REMARK    1  A    between atoms: C_5  and  O_6 
REMARK    2  A    between atoms: C_8  and  O_9 
REMARK    3  A    between atoms: C_11  and  C_13 
REMARK    4  A    between atoms: C_13  and  C_14 
REMARK    5  A    between atoms: C_14  and  O_15 
REMARK    6  A    between atoms: O_15  and  C_16 
ROOT
HETATM    1  O   UNK N   1      26.053  55.706  41.787  0.00  0.00    -0.292 OA
HETATM    2  C   UNK N   1      26.258  54.821  40.967  0.00  0.00     0.160 C 
HETATM    3  C   UNK N   1      27.571  54.110  40.950  0.00  0.00     0.020 A 
HETATM    4  C   UNK N   1      27.757  52.920  40.182  0.00  0.00     0.000 A 
HETATM    5  C   UNK N   1      29.002  52.222  40.338  0.00  0.00     0.107 A 
HETATM    6  C   UNK N   1      30.039  52.763  41.121  0.00  0.00     0.106 A 
HETATM    7  C   UNK N   1      29.850  53.962  41.830  0.00  0.00    -0.015 A 
HETATM    8  C   UNK N   1      28.613  54.608  41.752  0.00  0.00     0.026 A 
HETATM    9  C   UNK N   1      26.578  52.408  39.292  0.00  0.00    -0.008 C 
HETATM   10  C   UNK N   1      25.634  53.606  38.851  0.00  0.00     0.013 C 
HETATM   11  C   UNK N   1      26.220  54.549  37.694  0.00  0.00    -0.043 C 
HETATM   12  C   UNK N   1      26.713  53.671  36.515  0.00  0.00     0.009 C 
HETATM   13  C   UNK N   1      27.686  52.587  36.961  0.00  0.00     0.002 C 
HETATM   14  C   UNK N   1      26.975  51.679  37.958  0.00  0.00     0.014 C 
HETATM   15  C   UNK N   1      27.372  55.489  38.131  0.00  0.00     0.015 C 
HETATM   16  C   UNK N   1      25.094  55.448  37.115  0.00  0.00     0.015 C 
HETATM   17  C   UNK N   1      25.132  54.390  40.081  0.00  0.00     0.090 C 
HETATM   18  C   UNK N   1      25.785  51.394  40.151  0.00  0.00     0.021 C 
ENDROOT
BRANCH   7  19
HETATM   19  C   UNK N   1      30.949  54.560  42.711  0.00  0.00     0.042 C 
HETATM   20  C   UNK N   1      30.731  56.062  42.945  0.00  0.00     0.017 C 
BRANCH  19  21
HETATM   21  C   UNK N   1      31.088  53.807  44.045  0.00  0.00     0.187 C 
BRANCH  21  22
HETATM   22  O   UNK N   1      31.879  54.542  44.903  0.00  0.00    -0.321 OA
BRANCH  22  23
HETATM   23  C   UNK N   1      33.225  54.415  44.977  0.00  0.00     0.254 C 
HETATM   24  O   UNK N   1      33.750  53.311  45.023  0.00  0.00    -0.266 OA
HETATM   25  C   UNK N   1      34.069  55.646  45.009  0.00  0.00     0.126 C 
ENDBRANCH  22  23
ENDBRANCH  21  22
ENDBRANCH  19  21
ENDBRANCH   7  19
BRANCH   6  26
HETATM   26  O   UNK N   1      31.218  52.110  41.216  0.00  0.00    -0.357 OA
HETATM   27  H   UNK N   1      31.366  51.366  41.817  0.00  0.00     0.218 HD
ENDBRANCH   6  26
BRANCH   5  28
HETATM   28  O   UNK N   1      29.233  51.009  39.798  0.00  0.00    -0.357 OA
HETATM   29  H   UNK N   1      29.352  50.880  38.853  0.00  0.00     0.218 HD
ENDBRANCH   5  28
TORSDOF 6
ENDMDL
MODEL 7
REMARK VINA RESULT:      -5.1      1.611      2.732
REMARK  6 active torsions:
REMARK  status: ('A' for Active; 'I' for Inactive)
REMARK    1  A    between atoms: C_5  and  O_6 
REMARK    2  A    between atoms: C_8  and  O_9 
REMARK    3  A    between atoms: C_11  and  C_13 
REMARK    4  A    between atoms: C_13  and  C_14 
REMARK    5  A    between atoms: C_14  and  O_15 
REMARK    6  A    between atoms: O_15  and  C_16 
ROOT
HETATM    1  O   UNK N   1      27.728  42.782  59.587  0.00  0.00    -0.292 OA
HETATM    2  C   UNK N   1      28.891  43.032  59.301  0.00  0.00     0.160 C 
HETATM    3  C   UNK N   1      29.492  42.463  58.058  0.00  0.00     0.020 A 
HETATM    4  C   UNK N   1      30.752  42.924  57.569  0.00  0.00     0.000 A 
HETATM    5  C   UNK N   1      31.186  42.430  56.293  0.00  0.00     0.107 A 
HETATM    6  C   UNK N   1      30.454  41.435  55.618  0.00  0.00     0.106 A 
HETATM    7  C   UNK N   1      29.239  40.960  56.144  0.00  0.00    -0.015 A 
HETATM    8  C   UNK N   1      28.765  41.494  57.345  0.00  0.00     0.026 A 
HETATM    9  C   UNK N   1      31.536  43.992  58.400  0.00  0.00    -0.008 C 
HETATM   10  C   UNK N   1      31.167  43.898  59.942  0.00  0.00     0.013 C 
HETATM   11  C   UNK N   1      31.827  42.666  60.729  0.00  0.00    -0.043 C 
HETATM   12  C   UNK N   1      33.350  42.629  60.444  0.00  0.00     0.009 C 
HETATM   13  C   UNK N   1      33.666  42.632  58.954  0.00  0.00     0.002 C 
HETATM   14  C   UNK N   1      33.104  43.910  58.342  0.00  0.00     0.014 C 
HETATM   15  C   UNK N   1      31.224  41.277  60.401  0.00  0.00     0.015 C 
HETATM   16  C   UNK N   1      31.684  42.873  62.262  0.00  0.00     0.015 C 
HETATM   17  C   UNK N   1      29.643  44.009  60.149  0.00  0.00     0.090 C 
HETATM   18  C   UNK N   1      31.128  45.376  57.839  0.00  0.00     0.021 C 
ENDROOT
BRANCH   7  19
HETATM   19  C   UNK N   1      28.407  39.899  55.421  0.00  0.00     0.042 C 
HETATM   20  C   UNK N   1      28.301  40.192  53.917  0.00  0.00     0.017 C 
BRANCH  19  21
HETATM   21  C   UNK N   1      28.945  38.479  55.671  0.00  0.00     0.187 C 
BRANCH  21  22
HETATM   22  O   UNK N   1      29.792  38.124  54.642  0.00  0.00    -0.321 OA
BRANCH  22  23
HETATM   23  C   UNK N   1      30.611  37.046  54.682  0.00  0.00     0.254 C 
HETATM   24  O   UNK N   1      31.594  36.976  53.957  0.00  0.00    -0.266 OA
HETATM   25  C   UNK N   1      30.296  35.932  55.624  0.00  0.00     0.126 C 
ENDBRANCH  22  23
ENDBRANCH  21  22
ENDBRANCH  19  21
ENDBRANCH   7  19
BRANCH   6  26
HETATM   26  O   UNK N   1      30.905  40.952  54.441  0.00  0.00    -0.357 OA
HETATM   27  H   UNK N   1      31.795  41.123  54.103  0.00  0.00     0.218 HD
ENDBRANCH   6  26
BRANCH   5  28
HETATM   28  O   UNK N   1      32.269  42.910  55.652  0.00  0.00    -0.357 OA
HETATM   29  H   UNK N   1      33.100  42.430  55.613  0.00  0.00     0.218 HD
ENDBRANCH   5  28
TORSDOF 6
ENDMDL
MODEL 8
REMARK VINA RESULT:      -4.9      2.678      4.625
REMARK  6 active torsions:
REMARK  status: ('A' for Active; 'I' for Inactive)
REMARK    1  A    between atoms: C_5  and  O_6 
REMARK    2  A    between atoms: C_8  and  O_9 
REMARK    3  A    between atoms: C_11  and  C_13 
REMARK    4  A    between atoms: C_13  and  C_14 
REMARK    5  A    between atoms: C_14  and  O_15 
REMARK    6  A    between atoms: O_15  and  C_16 
ROOT
HETATM    1  O   UNK N   1      30.690  42.236  55.594  0.00  0.00    -0.292 OA
HETATM    2  C   UNK N   1      30.946  42.570  56.743  0.00  0.00     0.160 C 
HETATM    3  C   UNK N   1      30.465  41.740  57.887  0.00  0.00     0.020 A 
HETATM    4  C   UNK N   1      30.946  41.960  59.214  0.00  0.00     0.000 A 
HETATM    5  C   UNK N   1      30.543  41.024  60.225  0.00  0.00     0.107 A 
HETATM    6  C   UNK N   1      29.612  40.010  59.938  0.00  0.00     0.106 A 
HETATM    7  C   UNK N   1      29.113  39.842  58.634  0.00  0.00    -0.015 A 
HETATM    8  C   UNK N   1      29.562  40.695  57.623  0.00  0.00     0.026 A 
HETATM    9  C   UNK N   1      31.938  43.142  59.467  0.00  0.00    -0.008 C 
HETATM   10  C   UNK N   1      31.733  44.299  58.398  0.00  0.00     0.013 C 
HETATM   11  C   UNK N   1      30.437  45.216  58.623  0.00  0.00    -0.043 C 
HETATM   12  C   UNK N   1      30.402  45.706  60.093  0.00  0.00     0.009 C 
HETATM   13  C   UNK N   1      30.513  44.562  61.093  0.00  0.00     0.002 C 
HETATM   14  C   UNK N   1      31.841  43.848  60.867  0.00  0.00     0.014 C 
HETATM   15  C   UNK N   1      29.085  44.537  58.292  0.00  0.00     0.015 C 
HETATM   16  C   UNK N   1      30.530  46.496  57.748  0.00  0.00     0.015 C 
HETATM   17  C   UNK N   1      31.847  43.745  56.962  0.00  0.00     0.090 C 
HETATM   18  C   UNK N   1      33.365  42.554  59.348  0.00  0.00     0.021 C 
ENDROOT
BRANCH   7  19
HETATM   19  C   UNK N   1      28.120  38.732  58.286  0.00  0.00     0.042 C 
HETATM   20  C   UNK N   1      27.058  39.214  57.288  0.00  0.00     0.017 C 
BRANCH  19  21
HETATM   21  C   UNK N   1      28.831  37.469  57.770  0.00  0.00     0.187 C 
BRANCH  21  22
HETATM   22  O   UNK N   1      28.763  37.438  56.392  0.00  0.00    -0.321 OA
BRANCH  22  23
HETATM   23  C   UNK N   1      29.851  37.374  55.588  0.00  0.00     0.254 C 
HETATM   24  O   UNK N   1      30.226  38.354  54.959  0.00  0.00    -0.266 OA
HETATM   25  C   UNK N   1      30.591  36.082  55.472  0.00  0.00     0.126 C 
ENDBRANCH  22  23
ENDBRANCH  21  22
ENDBRANCH  19  21
ENDBRANCH   7  19
BRANCH   6  26
HETATM   26  O   UNK N   1      29.212  39.169  60.917  0.00  0.00    -0.357 OA
HETATM   27  H   UNK N   1      29.532  39.226  61.829  0.00  0.00     0.218 HD
ENDBRANCH   6  26
BRANCH   5  28
HETATM   28  O   UNK N   1      31.057  41.028  61.471  0.00  0.00    -0.357 OA
HETATM   29  H   UNK N   1      31.827  41.550  61.709  0.00  0.00     0.218 HD
ENDBRANCH   5  28
TORSDOF 6
ENDMDL
MODEL 9
REMARK VINA RESULT:      -4.9     16.266     20.500
REMARK  6 active torsions:
REMARK  status: ('A' for Active; 'I' for Inactive)
REMARK    1  A    between atoms: C_5  and  O_6 
REMARK    2  A    between atoms: C_8  and  O_9 
REMARK    3  A    between atoms: C_11  and  C_13 
REMARK    4  A    between atoms: C_13  and  C_14 
REMARK    5  A    between atoms: C_14  and  O_15 
REMARK    6  A    between atoms: O_15  and  C_16 
ROOT
HETATM    1  O   UNK N   1      29.100  53.206  37.786  0.00  0.00    -0.292 OA
HETATM    2  C   UNK N   1      28.956  54.124  38.582  0.00  0.00     0.160 C 
HETATM    3  C   UNK N   1      29.553  54.028  39.947  0.00  0.00     0.020 A 
HETATM    4  C   UNK N   1      29.616  55.166  40.808  0.00  0.00     0.000 A 
HETATM    5  C   UNK N   1      30.336  55.022  42.042  0.00  0.00     0.107 A 
HETATM    6  C   UNK N   1      30.847  53.771  42.436  0.00  0.00     0.106 A 
HETATM    7  C   UNK N   1      30.730  52.651  41.593  0.00  0.00    -0.015 A 
HETATM    8  C   UNK N   1      30.104  52.800  40.353  0.00  0.00     0.026 A 
HETATM    9  C   UNK N   1      28.978  56.509  40.326  0.00  0.00    -0.008 C 
HETATM   10  C   UNK N   1      27.797  56.244  39.296  0.00  0.00     0.013 C 
HETATM   11  C   UNK N   1      26.429  55.719  39.946  0.00  0.00    -0.043 C 
HETATM   12  C   UNK N   1      26.034  56.640  41.129  0.00  0.00     0.009 C 
HETATM   13  C   UNK N   1      27.160  56.803  42.143  0.00  0.00     0.002 C 
HETATM   14  C   UNK N   1      28.358  57.429  41.439  0.00  0.00     0.014 C 
HETATM   15  C   UNK N   1      26.455  54.252  40.444  0.00  0.00     0.015 C 
HETATM   16  C   UNK N   1      25.271  55.829  38.916  0.00  0.00     0.015 C 
HETATM   17  C   UNK N   1      28.284  55.378  38.116  0.00  0.00     0.090 C 
HETATM   18  C   UNK N   1      30.109  57.315  39.642  0.00  0.00     0.021 C 
ENDROOT
BRANCH   7  19
HETATM   19  C   UNK N   1      31.299  51.286  41.982  0.00  0.00     0.042 C 
HETATM   20  C   UNK N   1      30.990  50.220  40.920  0.00  0.00     0.017 C 
BRANCH  19  21
HETATM   21  C   UNK N   1      32.809  51.355  42.272  0.00  0.00     0.187 C 
BRANCH  21  22
HETATM   22  O   UNK N   1      33.018  51.240  43.631  0.00  0.00    -0.321 OA
BRANCH  22  23
HETATM   23  C   UNK N   1      34.238  51.053  44.189  0.00  0.00     0.254 C 
HETATM   24  O   UNK N   1      34.472  51.431  45.328  0.00  0.00    -0.266 OA
HETATM   25  C   UNK N   1      35.305  50.380  43.390  0.00  0.00     0.126 C 
ENDBRANCH  22  23
ENDBRANCH  21  22
ENDBRANCH  19  21
ENDBRANCH   7  19
BRANCH   6  26
HETATM   26  O   UNK N   1      31.481  53.649  43.622  0.00  0.00    -0.357 OA
HETATM   27  H   UNK N   1      31.924  52.836  43.906  0.00  0.00     0.218 HD
ENDBRANCH   6  26
BRANCH   5  28
HETATM   28  O   UNK N   1      30.605  56.060  42.858  0.00  0.00    -0.357 OA
HETATM   29  H   UNK N   1      30.047  56.283  43.607  0.00  0.00     0.218 HD
ENDBRANCH   5  28
TORSDOF 6
ENDMDL
