MODEL 1
REMARK VINA RESULT:      -5.5      0.000      0.000
REMARK  3 active torsions:
REMARK  status: ('A' for Active; 'I' for Inactive)
REMARK    1  A    between atoms: C_8  and  O_9 
REMARK    2  A    between atoms: C_17  and  O_18 
REMARK    3  A    between atoms: C_21  and  O_22 
ROOT
HETATM    1  O   UNK N   1      27.775  55.957  42.734  0.00  0.00    -0.265 OA
HETATM    2  C   UNK N   1      28.357  56.121  41.671  0.00  0.00     0.263 C 
HETATM    3  O   UNK N   1      27.671  56.092  40.495  0.00  0.00    -0.316 OA
HETATM    4  C   UNK N   1      26.283  56.015  40.397  0.00  0.00     0.127 C 
HETATM    5  C   UNK N   1      25.831  54.879  39.443  0.00  0.00     0.032 C 
HETATM    6  C   UNK N   1      25.901  53.453  40.035  0.00  0.00     0.005 C 
HETATM    7  C   UNK N   1      27.293  52.955  40.444  0.00  0.00     0.032 C 
HETATM    8  C   UNK N   1      28.265  52.753  39.263  0.00  0.00     0.128 C 
HETATM    9  C   UNK N   1      29.686  52.451  39.805  0.00  0.00     0.116 C 
HETATM   10  C   UNK N   1      30.271  53.744  40.333  0.00  0.00     0.165 C 
HETATM   11  C   UNK N   1      30.712  53.960  41.749  0.00  0.00     0.050 A 
HETATM   12  C   UNK N   1      30.567  55.247  42.361  0.00  0.00    -0.030 A 
HETATM   13  C   UNK N   1      29.840  56.403  41.692  0.00  0.00     0.150 C 
HETATM   14  C   UNK N   1      31.038  55.449  43.667  0.00  0.00     0.045 A 
HETATM   15  C   UNK N   1      31.628  54.411  44.387  0.00  0.00     0.068 A 
HETATM   16  C   UNK N   1      31.763  53.153  43.806  0.00  0.00     0.074 A 
HETATM   17  C   UNK N   1      31.317  52.916  42.497  0.00  0.00     0.082 A 
HETATM   18  O   UNK N   1      30.366  54.666  39.540  0.00  0.00    -0.292 OA
HETATM   19  C   UNK N   1      25.785  57.367  39.883  0.00  0.00     0.040 C 
ENDROOT
BRANCH   8  20
HETATM   20  O   UNK N   1      27.804  51.675  38.464  0.00  0.00    -0.390 OA
HETATM   21  C   UNK N   1      27.563  52.117  37.142  0.00  0.00     0.202 C 
ENDBRANCH   8  20
BRANCH  17  22
HETATM   22  O   UNK N   1      31.506  51.695  41.951  0.00  0.00    -0.360 OA
HETATM   23  H   UNK N   1      31.885  51.582  41.069  0.00  0.00     0.217 HD
ENDBRANCH  17  22
BRANCH  15  24
HETATM   24  O   UNK N   1      32.062  54.615  45.648  0.00  0.00    -0.361 OA
HETATM   25  H   UNK N   1      32.614  53.964  46.106  0.00  0.00     0.217 HD
ENDBRANCH  15  24
TORSDOF 3
ENDMDL
MODEL 2
REMARK VINA RESULT:      -5.0      2.090      5.178
REMARK  3 active torsions:
REMARK  status: ('A' for Active; 'I' for Inactive)
REMARK    1  A    between atoms: C_8  and  O_9 
REMARK    2  A    between atoms: C_17  and  O_18 
REMARK    3  A    between atoms: C_21  and  O_22 
ROOT
HETATM    1  O   UNK N   1      31.553  55.738  41.315  0.00  0.00    -0.265 OA
HETATM    2  C   UNK N   1      30.569  55.439  41.978  0.00  0.00     0.263 C 
HETATM    3  O   UNK N   1      30.522  54.257  42.651  0.00  0.00    -0.316 OA
HETATM    4  C   UNK N   1      31.593  53.372  42.761  0.00  0.00     0.127 C 
HETATM    5  C   UNK N   1      31.194  51.926  42.369  0.00  0.00     0.032 C 
HETATM    6  C   UNK N   1      31.088  51.659  40.850  0.00  0.00     0.005 C 
HETATM    7  C   UNK N   1      30.031  52.471  40.090  0.00  0.00     0.032 C 
HETATM    8  C   UNK N   1      28.576  52.135  40.476  0.00  0.00     0.128 C 
HETATM    9  C   UNK N   1      27.612  53.147  39.806  0.00  0.00     0.116 C 
HETATM   10  C   UNK N   1      27.722  54.461  40.549  0.00  0.00     0.165 C 
HETATM   11  C   UNK N   1      28.140  55.758  39.923  0.00  0.00     0.050 A 
HETATM   12  C   UNK N   1      28.892  56.714  40.679  0.00  0.00    -0.030 A 
HETATM   13  C   UNK N   1      29.432  56.427  42.072  0.00  0.00     0.150 C 
HETATM   14  C   UNK N   1      29.226  57.947  40.099  0.00  0.00     0.045 A 
HETATM   15  C   UNK N   1      28.854  58.249  38.790  0.00  0.00     0.068 A 
HETATM   16  C   UNK N   1      28.133  57.322  38.042  0.00  0.00     0.074 A 
HETATM   17  C   UNK N   1      27.770  56.084  38.593  0.00  0.00     0.082 A 
HETATM   18  O   UNK N   1      27.464  54.440  41.741  0.00  0.00    -0.292 OA
HETATM   19  C   UNK N   1      32.073  53.413  44.213  0.00  0.00     0.040 C 
ENDROOT
BRANCH   8  20
HETATM   20  O   UNK N   1      28.278  50.815  40.049  0.00  0.00    -0.390 OA
HETATM   21  C   UNK N   1      26.981  50.446  40.474  0.00  0.00     0.202 C 
ENDBRANCH   8  20
BRANCH  17  22
HETATM   22  O   UNK N   1      27.032  55.229  37.852  0.00  0.00    -0.360 OA
HETATM   23  H   UNK N   1      26.150  54.943  38.126  0.00  0.00     0.217 HD
ENDBRANCH  17  22
BRANCH  15  24
HETATM   24  O   UNK N   1      29.196  59.432  38.239  0.00  0.00    -0.361 OA
HETATM   25  H   UNK N   1      29.168  59.573  37.281  0.00  0.00     0.217 HD
ENDBRANCH  15  24
TORSDOF 3
ENDMDL
MODEL 3
REMARK VINA RESULT:      -5.0      2.234      3.834
REMARK  3 active torsions:
REMARK  status: ('A' for Active; 'I' for Inactive)
REMARK    1  A    between atoms: C_8  and  O_9 
REMARK    2  A    between atoms: C_17  and  O_18 
REMARK    3  A    between atoms: C_21  and  O_22 
ROOT
HETATM    1  O   UNK N   1      30.562  54.136  41.826  0.00  0.00    -0.265 OA
HETATM    2  C   UNK N   1      30.323  54.126  40.626  0.00  0.00     0.263 C 
HETATM    3  O   UNK N   1      29.540  55.091  40.069  0.00  0.00    -0.316 OA
HETATM    4  C   UNK N   1      29.067  56.210  40.752  0.00  0.00     0.127 C 
HETATM    5  C   UNK N   1      27.535  56.387  40.585  0.00  0.00     0.032 C 
HETATM    6  C   UNK N   1      26.664  55.450  41.452  0.00  0.00     0.005 C 
HETATM    7  C   UNK N   1      26.814  53.947  41.189  0.00  0.00     0.032 C 
HETATM    8  C   UNK N   1      26.315  53.493  39.801  0.00  0.00     0.128 C 
HETATM    9  C   UNK N   1      26.702  52.010  39.568  0.00  0.00     0.116 C 
HETATM   10  C   UNK N   1      28.186  51.952  39.280  0.00  0.00     0.165 C 
HETATM   11  C   UNK N   1      29.181  51.186  40.100  0.00  0.00     0.050 A 
HETATM   12  C   UNK N   1      30.513  51.685  40.267  0.00  0.00    -0.030 A 
HETATM   13  C   UNK N   1      30.953  53.054  39.770  0.00  0.00     0.150 C 
HETATM   14  C   UNK N   1      31.449  50.929  40.988  0.00  0.00     0.045 A 
HETATM   15  C   UNK N   1      31.099  49.708  41.561  0.00  0.00     0.068 A 
HETATM   16  C   UNK N   1      29.803  49.219  41.415  0.00  0.00     0.074 A 
HETATM   17  C   UNK N   1      28.843  49.941  40.689  0.00  0.00     0.082 A 
HETATM   18  O   UNK N   1      28.584  52.592  38.321  0.00  0.00    -0.292 OA
HETATM   19  C   UNK N   1      29.804  57.429  40.197  0.00  0.00     0.040 C 
ENDROOT
BRANCH   8  20
HETATM   20  O   UNK N   1      24.906  53.649  39.744  0.00  0.00    -0.390 OA
HETATM   21  C   UNK N   1      24.527  54.197  38.497  0.00  0.00     0.202 C 
ENDBRANCH   8  20
BRANCH  17  22
HETATM   22  O   UNK N   1      27.609  49.414  40.531  0.00  0.00    -0.360 OA
HETATM   23  H   UNK N   1      27.208  48.840  41.198  0.00  0.00     0.217 HD
ENDBRANCH  17  22
BRANCH  15  24
HETATM   24  O   UNK N   1      32.004  48.998  42.266  0.00  0.00    -0.361 OA
HETATM   25  H   UNK N   1      32.617  49.426  42.882  0.00  0.00     0.217 HD
ENDBRANCH  15  24
TORSDOF 3
ENDMDL
MODEL 4
REMARK VINA RESULT:      -4.9      2.549      4.079
REMARK  3 active torsions:
REMARK  status: ('A' for Active; 'I' for Inactive)
REMARK    1  A    between atoms: C_8  and  O_9 
REMARK    2  A    between atoms: C_17  and  O_18 
REMARK    3  A    between atoms: C_21  and  O_22 
ROOT
HETATM    1  O   UNK N   1      27.025  54.437  42.161  0.00  0.00    -0.265 OA
HETATM    2  C   UNK N   1      27.675  55.460  42.333  0.00  0.00     0.263 C 
HETATM    3  O   UNK N   1      27.057  56.673  42.364  0.00  0.00    -0.316 OA
HETATM    4  C   UNK N   1      25.676  56.853  42.344  0.00  0.00     0.127 C 
HETATM    5  C   UNK N   1      25.239  57.866  41.254  0.00  0.00     0.032 C 
HETATM    6  C   UNK N   1      25.221  57.315  39.810  0.00  0.00     0.005 C 
HETATM    7  C   UNK N   1      26.567  56.842  39.247  0.00  0.00     0.032 C 
HETATM    8  C   UNK N   1      27.599  57.970  39.040  0.00  0.00     0.128 C 
HETATM    9  C   UNK N   1      28.974  57.357  38.668  0.00  0.00     0.116 C 
HETATM   10  C   UNK N   1      29.574  56.758  39.922  0.00  0.00     0.165 C 
HETATM   11  C   UNK N   1      29.939  55.312  40.080  0.00  0.00     0.050 A 
HETATM   12  C   UNK N   1      29.806  54.670  41.354  0.00  0.00    -0.030 A 
HETATM   13  C   UNK N   1      29.163  55.345  42.556  0.00  0.00     0.150 C 
HETATM   14  C   UNK N   1      30.207  53.334  41.501  0.00  0.00     0.045 A 
HETATM   15  C   UNK N   1      30.715  52.614  40.421  0.00  0.00     0.068 A 
HETATM   16  C   UNK N   1      30.838  53.224  39.176  0.00  0.00     0.074 A 
HETATM   17  C   UNK N   1      30.460  54.563  38.994  0.00  0.00     0.082 A 
HETATM   18  O   UNK N   1      29.750  57.515  40.862  0.00  0.00    -0.292 OA
HETATM   19  C   UNK N   1      25.259  57.353  43.727  0.00  0.00     0.040 C 
ENDROOT
BRANCH   8  20
HETATM   20  O   UNK N   1      27.146  58.827  38.005  0.00  0.00    -0.390 OA
HETATM   21  C   UNK N   1      27.594  58.354  36.749  0.00  0.00     0.202 C 
ENDBRANCH   8  20
BRANCH  17  22
HETATM   22  O   UNK N   1      30.635  55.134  37.782  0.00  0.00    -0.360 OA
HETATM   23  H   UNK N   1      29.892  55.469  37.261  0.00  0.00     0.217 HD
ENDBRANCH  17  22
BRANCH  15  24
HETATM   24  O   UNK N   1      31.082  51.324  40.572  0.00  0.00    -0.361 OA
HETATM   25  H   UNK N   1      31.646  50.878  39.924  0.00  0.00     0.217 HD
ENDBRANCH  15  24
TORSDOF 3
ENDMDL
MODEL 5
REMARK VINA RESULT:      -4.8      1.759      5.347
REMARK  3 active torsions:
REMARK  status: ('A' for Active; 'I' for Inactive)
REMARK    1  A    between atoms: C_8  and  O_9 
REMARK    2  A    between atoms: C_17  and  O_18 
REMARK    3  A    between atoms: C_21  and  O_22 
ROOT
HETATM    1  O   UNK N   1      29.411  56.376  41.667  0.00  0.00    -0.265 OA
HETATM    2  C   UNK N   1      28.779  55.454  42.163  0.00  0.00     0.263 C 
HETATM    3  O   UNK N   1      29.300  54.196  42.190  0.00  0.00    -0.316 OA
HETATM    4  C   UNK N   1      30.598  53.874  41.800  0.00  0.00     0.127 C 
HETATM    5  C   UNK N   1      30.625  52.699  40.788  0.00  0.00     0.032 C 
HETATM    6  C   UNK N   1      30.245  53.069  39.336  0.00  0.00     0.005 C 
HETATM    7  C   UNK N   1      28.825  53.607  39.122  0.00  0.00     0.032 C 
HETATM    8  C   UNK N   1      27.710  52.574  39.386  0.00  0.00     0.128 C 
HETATM    9  C   UNK N   1      26.328  53.276  39.340  0.00  0.00     0.116 C 
HETATM   10  C   UNK N   1      26.169  54.080  40.613  0.00  0.00     0.165 C 
HETATM   11  C   UNK N   1      25.959  55.563  40.660  0.00  0.00     0.050 A 
HETATM   12  C   UNK N   1      26.507  56.335  41.735  0.00  0.00    -0.030 A 
HETATM   13  C   UNK N   1      27.436  55.747  42.786  0.00  0.00     0.150 C 
HETATM   14  C   UNK N   1      26.253  57.714  41.797  0.00  0.00     0.045 A 
HETATM   15  C   UNK N   1      25.492  58.349  40.817  0.00  0.00     0.068 A 
HETATM   16  C   UNK N   1      24.965  57.610  39.760  0.00  0.00     0.074 A 
HETATM   17  C   UNK N   1      25.186  56.227  39.673  0.00  0.00     0.082 A 
HETATM   18  O   UNK N   1      26.235  53.462  41.663  0.00  0.00    -0.292 OA
HETATM   19  C   UNK N   1      31.377  53.502  43.062  0.00  0.00     0.040 C 
ENDROOT
BRANCH   8  20
HETATM   20  O   UNK N   1      27.778  51.558  38.398  0.00  0.00    -0.390 OA
HETATM   21  C   UNK N   1      27.177  52.003  37.198  0.00  0.00     0.202 C 
ENDBRANCH   8  20
BRANCH  17  22
HETATM   22  O   UNK N   1      24.621  55.537  38.658  0.00  0.00    -0.360 OA
HETATM   23  H   UNK N   1      23.687  55.285  38.668  0.00  0.00     0.217 HD
ENDBRANCH  17  22
BRANCH  15  24
HETATM   24  O   UNK N   1      25.269  59.678  40.879  0.00  0.00    -0.361 OA
HETATM   25  H   UNK N   1      25.631  60.285  40.217  0.00  0.00     0.217 HD
ENDBRANCH  15  24
TORSDOF 3
ENDMDL
MODEL 6
REMARK VINA RESULT:      -4.8     18.699     21.463
REMARK  3 active torsions:
REMARK  status: ('A' for Active; 'I' for Inactive)
REMARK    1  A    between atoms: C_8  and  O_9 
REMARK    2  A    between atoms: C_17  and  O_18 
REMARK    3  A    between atoms: C_21  and  O_22 
ROOT
HETATM    1  O   UNK N   1      30.733  38.913  59.236  0.00  0.00    -0.265 OA
HETATM    2  C   UNK N   1      29.777  39.677  59.240  0.00  0.00     0.263 C 
HETATM    3  O   UNK N   1      28.624  39.344  58.594  0.00  0.00    -0.316 OA
HETATM    4  C   UNK N   1      28.381  38.103  58.010  0.00  0.00     0.127 C 
HETATM    5  C   UNK N   1      27.892  38.238  56.544  0.00  0.00     0.032 C 
HETATM    6  C   UNK N   1      28.994  38.547  55.506  0.00  0.00     0.005 C 
HETATM    7  C   UNK N   1      29.745  39.872  55.687  0.00  0.00     0.032 C 
HETATM    8  C   UNK N   1      28.876  41.128  55.467  0.00  0.00     0.128 C 
HETATM    9  C   UNK N   1      29.676  42.392  55.874  0.00  0.00     0.116 C 
HETATM   10  C   UNK N   1      29.733  42.445  57.385  0.00  0.00     0.165 C 
HETATM   11  C   UNK N   1      30.999  42.437  58.187  0.00  0.00     0.050 A 
HETATM   12  C   UNK N   1      31.039  41.793  59.466  0.00  0.00    -0.030 A 
HETATM   13  C   UNK N   1      29.883  40.969  60.013  0.00  0.00     0.150 C 
HETATM   14  C   UNK N   1      32.214  41.845  60.231  0.00  0.00     0.045 A 
HETATM   15  C   UNK N   1      33.351  42.497  59.758  0.00  0.00     0.068 A 
HETATM   16  C   UNK N   1      33.328  43.116  58.510  0.00  0.00     0.074 A 
HETATM   17  C   UNK N   1      32.167  43.097  57.723  0.00  0.00     0.082 A 
HETATM   18  O   UNK N   1      28.665  42.479  57.973  0.00  0.00    -0.292 OA
HETATM   19  C   UNK N   1      27.322  37.398  58.858  0.00  0.00     0.040 C 
ENDROOT
BRANCH   8  20
HETATM   20  O   UNK N   1      28.504  41.198  54.100  0.00  0.00    -0.390 OA
HETATM   21  C   UNK N   1      29.481  41.910  53.365  0.00  0.00     0.202 C 
ENDBRANCH   8  20
BRANCH  17  22
HETATM   22  O   UNK N   1      32.168  43.747  56.539  0.00  0.00    -0.360 OA
HETATM   23  H   UNK N   1      32.680  44.556  56.399  0.00  0.00     0.217 HD
ENDBRANCH  17  22
BRANCH  15  24
HETATM   24  O   UNK N   1      34.480  42.525  60.496  0.00  0.00    -0.361 OA
HETATM   25  H   UNK N   1      35.186  41.875  60.369  0.00  0.00     0.217 HD
ENDBRANCH  15  24
TORSDOF 3
ENDMDL
MODEL 7
REMARK VINA RESULT:      -4.6     19.654     22.558
REMARK  3 active torsions:
REMARK  status: ('A' for Active; 'I' for Inactive)
REMARK    1  A    between atoms: C_8  and  O_9 
REMARK    2  A    between atoms: C_17  and  O_18 
REMARK    3  A    between atoms: C_21  and  O_22 
ROOT
HETATM    1  O   UNK N   1      33.072  44.114  58.100  0.00  0.00    -0.265 OA
HETATM    2  C   UNK N   1      32.708  43.019  58.508  0.00  0.00     0.263 C 
HETATM    3  O   UNK N   1      31.499  42.512  58.140  0.00  0.00    -0.316 OA
HETATM    4  C   UNK N   1      30.655  43.096  57.197  0.00  0.00     0.127 C 
HETATM    5  C   UNK N   1      29.211  43.262  57.735  0.00  0.00     0.032 C 
HETATM    6  C   UNK N   1      28.999  44.446  58.706  0.00  0.00     0.005 C 
HETATM    7  C   UNK N   1      29.796  44.400  60.016  0.00  0.00     0.032 C 
HETATM    8  C   UNK N   1      29.385  43.258  60.968  0.00  0.00     0.128 C 
HETATM    9  C   UNK N   1      30.383  43.183  62.152  0.00  0.00     0.116 C 
HETATM   10  C   UNK N   1      31.670  42.572  61.643  0.00  0.00     0.165 C 
HETATM   11  C   UNK N   1      33.006  43.251  61.683  0.00  0.00     0.050 A 
HETATM   12  C   UNK N   1      33.962  43.023  60.641  0.00  0.00    -0.030 A 
HETATM   13  C   UNK N   1      33.643  42.225  59.386  0.00  0.00     0.150 C 
HETATM   14  C   UNK N   1      35.229  43.619  60.722  0.00  0.00     0.045 A 
HETATM   15  C   UNK N   1      35.567  44.447  61.792  0.00  0.00     0.068 A 
HETATM   16  C   UNK N   1      34.641  44.685  62.804  0.00  0.00     0.074 A 
HETATM   17  C   UNK N   1      33.369  44.095  62.764  0.00  0.00     0.082 A 
HETATM   18  O   UNK N   1      31.592  41.456  61.155  0.00  0.00    -0.292 OA
HETATM   19  C   UNK N   1      30.659  42.197  55.961  0.00  0.00     0.040 C 
ENDROOT
BRANCH   8  20
HETATM   20  O   UNK N   1      28.072  43.504  61.445  0.00  0.00    -0.390 OA
HETATM   21  C   UNK N   1      27.786  42.659  62.542  0.00  0.00     0.202 C 
ENDBRANCH   8  20
BRANCH  17  22
HETATM   22  O   UNK N   1      32.513  44.313  63.787  0.00  0.00    -0.360 OA
HETATM   23  H   UNK N   1      31.703  43.796  63.896  0.00  0.00     0.217 HD
ENDBRANCH  17  22
BRANCH  15  24
HETATM   24  O   UNK N   1      36.784  45.027  61.850  0.00  0.00    -0.361 OA
HETATM   25  H   UNK N   1      37.084  45.500  62.640  0.00  0.00     0.217 HD
ENDBRANCH  15  24
TORSDOF 3
ENDMDL
MODEL 8
REMARK VINA RESULT:      -4.5     18.012     20.414
REMARK  3 active torsions:
REMARK  status: ('A' for Active; 'I' for Inactive)
REMARK    1  A    between atoms: C_8  and  O_9 
REMARK    2  A    between atoms: C_17  and  O_18 
REMARK    3  A    between atoms: C_21  and  O_22 
ROOT
HETATM    1  O   UNK N   1      30.270  39.686  54.886  0.00  0.00    -0.265 OA
HETATM    2  C   UNK N   1      29.203  39.710  55.484  0.00  0.00     0.263 C 
HETATM    3  O   UNK N   1      28.801  38.640  56.225  0.00  0.00    -0.316 OA
HETATM    4  C   UNK N   1      29.589  37.519  56.477  0.00  0.00     0.127 C 
HETATM    5  C   UNK N   1      28.844  36.200  56.145  0.00  0.00     0.032 C 
HETATM    6  C   UNK N   1      28.765  35.847  54.642  0.00  0.00     0.005 C 
HETATM    7  C   UNK N   1      28.011  36.841  53.750  0.00  0.00     0.032 C 
HETATM    8  C   UNK N   1      26.498  36.929  54.036  0.00  0.00     0.128 C 
HETATM    9  C   UNK N   1      25.882  38.099  53.228  0.00  0.00     0.116 C 
HETATM   10  C   UNK N   1      26.292  39.396  53.893  0.00  0.00     0.165 C 
HETATM   11  C   UNK N   1      27.078  40.482  53.223  0.00  0.00     0.050 A 
HETATM   12  C   UNK N   1      28.009  41.267  53.976  0.00  0.00    -0.030 A 
HETATM   13  C   UNK N   1      28.366  40.965  55.423  0.00  0.00     0.150 C 
HETATM   14  C   UNK N   1      28.694  42.318  53.348  0.00  0.00     0.045 A 
HETATM   15  C   UNK N   1      28.498  42.599  51.997  0.00  0.00     0.068 A 
HETATM   16  C   UNK N   1      27.604  41.834  51.252  0.00  0.00     0.074 A 
HETATM   17  C   UNK N   1      26.891  40.783  51.849  0.00  0.00     0.082 A 
HETATM   18  O   UNK N   1      25.965  39.540  55.059  0.00  0.00    -0.292 OA
HETATM   19  C   UNK N   1      29.972  37.552  57.957  0.00  0.00     0.040 C 
ENDROOT
BRANCH   8  20
HETATM   20  O   UNK N   1      25.886  35.702  53.671  0.00  0.00    -0.390 OA
HETATM   21  C   UNK N   1      25.611  35.689  52.284  0.00  0.00     0.202 C 
ENDBRANCH   8  20
BRANCH  17  22
HETATM   22  O   UNK N   1      25.999  40.092  51.106  0.00  0.00    -0.360 OA
HETATM   23  H   UNK N   1      25.386  40.532  50.501  0.00  0.00     0.217 HD
ENDBRANCH  17  22
BRANCH  15  24
HETATM   24  O   UNK N   1      29.176  43.602  51.401  0.00  0.00    -0.361 OA
HETATM   25  H   UNK N   1      28.718  44.335  50.965  0.00  0.00     0.217 HD
ENDBRANCH  15  24
TORSDOF 3
ENDMDL
MODEL 9
REMARK VINA RESULT:      -4.3      1.890      5.722
REMARK  3 active torsions:
REMARK  status: ('A' for Active; 'I' for Inactive)
REMARK    1  A    between atoms: C_8  and  O_9 
REMARK    2  A    between atoms: C_17  and  O_18 
REMARK    3  A    between atoms: C_21  and  O_22 
ROOT
HETATM    1  O   UNK N   1      28.886  56.551  40.331  0.00  0.00    -0.265 OA
HETATM    2  C   UNK N   1      28.358  55.911  41.230  0.00  0.00     0.263 C 
HETATM    3  O   UNK N   1      29.068  54.979  41.925  0.00  0.00    -0.316 OA
HETATM    4  C   UNK N   1      30.438  54.768  41.782  0.00  0.00     0.127 C 
HETATM    5  C   UNK N   1      30.772  53.273  41.543  0.00  0.00     0.032 C 
HETATM    6  C   UNK N   1      30.511  52.759  40.109  0.00  0.00     0.005 C 
HETATM    7  C   UNK N   1      29.058  52.815  39.621  0.00  0.00     0.032 C 
HETATM    8  C   UNK N   1      28.101  51.867  40.374  0.00  0.00     0.128 C 
HETATM    9  C   UNK N   1      26.639  52.155  39.944  0.00  0.00     0.116 C 
HETATM   10  C   UNK N   1      26.203  53.448  40.599  0.00  0.00     0.165 C 
HETATM   11  C   UNK N   1      25.753  54.668  39.853  0.00  0.00     0.050 A 
HETATM   12  C   UNK N   1      26.039  55.974  40.367  0.00  0.00    -0.030 A 
HETATM   13  C   UNK N   1      26.921  56.208  41.584  0.00  0.00     0.150 C 
HETATM   14  C   UNK N   1      25.561  57.104  39.689  0.00  0.00     0.045 A 
HETATM   15  C   UNK N   1      24.828  56.978  38.510  0.00  0.00     0.068 A 
HETATM   16  C   UNK N   1      24.554  55.714  37.994  0.00  0.00     0.074 A 
HETATM   17  C   UNK N   1      25.005  54.560  38.653  0.00  0.00     0.082 A 
HETATM   18  O   UNK N   1      26.244  53.486  41.818  0.00  0.00    -0.292 OA
HETATM   19  C   UNK N   1      31.112  55.263  43.062  0.00  0.00     0.040 C 
ENDROOT
BRANCH   8  20
HETATM   20  O   UNK N   1      28.448  50.525  40.072  0.00  0.00    -0.390 OA
HETATM   21  C   UNK N   1      27.732  49.637  40.908  0.00  0.00     0.202 C 
ENDBRANCH   8  20
BRANCH  17  22
HETATM   22  O   UNK N   1      24.682  53.349  38.147  0.00  0.00    -0.360 OA
HETATM   23  H   UNK N   1      24.478  52.594  38.716  0.00  0.00     0.217 HD
ENDBRANCH  17  22
BRANCH  15  24
HETATM   24  O   UNK N   1      24.388  58.074  37.858  0.00  0.00    -0.361 OA
HETATM   25  H   UNK N   1      24.573  58.215  36.918  0.00  0.00     0.217 HD
ENDBRANCH  15  24
TORSDOF 3
ENDMDL
