MODEL 1
REMARK VINA RESULT:      -6.0      0.000      0.000
REMARK  3 active torsions:
REMARK  status: ('A' for Active; 'I' for Inactive)
REMARK    1  A    between atoms: C_8  and  O_9 
REMARK    2  A    between atoms: C_17  and  O_18 
REMARK    3  A    between atoms: C_21  and  O_22 
ROOT
HETATM    1  O   UNK N   1      27.169  54.801  42.583  0.00  0.00    -0.265 OA
HETATM    2  C   UNK N   1      27.785  55.031  41.550  0.00  0.00     0.263 C 
HETATM    3  O   UNK N   1      27.228  54.755  40.341  0.00  0.00    -0.316 OA
HETATM    4  C   UNK N   1      25.887  54.439  40.156  0.00  0.00     0.127 C 
HETATM    5  C   UNK N   1      25.668  53.935  38.720  0.00  0.00     0.032 C 
HETATM    6  C   UNK N   1      26.218  52.530  38.368  0.00  0.00     0.005 C 
HETATM    7  C   UNK N   1      27.729  52.311  38.583  0.00  0.00     0.032 C 
HETATM    8  C   UNK N   1      28.074  51.728  39.980  0.00  0.00     0.128 C 
HETATM    9  C   UNK N   1      29.601  51.658  40.235  0.00  0.00     0.116 C 
HETATM   10  C   UNK N   1      30.148  53.046  40.478  0.00  0.00     0.165 C 
HETATM   11  C   UNK N   1      30.560  53.469  41.849  0.00  0.00     0.050 A 
HETATM   12  C   UNK N   1      30.109  54.711  42.389  0.00  0.00    -0.030 A 
HETATM   13  C   UNK N   1      29.165  55.633  41.637  0.00  0.00     0.150 C 
HETATM   14  C   UNK N   1      30.489  55.073  43.691  0.00  0.00     0.045 A 
HETATM   15  C   UNK N   1      31.293  54.232  44.463  0.00  0.00     0.068 A 
HETATM   16  C   UNK N   1      31.748  53.026  43.935  0.00  0.00     0.074 A 
HETATM   17  C   UNK N   1      31.391  52.637  42.638  0.00  0.00     0.082 A 
HETATM   18  O   UNK N   1      30.137  53.859  39.570  0.00  0.00    -0.292 OA
HETATM   19  C   UNK N   1      25.034  55.699  40.390  0.00  0.00     0.040 C 
ENDROOT
BRANCH   8  20
HETATM   20  O   UNK N   1      27.528  50.417  40.044  0.00  0.00    -0.390 OA
HETATM   21  C   UNK N   1      26.495  50.338  41.007  0.00  0.00     0.202 C 
ENDBRANCH   8  20
BRANCH  17  22
HETATM   22  O   UNK N   1      31.870  51.475  42.139  0.00  0.00    -0.360 OA
HETATM   23  H   UNK N   1      31.318  50.878  41.612  0.00  0.00     0.217 HD
ENDBRANCH  17  22
BRANCH  15  24
HETATM   24  O   UNK N   1      31.629  54.574  45.725  0.00  0.00    -0.361 OA
HETATM   25  H   UNK N   1      31.402  54.012  46.480  0.00  0.00     0.217 HD
ENDBRANCH  15  24
TORSDOF 3
ENDMDL
MODEL 2
REMARK VINA RESULT:      -5.2     20.650     22.530
REMARK  3 active torsions:
REMARK  status: ('A' for Active; 'I' for Inactive)
REMARK    1  A    between atoms: C_8  and  O_9 
REMARK    2  A    between atoms: C_17  and  O_18 
REMARK    3  A    between atoms: C_21  and  O_22 
ROOT
HETATM    1  O   UNK N   1      50.635  54.596  41.740  0.00  0.00    -0.265 OA
HETATM    2  C   UNK N   1      49.767  55.456  41.809  0.00  0.00     0.263 C 
HETATM    3  O   UNK N   1      49.596  56.344  40.795  0.00  0.00    -0.316 OA
HETATM    4  C   UNK N   1      50.185  56.218  39.542  0.00  0.00     0.127 C 
HETATM    5  C   UNK N   1      49.989  57.519  38.745  0.00  0.00     0.032 C 
HETATM    6  C   UNK N   1      50.812  58.754  39.190  0.00  0.00     0.005 C 
HETATM    7  C   UNK N   1      50.626  59.213  40.649  0.00  0.00     0.032 C 
HETATM    8  C   UNK N   1      51.660  58.593  41.627  0.00  0.00     0.128 C 
HETATM    9  C   UNK N   1      51.365  58.944  43.107  0.00  0.00     0.116 C 
HETATM   10  C   UNK N   1      50.165  58.163  43.594  0.00  0.00     0.165 C 
HETATM   11  C   UNK N   1      50.337  57.022  44.539  0.00  0.00     0.050 A 
HETATM   12  C   UNK N   1      49.707  55.767  44.280  0.00  0.00    -0.030 A 
HETATM   13  C   UNK N   1      48.883  55.510  43.030  0.00  0.00     0.150 C 
HETATM   14  C   UNK N   1      49.906  54.701  45.172  0.00  0.00     0.045 A 
HETATM   15  C   UNK N   1      50.715  54.850  46.300  0.00  0.00     0.068 A 
HETATM   16  C   UNK N   1      51.320  56.078  46.565  0.00  0.00     0.074 A 
HETATM   17  C   UNK N   1      51.139  57.162  45.699  0.00  0.00     0.082 A 
HETATM   18  O   UNK N   1      49.069  58.394  43.114  0.00  0.00    -0.292 OA
HETATM   19  C   UNK N   1      49.520  55.052  38.786  0.00  0.00     0.040 C 
ENDROOT
BRANCH   8  20
HETATM   20  O   UNK N   1      52.941  59.097  41.272  0.00  0.00    -0.390 OA
HETATM   21  C   UNK N   1      53.599  59.660  42.390  0.00  0.00     0.202 C 
ENDBRANCH   8  20
BRANCH  17  22
HETATM   22  O   UNK N   1      51.713  58.351  45.994  0.00  0.00    -0.360 OA
HETATM   23  H   UNK N   1      51.944  58.596  46.901  0.00  0.00     0.217 HD
ENDBRANCH  17  22
BRANCH  15  24
HETATM   24  O   UNK N   1      50.925  53.812  47.135  0.00  0.00    -0.361 OA
HETATM   25  H   UNK N   1      51.701  53.775  47.713  0.00  0.00     0.217 HD
ENDBRANCH  15  24
TORSDOF 3
ENDMDL
MODEL 3
REMARK VINA RESULT:      -4.9      2.437      5.664
REMARK  3 active torsions:
REMARK  status: ('A' for Active; 'I' for Inactive)
REMARK    1  A    between atoms: C_8  and  O_9 
REMARK    2  A    between atoms: C_17  and  O_18 
REMARK    3  A    between atoms: C_21  and  O_22 
ROOT
HETATM    1  O   UNK N   1      27.841  53.959  41.689  0.00  0.00    -0.265 OA
HETATM    2  C   UNK N   1      28.755  53.748  40.902  0.00  0.00     0.263 C 
HETATM    3  O   UNK N   1      29.499  54.778  40.418  0.00  0.00    -0.316 OA
HETATM    4  C   UNK N   1      29.463  56.070  40.929  0.00  0.00     0.127 C 
HETATM    5  C   UNK N   1      30.220  57.020  39.985  0.00  0.00     0.032 C 
HETATM    6  C   UNK N   1      29.548  57.359  38.631  0.00  0.00     0.005 C 
HETATM    7  C   UNK N   1      29.205  56.167  37.717  0.00  0.00     0.032 C 
HETATM    8  C   UNK N   1      27.760  55.633  37.917  0.00  0.00     0.128 C 
HETATM    9  C   UNK N   1      27.484  54.344  37.103  0.00  0.00     0.116 C 
HETATM   10  C   UNK N   1      28.200  53.172  37.735  0.00  0.00     0.165 C 
HETATM   11  C   UNK N   1      27.435  52.130  38.480  0.00  0.00     0.050 A 
HETATM   12  C   UNK N   1      27.855  51.714  39.780  0.00  0.00    -0.030 A 
HETATM   13  C   UNK N   1      29.051  52.329  40.486  0.00  0.00     0.150 C 
HETATM   14  C   UNK N   1      27.103  50.751  40.471  0.00  0.00     0.045 A 
HETATM   15  C   UNK N   1      25.948  50.203  39.908  0.00  0.00     0.068 A 
HETATM   16  C   UNK N   1      25.542  50.594  38.633  0.00  0.00     0.074 A 
HETATM   17  C   UNK N   1      26.272  51.549  37.915  0.00  0.00     0.082 A 
HETATM   18  O   UNK N   1      29.418  53.146  37.736  0.00  0.00    -0.292 OA
HETATM   19  C   UNK N   1      30.137  56.085  42.314  0.00  0.00     0.040 C 
ENDROOT
BRANCH   8  20
HETATM   20  O   UNK N   1      26.864  56.654  37.496  0.00  0.00    -0.390 OA
HETATM   21  C   UNK N   1      25.813  56.830  38.426  0.00  0.00     0.202 C 
ENDBRANCH   8  20
BRANCH  17  22
HETATM   22  O   UNK N   1      25.873  51.890  36.669  0.00  0.00    -0.360 OA
HETATM   23  H   UNK N   1      25.233  51.359  36.173  0.00  0.00     0.217 HD
ENDBRANCH  17  22
BRANCH  15  24
HETATM   24  O   UNK N   1      25.214  49.301  40.591  0.00  0.00    -0.361 OA
HETATM   25  H   UNK N   1      24.248  49.283  40.532  0.00  0.00     0.217 HD
ENDBRANCH  15  24
TORSDOF 3
ENDMDL
MODEL 4
REMARK VINA RESULT:      -4.8      2.208      6.029
REMARK  3 active torsions:
REMARK  status: ('A' for Active; 'I' for Inactive)
REMARK    1  A    between atoms: C_8  and  O_9 
REMARK    2  A    between atoms: C_17  and  O_18 
REMARK    3  A    between atoms: C_21  and  O_22 
ROOT
HETATM    1  O   UNK N   1      28.851  52.081  40.412  0.00  0.00    -0.265 OA
HETATM    2  C   UNK N   1      29.952  52.558  40.167  0.00  0.00     0.263 C 
HETATM    3  O   UNK N   1      31.047  52.152  40.863  0.00  0.00    -0.316 OA
HETATM    4  C   UNK N   1      31.071  51.041  41.698  0.00  0.00     0.127 C 
HETATM    5  C   UNK N   1      32.376  51.035  42.513  0.00  0.00     0.032 C 
HETATM    6  C   UNK N   1      32.514  52.090  43.639  0.00  0.00     0.005 C 
HETATM    7  C   UNK N   1      32.379  53.566  43.216  0.00  0.00     0.032 C 
HETATM    8  C   UNK N   1      30.931  54.113  43.342  0.00  0.00     0.128 C 
HETATM    9  C   UNK N   1      30.785  55.546  42.771  0.00  0.00     0.116 C 
HETATM   10  C   UNK N   1      30.833  55.508  41.261  0.00  0.00     0.165 C 
HETATM   11  C   UNK N   1      29.593  55.722  40.458  0.00  0.00     0.050 A 
HETATM   12  C   UNK N   1      29.248  54.822  39.405  0.00  0.00    -0.030 A 
HETATM   13  C   UNK N   1      30.078  53.593  39.078  0.00  0.00     0.150 C 
HETATM   14  C   UNK N   1      28.064  55.032  38.682  0.00  0.00     0.045 A 
HETATM   15  C   UNK N   1      27.218  56.101  38.984  0.00  0.00     0.068 A 
HETATM   16  C   UNK N   1      27.558  56.991  40.001  0.00  0.00     0.074 A 
HETATM   17  C   UNK N   1      28.734  56.813  40.738  0.00  0.00     0.082 A 
HETATM   18  O   UNK N   1      31.866  55.179  40.705  0.00  0.00    -0.292 OA
HETATM   19  C   UNK N   1      31.000  49.763  40.842  0.00  0.00     0.040 C 
ENDROOT
BRANCH   8  20
HETATM   20  O   UNK N   1      30.595  54.123  44.723  0.00  0.00    -0.390 OA
HETATM   21  C   UNK N   1      31.638  54.678  45.501  0.00  0.00     0.202 C 
ENDBRANCH   8  20
BRANCH  17  22
HETATM   22  O   UNK N   1      29.056  57.708  41.701  0.00  0.00    -0.360 OA
HETATM   23  H   UNK N   1      29.871  57.633  42.218  0.00  0.00     0.217 HD
ENDBRANCH  17  22
BRANCH  15  24
HETATM   24  O   UNK N   1      26.066  56.277  38.304  0.00  0.00    -0.361 OA
HETATM   25  H   UNK N   1      26.056  56.646  37.409  0.00  0.00     0.217 HD
ENDBRANCH  15  24
TORSDOF 3
ENDMDL
MODEL 5
REMARK VINA RESULT:      -4.8     22.078     23.344
REMARK  3 active torsions:
REMARK  status: ('A' for Active; 'I' for Inactive)
REMARK    1  A    between atoms: C_8  and  O_9 
REMARK    2  A    between atoms: C_17  and  O_18 
REMARK    3  A    between atoms: C_21  and  O_22 
ROOT
HETATM    1  O   UNK N   1      35.106  44.108  60.184  0.00  0.00    -0.265 OA
HETATM    2  C   UNK N   1      34.881  43.752  61.334  0.00  0.00     0.263 C 
HETATM    3  O   UNK N   1      33.756  43.049  61.629  0.00  0.00    -0.316 OA
HETATM    4  C   UNK N   1      32.922  42.479  60.674  0.00  0.00     0.127 C 
HETATM    5  C   UNK N   1      31.625  41.995  61.344  0.00  0.00     0.032 C 
HETATM    6  C   UNK N   1      30.621  43.078  61.814  0.00  0.00     0.005 C 
HETATM    7  C   UNK N   1      31.156  44.121  62.814  0.00  0.00     0.032 C 
HETATM    8  C   UNK N   1      31.704  45.404  62.131  0.00  0.00     0.128 C 
HETATM    9  C   UNK N   1      32.374  46.373  63.138  0.00  0.00     0.116 C 
HETATM   10  C   UNK N   1      33.710  45.818  63.578  0.00  0.00     0.165 C 
HETATM   11  C   UNK N   1      34.982  46.425  63.088  0.00  0.00     0.050 A 
HETATM   12  C   UNK N   1      36.019  45.601  62.556  0.00  0.00    -0.030 A 
HETATM   13  C   UNK N   1      35.874  44.095  62.416  0.00  0.00     0.150 C 
HETATM   14  C   UNK N   1      37.195  46.199  62.077  0.00  0.00     0.045 A 
HETATM   15  C   UNK N   1      37.359  47.586  62.107  0.00  0.00     0.068 A 
HETATM   16  C   UNK N   1      36.355  48.393  62.639  0.00  0.00     0.074 A 
HETATM   17  C   UNK N   1      35.172  47.828  63.129  0.00  0.00     0.082 A 
HETATM   18  O   UNK N   1      33.742  44.794  64.239  0.00  0.00    -0.292 OA
HETATM   19  C   UNK N   1      33.639  41.279  60.027  0.00  0.00     0.040 C 
ENDROOT
BRANCH   8  20
HETATM   20  O   UNK N   1      30.608  46.060  61.509  0.00  0.00    -0.390 OA
HETATM   21  C   UNK N   1      30.125  47.123  62.307  0.00  0.00     0.202 C 
ENDBRANCH   8  20
BRANCH  17  22
HETATM   22  O   UNK N   1      34.226  48.631  63.666  0.00  0.00    -0.360 OA
HETATM   23  H   UNK N   1      33.297  48.364  63.718  0.00  0.00     0.217 HD
ENDBRANCH  17  22
BRANCH  15  24
HETATM   24  O   UNK N   1      38.479  48.154  61.617  0.00  0.00    -0.361 OA
HETATM   25  H   UNK N   1      39.232  47.621  61.323  0.00  0.00     0.217 HD
ENDBRANCH  15  24
TORSDOF 3
ENDMDL
MODEL 6
REMARK VINA RESULT:      -4.7      2.805      4.740
REMARK  3 active torsions:
REMARK  status: ('A' for Active; 'I' for Inactive)
REMARK    1  A    between atoms: C_8  and  O_9 
REMARK    2  A    between atoms: C_17  and  O_18 
REMARK    3  A    between atoms: C_21  and  O_22 
ROOT
HETATM    1  O   UNK N   1      27.073  54.613  42.313  0.00  0.00    -0.265 OA
HETATM    2  C   UNK N   1      27.810  55.586  42.408  0.00  0.00     0.263 C 
HETATM    3  O   UNK N   1      27.300  56.845  42.345  0.00  0.00    -0.316 OA
HETATM    4  C   UNK N   1      25.943  57.138  42.416  0.00  0.00     0.127 C 
HETATM    5  C   UNK N   1      25.715  58.615  42.051  0.00  0.00     0.032 C 
HETATM    6  C   UNK N   1      25.893  59.015  40.565  0.00  0.00     0.005 C 
HETATM    7  C   UNK N   1      27.266  58.713  39.933  0.00  0.00     0.032 C 
HETATM    8  C   UNK N   1      27.326  57.335  39.220  0.00  0.00     0.128 C 
HETATM    9  C   UNK N   1      28.751  56.984  38.725  0.00  0.00     0.116 C 
HETATM   10  C   UNK N   1      29.631  56.618  39.899  0.00  0.00     0.165 C 
HETATM   11  C   UNK N   1      30.027  55.200  40.136  0.00  0.00     0.050 A 
HETATM   12  C   UNK N   1      29.885  54.614  41.430  0.00  0.00    -0.030 A 
HETATM   13  C   UNK N   1      29.290  55.370  42.606  0.00  0.00     0.150 C 
HETATM   14  C   UNK N   1      30.242  53.270  41.620  0.00  0.00     0.045 A 
HETATM   15  C   UNK N   1      30.724  52.499  40.561  0.00  0.00     0.068 A 
HETATM   16  C   UNK N   1      30.879  53.069  39.299  0.00  0.00     0.074 A 
HETATM   17  C   UNK N   1      30.537  54.409  39.076  0.00  0.00     0.082 A 
HETATM   18  O   UNK N   1      29.913  57.472  40.721  0.00  0.00    -0.292 OA
HETATM   19  C   UNK N   1      25.445  56.885  43.851  0.00  0.00     0.040 C 
ENDROOT
BRANCH   8  20
HETATM   20  O   UNK N   1      26.444  57.390  38.107  0.00  0.00    -0.390 OA
HETATM   21  C   UNK N   1      27.136  57.717  36.918  0.00  0.00     0.202 C 
ENDBRANCH   8  20
BRANCH  17  22
HETATM   22  O   UNK N   1      30.724  54.946  37.850  0.00  0.00    -0.360 OA
HETATM   23  H   UNK N   1      31.123  55.820  37.729  0.00  0.00     0.217 HD
ENDBRANCH  17  22
BRANCH  15  24
HETATM   24  O   UNK N   1      31.035  51.199  40.745  0.00  0.00    -0.361 OA
HETATM   25  H   UNK N   1      30.642  50.680  41.462  0.00  0.00     0.217 HD
ENDBRANCH  15  24
TORSDOF 3
ENDMDL
MODEL 7
REMARK VINA RESULT:      -4.7     19.142     22.057
REMARK  3 active torsions:
REMARK  status: ('A' for Active; 'I' for Inactive)
REMARK    1  A    between atoms: C_8  and  O_9 
REMARK    2  A    between atoms: C_17  and  O_18 
REMARK    3  A    between atoms: C_21  and  O_22 
ROOT
HETATM    1  O   UNK N   1      33.048  44.033  58.161  0.00  0.00    -0.265 OA
HETATM    2  C   UNK N   1      32.752  42.957  58.664  0.00  0.00     0.263 C 
HETATM    3  O   UNK N   1      31.526  42.410  58.449  0.00  0.00    -0.316 OA
HETATM    4  C   UNK N   1      30.629  42.866  57.490  0.00  0.00     0.127 C 
HETATM    5  C   UNK N   1      29.262  42.194  57.702  0.00  0.00     0.032 C 
HETATM    6  C   UNK N   1      28.432  42.644  58.930  0.00  0.00     0.005 C 
HETATM    7  C   UNK N   1      29.108  42.491  60.307  0.00  0.00     0.032 C 
HETATM    8  C   UNK N   1      29.860  43.769  60.770  0.00  0.00     0.128 C 
HETATM    9  C   UNK N   1      30.657  43.548  62.080  0.00  0.00     0.116 C 
HETATM   10  C   UNK N   1      31.882  42.706  61.803  0.00  0.00     0.165 C 
HETATM   11  C   UNK N   1      33.241  43.323  61.803  0.00  0.00     0.050 A 
HETATM   12  C   UNK N   1      34.146  43.082  60.725  0.00  0.00    -0.030 A 
HETATM   13  C   UNK N   1      33.769  42.242  59.517  0.00  0.00     0.150 C 
HETATM   14  C   UNK N   1      35.408  43.695  60.737  0.00  0.00     0.045 A 
HETATM   15  C   UNK N   1      35.786  44.541  61.782  0.00  0.00     0.068 A 
HETATM   16  C   UNK N   1      34.912  44.768  62.844  0.00  0.00     0.074 A 
HETATM   17  C   UNK N   1      33.647  44.168  62.866  0.00  0.00     0.082 A 
HETATM   18  O   UNK N   1      31.744  41.545  61.459  0.00  0.00    -0.292 OA
HETATM   19  C   UNK N   1      31.161  42.509  56.089  0.00  0.00     0.040 C 
ENDROOT
BRANCH   8  20
HETATM   20  O   UNK N   1      28.889  44.786  60.978  0.00  0.00    -0.390 OA
HETATM   21  C   UNK N   1      29.308  46.017  60.422  0.00  0.00     0.202 C 
ENDBRANCH   8  20
BRANCH  17  22
HETATM   22  O   UNK N   1      32.830  44.381  63.922  0.00  0.00    -0.360 OA
HETATM   23  H   UNK N   1      33.065  44.991  64.636  0.00  0.00     0.217 HD
ENDBRANCH  17  22
BRANCH  15  24
HETATM   24  O   UNK N   1      36.989  45.151  61.770  0.00  0.00    -0.361 OA
HETATM   25  H   UNK N   1      37.116  46.030  62.155  0.00  0.00     0.217 HD
ENDBRANCH  15  24
TORSDOF 3
ENDMDL
MODEL 8
REMARK VINA RESULT:      -4.7     19.823     22.286
REMARK  3 active torsions:
REMARK  status: ('A' for Active; 'I' for Inactive)
REMARK    1  A    between atoms: C_8  and  O_9 
REMARK    2  A    between atoms: C_17  and  O_18 
REMARK    3  A    between atoms: C_21  and  O_22 
ROOT
HETATM    1  O   UNK N   1      31.911  38.484  60.056  0.00  0.00    -0.265 OA
HETATM    2  C   UNK N   1      30.855  39.040  60.326  0.00  0.00     0.263 C 
HETATM    3  O   UNK N   1      29.669  38.461  59.998  0.00  0.00    -0.316 OA
HETATM    4  C   UNK N   1      29.537  37.143  59.575  0.00  0.00     0.127 C 
HETATM    5  C   UNK N   1      28.112  36.911  59.045  0.00  0.00     0.032 C 
HETATM    6  C   UNK N   1      27.746  37.557  57.686  0.00  0.00     0.005 C 
HETATM    7  C   UNK N   1      27.904  39.087  57.588  0.00  0.00     0.032 C 
HETATM    8  C   UNK N   1      29.289  39.530  57.044  0.00  0.00     0.128 C 
HETATM    9  C   UNK N   1      29.485  41.066  57.097  0.00  0.00     0.116 C 
HETATM   10  C   UNK N   1      29.701  41.510  58.526  0.00  0.00     0.165 C 
HETATM   11  C   UNK N   1      31.053  41.939  58.990  0.00  0.00     0.050 A 
HETATM   12  C   UNK N   1      31.605  41.411  60.197  0.00  0.00    -0.030 A 
HETATM   13  C   UNK N   1      30.885  40.370  61.036  0.00  0.00     0.150 C 
HETATM   14  C   UNK N   1      32.889  41.811  60.597  0.00  0.00     0.045 A 
HETATM   15  C   UNK N   1      33.634  42.708  59.829  0.00  0.00     0.068 A 
HETATM   16  C   UNK N   1      33.094  43.237  58.658  0.00  0.00     0.074 A 
HETATM   17  C   UNK N   1      31.814  42.863  58.233  0.00  0.00     0.082 A 
HETATM   18  O   UNK N   1      28.791  41.400  59.329  0.00  0.00    -0.292 OA
HETATM   19  C   UNK N   1      29.798  36.202  60.766  0.00  0.00     0.040 C 
ENDROOT
BRANCH   8  20
HETATM   20  O   UNK N   1      29.379  39.092  55.695  0.00  0.00    -0.390 OA
HETATM   21  C   UNK N   1      29.839  40.128  54.849  0.00  0.00     0.202 C 
ENDBRANCH   8  20
BRANCH  17  22
HETATM   22  O   UNK N   1      31.301  43.413  57.108  0.00  0.00    -0.360 OA
HETATM   23  H   UNK N   1      30.444  43.862  57.103  0.00  0.00     0.217 HD
ENDBRANCH  17  22
BRANCH  15  24
HETATM   24  O   UNK N   1      34.880  43.063  60.205  0.00  0.00    -0.361 OA
HETATM   25  H   UNK N   1      35.301  42.681  60.990  0.00  0.00     0.217 HD
ENDBRANCH  15  24
TORSDOF 3
ENDMDL
MODEL 9
REMARK VINA RESULT:      -4.7     15.422     18.091
REMARK  3 active torsions:
REMARK  status: ('A' for Active; 'I' for Inactive)
REMARK    1  A    between atoms: C_8  and  O_9 
REMARK    2  A    between atoms: C_17  and  O_18 
REMARK    3  A    between atoms: C_21  and  O_22 
ROOT
HETATM    1  O   UNK N   1      26.167  46.351  56.963  0.00  0.00    -0.265 OA
HETATM    2  C   UNK N   1      26.622  46.775  58.018  0.00  0.00     0.263 C 
HETATM    3  O   UNK N   1      26.578  48.104  58.301  0.00  0.00    -0.316 OA
HETATM    4  C   UNK N   1      25.832  49.029  57.580  0.00  0.00     0.127 C 
HETATM    5  C   UNK N   1      26.222  50.454  58.009  0.00  0.00     0.032 C 
HETATM    6  C   UNK N   1      27.609  50.976  57.561  0.00  0.00     0.005 C 
HETATM    7  C   UNK N   1      28.830  50.140  57.994  0.00  0.00     0.032 C 
HETATM    8  C   UNK N   1      29.260  49.085  56.939  0.00  0.00     0.128 C 
HETATM    9  C   UNK N   1      30.388  48.155  57.453  0.00  0.00     0.116 C 
HETATM   10  C   UNK N   1      29.832  47.182  58.467  0.00  0.00     0.165 C 
HETATM   11  C   UNK N   1      29.648  45.743  58.115  0.00  0.00     0.050 A 
HETATM   12  C   UNK N   1      28.412  45.083  58.391  0.00  0.00    -0.030 A 
HETATM   13  C   UNK N   1      27.222  45.802  59.002  0.00  0.00     0.150 C 
HETATM   14  C   UNK N   1      28.255  43.737  58.025  0.00  0.00     0.045 A 
HETATM   15  C   UNK N   1      29.286  43.041  57.390  0.00  0.00     0.068 A 
HETATM   16  C   UNK N   1      30.499  43.676  57.132  0.00  0.00     0.074 A 
HETATM   17  C   UNK N   1      30.690  45.017  57.488  0.00  0.00     0.082 A 
HETATM   18  O   UNK N   1      29.422  47.602  59.535  0.00  0.00    -0.292 OA
HETATM   19  C   UNK N   1      24.336  48.803  57.864  0.00  0.00     0.040 C 
ENDROOT
BRANCH   8  20
HETATM   20  O   UNK N   1      29.719  49.788  55.792  0.00  0.00    -0.390 OA
HETATM   21  C   UNK N   1      31.110  50.029  55.860  0.00  0.00     0.202 C 
ENDBRANCH   8  20
BRANCH  17  22
HETATM   22  O   UNK N   1      31.887  45.602  57.253  0.00  0.00    -0.360 OA
HETATM   23  H   UNK N   1      32.356  45.488  56.413  0.00  0.00     0.217 HD
ENDBRANCH  17  22
BRANCH  15  24
HETATM   24  O   UNK N   1      29.116  41.757  57.015  0.00  0.00    -0.361 OA
HETATM   25  H   UNK N   1      29.184  41.486  56.088  0.00  0.00     0.217 HD
ENDBRANCH  15  24
TORSDOF 3
ENDMDL
