MODEL 1
REMARK VINA RESULT:      -5.2      0.000      0.000
REMARK  4 active torsions:
REMARK  status: ('A' for Active; 'I' for Inactive)
REMARK    1  A    between atoms: C_4  and  C_5 
REMARK    2  A    between atoms: C_14  and  C_17 
REMARK    3  A    between atoms: C_17  and  O_18 
REMARK    4  A    between atoms: C_23  and  O_24 
ROOT
HETATM    1  O   UNK N   1      32.476  44.387  56.996  0.00  0.00    -0.264 OA
HETATM    2  C   UNK N   1      31.526  44.978  57.481  0.00  0.00     0.269 C 
HETATM    3  O   UNK N   1      31.345  46.293  57.300  0.00  0.00    -0.311 OA
HETATM    4  C   UNK N   1      30.356  46.777  58.118  0.00  0.00     0.168 C 
HETATM    5  C   UNK N   1      29.492  45.527  58.374  0.00  0.00     0.058 C 
HETATM    6  C   UNK N   1      30.534  44.356  58.430  0.00  0.00     0.059 C 
HETATM    7  C   UNK N   1      31.097  44.226  59.886  0.00  0.00     0.020 C 
HETATM    8  C   UNK N   1      29.962  43.693  60.889  0.00  0.00     0.045 C 
HETATM    9  C   UNK N   1      30.533  43.276  62.291  0.00  0.00     0.094 C 
HETATM   10  O   UNK N   1      30.409  44.600  62.763  0.00  0.00    -0.376 OA
HETATM   11  C   UNK N   1      29.491  44.892  61.721  0.00  0.00     0.184 C 
HETATM   12  C   UNK N   1      31.965  42.686  62.284  0.00  0.00     0.041 C 
HETATM   13  C   UNK N   1      32.936  43.401  61.366  0.00  0.00     0.004 C 
HETATM   14  C   UNK N   1      32.389  43.383  59.946  0.00  0.00     0.007 C 
HETATM   15  C   UNK N   1      28.813  42.887  60.155  0.00  0.00     0.132 C 
HETATM   16  C   UNK N   1      29.411  42.045  59.023  0.00  0.00     0.038 C 
HETATM   17  C   UNK N   1      30.040  42.940  57.914  0.00  0.00     0.003 C 
HETATM   18  C   UNK N   1      29.132  43.012  56.672  0.00  0.00     0.011 C 
ENDROOT
BRANCH   4  19
HETATM   19  C   UNK N   1      29.584  47.897  57.482  0.00  0.00    -0.005 A 
HETATM   20  C   UNK N   1      28.213  47.985  57.366  0.00  0.00     0.151 A 
HETATM   21  O   UNK N   1      27.905  49.107  56.755  0.00  0.00    -0.334 OA
HETATM   22  C   UNK N   1      29.012  49.757  56.460  0.00  0.00     0.142 A 
HETATM   23  C   UNK N   1      30.100  49.036  56.904  0.00  0.00     0.036 A 
ENDBRANCH   4  19
BRANCH   9  24
HETATM   24  C   UNK N   1      29.652  42.394  63.228  0.00  0.00     0.203 C 
BRANCH  24  25
HETATM   25  O   UNK N   1      29.924  41.030  63.022  0.00  0.00    -0.398 OA
HETATM   26  H   UNK N   1      29.860  40.858  62.046  0.00  0.00     0.209 HD
ENDBRANCH  24  25
ENDBRANCH   9  24
BRANCH  15  27
HETATM   27  O   UNK N   1      28.009  42.128  61.024  0.00  0.00    -0.395 OA
HETATM   28  H   UNK N   1      28.594  41.574  61.604  0.00  0.00     0.210 HD
ENDBRANCH  15  27
TORSDOF 4
ENDMDL
MODEL 2
REMARK VINA RESULT:      -5.1      2.592      5.506
REMARK  4 active torsions:
REMARK  status: ('A' for Active; 'I' for Inactive)
REMARK    1  A    between atoms: C_4  and  C_5 
REMARK    2  A    between atoms: C_14  and  C_17 
REMARK    3  A    between atoms: C_17  and  O_18 
REMARK    4  A    between atoms: C_23  and  O_24 
ROOT
HETATM    1  O   UNK N   1      32.636  43.321  56.579  0.00  0.00    -0.264 OA
HETATM    2  C   UNK N   1      31.475  42.956  56.652  0.00  0.00     0.269 C 
HETATM    3  O   UNK N   1      30.880  42.287  55.656  0.00  0.00    -0.311 OA
HETATM    4  C   UNK N   1      29.528  42.187  55.861  0.00  0.00     0.168 C 
HETATM    5  C   UNK N   1      29.412  42.300  57.394  0.00  0.00     0.058 C 
HETATM    6  C   UNK N   1      30.542  43.316  57.781  0.00  0.00     0.059 C 
HETATM    7  C   UNK N   1      29.994  44.779  57.663  0.00  0.00     0.020 C 
HETATM    8  C   UNK N   1      28.899  45.069  58.802  0.00  0.00     0.045 C 
HETATM    9  C   UNK N   1      28.523  46.589  58.913  0.00  0.00     0.094 C 
HETATM   10  O   UNK N   1      27.533  46.443  57.918  0.00  0.00    -0.376 OA
HETATM   11  C   UNK N   1      27.523  45.040  58.126  0.00  0.00     0.184 C 
HETATM   12  C   UNK N   1      29.664  47.588  58.598  0.00  0.00     0.041 C 
HETATM   13  C   UNK N   1      30.521  47.210  57.407  0.00  0.00     0.004 C 
HETATM   14  C   UNK N   1      31.123  45.831  57.640  0.00  0.00     0.007 C 
HETATM   15  C   UNK N   1      29.052  44.127  60.065  0.00  0.00     0.132 C 
HETATM   16  C   UNK N   1      30.537  43.885  60.356  0.00  0.00     0.038 C 
HETATM   17  C   UNK N   1      31.229  43.109  59.195  0.00  0.00     0.003 C 
HETATM   18  C   UNK N   1      31.456  41.631  59.567  0.00  0.00     0.011 C 
ENDROOT
BRANCH   4  19
HETATM   19  C   UNK N   1      28.961  40.902  55.328  0.00  0.00    -0.005 A 
HETATM   20  C   UNK N   1      27.640  40.655  55.019  0.00  0.00     0.151 A 
HETATM   21  O   UNK N   1      27.526  39.422  54.580  0.00  0.00    -0.334 OA
HETATM   22  C   UNK N   1      28.710  38.847  54.592  0.00  0.00     0.142 A 
HETATM   23  C   UNK N   1      29.651  39.743  55.051  0.00  0.00     0.036 A 
ENDBRANCH   4  19
BRANCH   9  24
HETATM   24  C   UNK N   1      27.785  47.088  60.193  0.00  0.00     0.203 C 
BRANCH  24  25
HETATM   25  O   UNK N   1      28.710  47.501  61.167  0.00  0.00    -0.398 OA
HETATM   26  H   UNK N   1      28.793  48.488  61.100  0.00  0.00     0.209 HD
ENDBRANCH  24  25
ENDBRANCH   9  24
BRANCH  15  27
HETATM   27  O   UNK N   1      28.349  44.577  61.196  0.00  0.00    -0.395 OA
HETATM   28  H   UNK N   1      27.668  43.899  61.445  0.00  0.00     0.210 HD
ENDBRANCH  15  27
TORSDOF 4
ENDMDL
MODEL 3
REMARK VINA RESULT:      -5.1      4.249      7.339
REMARK  4 active torsions:
REMARK  status: ('A' for Active; 'I' for Inactive)
REMARK    1  A    between atoms: C_4  and  C_5 
REMARK    2  A    between atoms: C_14  and  C_17 
REMARK    3  A    between atoms: C_17  and  O_18 
REMARK    4  A    between atoms: C_23  and  O_24 
ROOT
HETATM    1  O   UNK N   1      32.214  43.128  64.769  0.00  0.00    -0.264 OA
HETATM    2  C   UNK N   1      32.568  43.397  63.634  0.00  0.00     0.269 C 
HETATM    3  O   UNK N   1      32.279  42.601  62.595  0.00  0.00    -0.311 OA
HETATM    4  C   UNK N   1      32.968  42.978  61.472  0.00  0.00     0.168 C 
HETATM    5  C   UNK N   1      33.233  44.474  61.728  0.00  0.00     0.058 C 
HETATM    6  C   UNK N   1      33.466  44.554  63.277  0.00  0.00     0.059 C 
HETATM    7  C   UNK N   1      34.972  44.265  63.595  0.00  0.00     0.020 C 
HETATM    8  C   UNK N   1      35.905  45.462  63.070  0.00  0.00     0.045 C 
HETATM    9  C   UNK N   1      37.378  45.367  63.604  0.00  0.00     0.094 C 
HETATM   10  O   UNK N   1      37.742  44.534  62.526  0.00  0.00    -0.376 OA
HETATM   11  C   UNK N   1      36.604  44.968  61.798  0.00  0.00     0.184 C 
HETATM   12  C   UNK N   1      37.542  44.761  65.019  0.00  0.00     0.041 C 
HETATM   13  C   UNK N   1      36.666  43.554  65.292  0.00  0.00     0.004 C 
HETATM   14  C   UNK N   1      35.207  43.937  65.085  0.00  0.00     0.007 C 
HETATM   15  C   UNK N   1      35.129  46.835  62.925  0.00  0.00     0.132 C 
HETATM   16  C   UNK N   1      34.118  46.984  64.066  0.00  0.00     0.038 C 
HETATM   17  C   UNK N   1      33.009  45.892  63.996  0.00  0.00     0.003 C 
HETATM   18  C   UNK N   1      31.688  46.471  63.453  0.00  0.00     0.011 C 
ENDROOT
BRANCH   4  19
HETATM   19  C   UNK N   1      32.188  42.733  60.212  0.00  0.00    -0.005 A 
HETATM   20  C   UNK N   1      32.605  42.999  58.925  0.00  0.00     0.151 A 
HETATM   21  O   UNK N   1      31.655  42.652  58.086  0.00  0.00    -0.334 OA
HETATM   22  C   UNK N   1      30.633  42.174  58.764  0.00  0.00     0.142 A 
HETATM   23  C   UNK N   1      30.923  42.199  60.111  0.00  0.00     0.036 A 
ENDBRANCH   4  19
BRANCH   9  24
HETATM   24  C   UNK N   1      38.293  46.627  63.510  0.00  0.00     0.203 C 
BRANCH  24  25
HETATM   25  O   UNK N   1      38.182  47.405  64.676  0.00  0.00    -0.398 OA
HETATM   26  H   UNK N   1      38.493  48.321  64.454  0.00  0.00     0.209 HD
ENDBRANCH  24  25
ENDBRANCH   9  24
BRANCH  15  27
HETATM   27  O   UNK N   1      35.974  47.953  62.806  0.00  0.00    -0.395 OA
HETATM   28  H   UNK N   1      36.910  47.671  62.980  0.00  0.00     0.210 HD
ENDBRANCH  15  27
TORSDOF 4
ENDMDL
MODEL 4
REMARK VINA RESULT:      -5.0      4.479      8.128
REMARK  4 active torsions:
REMARK  status: ('A' for Active; 'I' for Inactive)
REMARK    1  A    between atoms: C_4  and  C_5 
REMARK    2  A    between atoms: C_14  and  C_17 
REMARK    3  A    between atoms: C_17  and  O_18 
REMARK    4  A    between atoms: C_23  and  O_24 
ROOT
HETATM    1  O   UNK N   1      26.354  43.346  57.255  0.00  0.00    -0.264 OA
HETATM    2  C   UNK N   1      27.452  42.999  56.854  0.00  0.00     0.269 C 
HETATM    3  O   UNK N   1      28.582  43.533  57.337  0.00  0.00    -0.311 OA
HETATM    4  C   UNK N   1      29.668  43.165  56.587  0.00  0.00     0.168 C 
HETATM    5  C   UNK N   1      29.208  41.833  55.962  0.00  0.00     0.058 C 
HETATM    6  C   UNK N   1      27.676  42.050  55.704  0.00  0.00     0.059 C 
HETATM    7  C   UNK N   1      27.472  42.737  54.312  0.00  0.00     0.020 C 
HETATM    8  C   UNK N   1      27.858  41.733  53.120  0.00  0.00     0.045 C 
HETATM    9  C   UNK N   1      27.410  42.258  51.710  0.00  0.00     0.094 C 
HETATM   10  O   UNK N   1      28.615  42.979  51.569  0.00  0.00    -0.376 OA
HETATM   11  C   UNK N   1      29.218  42.179  52.572  0.00  0.00     0.184 C 
HETATM   12  C   UNK N   1      26.108  43.096  51.687  0.00  0.00     0.041 C 
HETATM   13  C   UNK N   1      25.976  44.085  52.828  0.00  0.00     0.004 C 
HETATM   14  C   UNK N   1      26.058  43.337  54.151  0.00  0.00     0.007 C 
HETATM   15  C   UNK N   1      27.764  40.208  53.538  0.00  0.00     0.132 C 
HETATM   16  C   UNK N   1      26.568  39.998  54.473  0.00  0.00     0.038 C 
HETATM   17  C   UNK N   1      26.748  40.768  55.816  0.00  0.00     0.003 C 
HETATM   18  C   UNK N   1      27.139  39.814  56.959  0.00  0.00     0.011 C 
ENDROOT
BRANCH   4  19
HETATM   19  C   UNK N   1      30.914  43.019  57.413  0.00  0.00    -0.005 A 
HETATM   20  C   UNK N   1      32.201  43.311  57.014  0.00  0.00     0.151 A 
HETATM   21  O   UNK N   1      33.025  43.058  58.007  0.00  0.00    -0.334 OA
HETATM   22  C   UNK N   1      32.338  42.610  59.036  0.00  0.00     0.142 A 
HETATM   23  C   UNK N   1      30.998  42.572  58.713  0.00  0.00     0.036 A 
ENDBRANCH   4  19
BRANCH   9  24
HETATM   24  C   UNK N   1      27.359  41.256  50.516  0.00  0.00     0.203 C 
BRANCH  24  25
HETATM   25  O   UNK N   1      26.099  40.637  50.444  0.00  0.00    -0.398 OA
HETATM   26  H   UNK N   1      25.880  40.301  51.352  0.00  0.00     0.209 HD
ENDBRANCH  24  25
ENDBRANCH   9  24
BRANCH  15  27
HETATM   27  O   UNK N   1      27.756  39.321  52.447  0.00  0.00    -0.395 OA
HETATM   28  H   UNK N   1      28.685  39.023  52.266  0.00  0.00     0.210 HD
ENDBRANCH  15  27
TORSDOF 4
ENDMDL
MODEL 5
REMARK VINA RESULT:      -4.8     21.280     23.510
REMARK  4 active torsions:
REMARK  status: ('A' for Active; 'I' for Inactive)
REMARK    1  A    between atoms: C_4  and  C_5 
REMARK    2  A    between atoms: C_14  and  C_17 
REMARK    3  A    between atoms: C_17  and  O_18 
REMARK    4  A    between atoms: C_23  and  O_24 
ROOT
HETATM    1  O   UNK N   1      50.496  59.657  56.189  0.00  0.00    -0.264 OA
HETATM    2  C   UNK N   1      49.757  58.717  56.429  0.00  0.00     0.269 C 
HETATM    3  O   UNK N   1      48.929  58.719  57.482  0.00  0.00    -0.311 OA
HETATM    4  C   UNK N   1      48.374  57.482  57.682  0.00  0.00     0.168 C 
HETATM    5  C   UNK N   1      48.433  56.856  56.275  0.00  0.00     0.058 C 
HETATM    6  C   UNK N   1      49.772  57.411  55.675  0.00  0.00     0.059 C 
HETATM    7  C   UNK N   1      50.961  56.485  56.103  0.00  0.00     0.020 C 
HETATM    8  C   UNK N   1      50.856  55.054  55.381  0.00  0.00     0.045 C 
HETATM    9  C   UNK N   1      52.156  54.191  55.546  0.00  0.00     0.094 C 
HETATM   10  O   UNK N   1      51.686  53.671  56.770  0.00  0.00    -0.376 OA
HETATM   11  C   UNK N   1      50.362  54.052  56.431  0.00  0.00     0.184 C 
HETATM   12  C   UNK N   1      53.485  54.983  55.607  0.00  0.00     0.041 C 
HETATM   13  C   UNK N   1      53.427  56.247  56.441  0.00  0.00     0.004 C 
HETATM   14  C   UNK N   1      52.335  57.157  55.896  0.00  0.00     0.007 C 
HETATM   15  C   UNK N   1      50.016  55.097  54.039  0.00  0.00     0.132 C 
HETATM   16  C   UNK N   1      50.293  56.406  53.293  0.00  0.00     0.038 C 
HETATM   17  C   UNK N   1      49.805  57.643  54.106  0.00  0.00     0.003 C 
HETATM   18  C   UNK N   1      48.491  58.206  53.532  0.00  0.00     0.011 C 
ENDROOT
BRANCH   4  19
HETATM   19  C   UNK N   1      46.975  57.563  58.224  0.00  0.00    -0.005 A 
HETATM   20  C   UNK N   1      46.464  56.842  59.282  0.00  0.00     0.151 A 
HETATM   21  O   UNK N   1      45.207  57.181  59.464  0.00  0.00    -0.334 OA
HETATM   22  C   UNK N   1      44.870  58.088  58.571  0.00  0.00     0.142 A 
HETATM   23  C   UNK N   1      45.955  58.367  57.767  0.00  0.00     0.036 A 
ENDBRANCH   4  19
BRANCH   9  24
HETATM   24  C   UNK N   1      52.367  52.965  54.605  0.00  0.00     0.203 C 
BRANCH  24  25
HETATM   25  O   UNK N   1      53.020  53.357  53.423  0.00  0.00    -0.398 OA
HETATM   26  H   UNK N   1      53.972  53.090  53.504  0.00  0.00     0.209 HD
ENDBRANCH  24  25
ENDBRANCH   9  24
BRANCH  15  27
HETATM   27  O   UNK N   1      50.194  53.965  53.223  0.00  0.00    -0.395 OA
HETATM   28  H   UNK N   1      51.135  53.939  52.907  0.00  0.00     0.210 HD
ENDBRANCH  15  27
TORSDOF 4
ENDMDL
MODEL 6
REMARK VINA RESULT:      -4.6      3.188      6.807
REMARK  4 active torsions:
REMARK  status: ('A' for Active; 'I' for Inactive)
REMARK    1  A    between atoms: C_4  and  C_5 
REMARK    2  A    between atoms: C_14  and  C_17 
REMARK    3  A    between atoms: C_17  and  O_18 
REMARK    4  A    between atoms: C_23  and  O_24 
ROOT
HETATM    1  O   UNK N   1      32.255  46.777  63.990  0.00  0.00    -0.264 OA
HETATM    2  C   UNK N   1      33.020  45.942  63.537  0.00  0.00     0.269 C 
HETATM    3  O   UNK N   1      34.327  46.192  63.380  0.00  0.00    -0.311 OA
HETATM    4  C   UNK N   1      34.938  45.206  62.648  0.00  0.00     0.168 C 
HETATM    5  C   UNK N   1      34.027  43.988  62.900  0.00  0.00     0.058 C 
HETATM    6  C   UNK N   1      32.588  44.608  62.984  0.00  0.00     0.059 C 
HETATM    7  C   UNK N   1      31.983  44.722  61.544  0.00  0.00     0.020 C 
HETATM    8  C   UNK N   1      31.671  43.267  60.941  0.00  0.00     0.045 C 
HETATM    9  C   UNK N   1      30.810  43.322  59.629  0.00  0.00     0.094 C 
HETATM   10  O   UNK N   1      31.973  43.461  58.842  0.00  0.00    -0.376 OA
HETATM   11  C   UNK N   1      32.762  42.959  59.908  0.00  0.00     0.184 C 
HETATM   12  C   UNK N   1      29.787  44.482  59.545  0.00  0.00     0.041 C 
HETATM   13  C   UNK N   1      30.305  45.815  60.047  0.00  0.00     0.004 C 
HETATM   14  C   UNK N   1      30.761  45.664  61.491  0.00  0.00     0.007 C 
HETATM   15  C   UNK N   1      31.466  42.163  62.058  0.00  0.00     0.132 C 
HETATM   16  C   UNK N   1      30.721  42.765  63.253  0.00  0.00     0.038 C 
HETATM   17  C   UNK N   1      31.558  43.882  63.947  0.00  0.00     0.003 C 
HETATM   18  C   UNK N   1      32.183  43.377  65.261  0.00  0.00     0.011 C 
ENDROOT
BRANCH   4  19
HETATM   19  C   UNK N   1      36.357  44.969  63.079  0.00  0.00    -0.005 A 
HETATM   20  C   UNK N   1      37.479  45.048  62.281  0.00  0.00     0.151 A 
HETATM   21  O   UNK N   1      38.541  44.778  63.007  0.00  0.00    -0.334 OA
HETATM   22  C   UNK N   1      38.166  44.521  64.243  0.00  0.00     0.142 A 
HETATM   23  C   UNK N   1      36.796  44.634  64.340  0.00  0.00     0.036 A 
ENDBRANCH   4  19
BRANCH   9  24
HETATM   24  C   UNK N   1      30.105  42.021  59.139  0.00  0.00     0.203 C 
BRANCH  24  25
HETATM   25  O   UNK N   1      28.813  41.923  59.685  0.00  0.00    -0.398 OA
HETATM   26  H   UNK N   1      28.631  40.962  59.850  0.00  0.00     0.209 HD
ENDBRANCH  24  25
ENDBRANCH   9  24
BRANCH  15  27
HETATM   27  O   UNK N   1      30.862  40.985  61.585  0.00  0.00    -0.395 OA
HETATM   28  H   UNK N   1      29.957  41.202  61.238  0.00  0.00     0.210 HD
ENDBRANCH  15  27
TORSDOF 4
ENDMDL
MODEL 7
REMARK VINA RESULT:      -4.3     20.587     23.061
REMARK  4 active torsions:
REMARK  status: ('A' for Active; 'I' for Inactive)
REMARK    1  A    between atoms: C_4  and  C_5 
REMARK    2  A    between atoms: C_14  and  C_17 
REMARK    3  A    between atoms: C_17  and  O_18 
REMARK    4  A    between atoms: C_23  and  O_24 
ROOT
HETATM    1  O   UNK N   1      50.512  52.975  57.751  0.00  0.00    -0.264 OA
HETATM    2  C   UNK N   1      49.706  53.862  57.980  0.00  0.00     0.269 C 
HETATM    3  O   UNK N   1      48.507  53.604  58.521  0.00  0.00    -0.311 OA
HETATM    4  C   UNK N   1      47.692  54.705  58.472  0.00  0.00     0.168 C 
HETATM    5  C   UNK N   1      48.702  55.869  58.428  0.00  0.00     0.058 C 
HETATM    6  C   UNK N   1      49.890  55.301  57.574  0.00  0.00     0.059 C 
HETATM    7  C   UNK N   1      49.599  55.537  56.053  0.00  0.00     0.020 C 
HETATM    8  C   UNK N   1      49.668  57.101  55.696  0.00  0.00     0.045 C 
HETATM    9  C   UNK N   1      49.666  57.376  54.151  0.00  0.00     0.094 C 
HETATM   10  O   UNK N   1      48.256  57.374  54.126  0.00  0.00    -0.376 OA
HETATM   11  C   UNK N   1      48.225  57.592  55.527  0.00  0.00     0.184 C 
HETATM   12  C   UNK N   1      50.365  56.304  53.278  0.00  0.00     0.041 C 
HETATM   13  C   UNK N   1      50.082  54.874  53.690  0.00  0.00     0.004 C 
HETATM   14  C   UNK N   1      50.501  54.678  55.140  0.00  0.00     0.007 C 
HETATM   15  C   UNK N   1      50.549  57.933  56.716  0.00  0.00     0.132 C 
HETATM   16  C   UNK N   1      51.765  57.105  57.146  0.00  0.00     0.038 C 
HETATM   17  C   UNK N   1      51.340  55.830  57.935  0.00  0.00     0.003 C 
HETATM   18  C   UNK N   1      51.582  56.002  59.447  0.00  0.00     0.011 C 
ENDROOT
BRANCH   4  19
HETATM   19  C   UNK N   1      46.765  54.785  59.651  0.00  0.00    -0.005 A 
HETATM   20  C   UNK N   1      45.997  53.760  60.161  0.00  0.00     0.151 A 
HETATM   21  O   UNK N   1      45.317  54.206  61.193  0.00  0.00    -0.334 OA
HETATM   22  C   UNK N   1      45.600  55.478  61.381  0.00  0.00     0.142 A 
HETATM   23  C   UNK N   1      46.515  55.889  60.435  0.00  0.00     0.036 A 
ENDBRANCH   4  19
BRANCH   9  24
HETATM   24  C   UNK N   1      50.109  58.780  53.637  0.00  0.00     0.203 C 
BRANCH  24  25
HETATM   25  O   UNK N   1      51.486  58.790  53.353  0.00  0.00    -0.398 OA
HETATM   26  H   UNK N   1      51.628  59.401  52.584  0.00  0.00     0.209 HD
ENDBRANCH  24  25
ENDBRANCH   9  24
BRANCH  15  27
HETATM   27  O   UNK N   1      50.906  59.209  56.247  0.00  0.00    -0.395 OA
HETATM   28  H   UNK N   1      50.953  59.835  57.016  0.00  0.00     0.210 HD
ENDBRANCH  15  27
TORSDOF 4
ENDMDL
MODEL 8
REMARK VINA RESULT:      -4.3      2.001      4.033
REMARK  4 active torsions:
REMARK  status: ('A' for Active; 'I' for Inactive)
REMARK    1  A    between atoms: C_4  and  C_5 
REMARK    2  A    between atoms: C_14  and  C_17 
REMARK    3  A    between atoms: C_17  and  O_18 
REMARK    4  A    between atoms: C_23  and  O_24 
ROOT
HETATM    1  O   UNK N   1      26.370  45.746  57.757  0.00  0.00    -0.264 OA
HETATM    2  C   UNK N   1      27.402  46.384  57.887  0.00  0.00     0.269 C 
HETATM    3  O   UNK N   1      27.585  47.563  57.276  0.00  0.00    -0.311 OA
HETATM    4  C   UNK N   1      28.887  47.978  57.377  0.00  0.00     0.168 C 
HETATM    5  C   UNK N   1      29.369  47.264  58.655  0.00  0.00     0.058 C 
HETATM    6  C   UNK N   1      28.622  45.885  58.617  0.00  0.00     0.059 C 
HETATM    7  C   UNK N   1      29.453  44.863  57.770  0.00  0.00     0.020 C 
HETATM    8  C   UNK N   1      30.813  44.469  58.526  0.00  0.00     0.045 C 
HETATM    9  C   UNK N   1      31.546  43.246  57.868  0.00  0.00     0.094 C 
HETATM   10  O   UNK N   1      32.224  44.102  56.975  0.00  0.00    -0.376 OA
HETATM   11  C   UNK N   1      31.956  45.208  57.821  0.00  0.00     0.184 C 
HETATM   12  C   UNK N   1      30.626  42.179  57.225  0.00  0.00     0.041 C 
HETATM   13  C   UNK N   1      29.459  42.744  56.441  0.00  0.00     0.004 C 
HETATM   14  C   UNK N   1      28.623  43.629  57.355  0.00  0.00     0.007 C 
HETATM   15  C   UNK N   1      30.736  44.683  60.094  0.00  0.00     0.132 C 
HETATM   16  C   UNK N   1      29.341  44.304  60.602  0.00  0.00     0.038 C 
HETATM   17  C   UNK N   1      28.244  45.244  60.018  0.00  0.00     0.003 C 
HETATM   18  C   UNK N   1      27.772  46.271  61.065  0.00  0.00     0.011 C 
ENDROOT
BRANCH   4  19
HETATM   19  C   UNK N   1      29.006  49.473  57.467  0.00  0.00    -0.005 A 
HETATM   20  C   UNK N   1      29.674  50.296  56.586  0.00  0.00     0.151 A 
HETATM   21  O   UNK N   1      29.558  51.542  56.991  0.00  0.00    -0.334 OA
HETATM   22  C   UNK N   1      28.849  51.572  58.100  0.00  0.00     0.142 A 
HETATM   23  C   UNK N   1      28.472  50.290  58.439  0.00  0.00     0.036 A 
ENDBRANCH   4  19
BRANCH   9  24
HETATM   24  C   UNK N   1      32.649  42.504  58.683  0.00  0.00     0.203 C 
BRANCH  24  25
HETATM   25  O   UNK N   1      32.075  41.528  59.516  0.00  0.00    -0.398 OA
HETATM   26  H   UNK N   1      31.136  41.798  59.690  0.00  0.00     0.209 HD
ENDBRANCH  24  25
ENDBRANCH   9  24
BRANCH  15  27
HETATM   27  O   UNK N   1      31.761  44.035  60.805  0.00  0.00    -0.395 OA
HETATM   28  H   UNK N   1      31.355  43.430  61.480  0.00  0.00     0.210 HD
ENDBRANCH  15  27
TORSDOF 4
ENDMDL
MODEL 9
REMARK VINA RESULT:      -4.2      2.240      6.537
REMARK  4 active torsions:
REMARK  status: ('A' for Active; 'I' for Inactive)
REMARK    1  A    between atoms: C_4  and  C_5 
REMARK    2  A    between atoms: C_14  and  C_17 
REMARK    3  A    between atoms: C_17  and  O_18 
REMARK    4  A    between atoms: C_23  and  O_24 
ROOT
HETATM    1  O   UNK N   1      29.210  45.865  62.872  0.00  0.00    -0.264 OA
HETATM    2  C   UNK N   1      29.665  45.412  61.835  0.00  0.00     0.269 C 
HETATM    3  O   UNK N   1      30.811  44.718  61.810  0.00  0.00    -0.311 OA
HETATM    4  C   UNK N   1      31.240  44.512  60.524  0.00  0.00     0.168 C 
HETATM    5  C   UNK N   1      29.928  44.587  59.717  0.00  0.00     0.058 C 
HETATM    6  C   UNK N   1      29.089  45.678  60.468  0.00  0.00     0.059 C 
HETATM    7  C   UNK N   1      29.468  47.097  59.924  0.00  0.00     0.020 C 
HETATM    8  C   UNK N   1      28.956  47.282  58.413  0.00  0.00     0.045 C 
HETATM    9  C   UNK N   1      29.054  48.767  57.913  0.00  0.00     0.094 C 
HETATM   10  O   UNK N   1      30.387  48.565  57.496  0.00  0.00    -0.376 OA
HETATM   11  C   UNK N   1      30.181  47.161  57.500  0.00  0.00     0.184 C 
HETATM   12  C   UNK N   1      28.835  49.855  58.993  0.00  0.00     0.041 C 
HETATM   13  C   UNK N   1      29.501  49.565  60.323  0.00  0.00     0.004 C 
HETATM   14  C   UNK N   1      28.995  48.232  60.856  0.00  0.00     0.007 C 
HETATM   15  C   UNK N   1      27.744  46.330  58.047  0.00  0.00     0.132 C 
HETATM   16  C   UNK N   1      26.807  46.196  59.252  0.00  0.00     0.038 C 
HETATM   17  C   UNK N   1      27.513  45.497  60.453  0.00  0.00     0.003 C 
HETATM   18  C   UNK N   1      27.053  44.034  60.597  0.00  0.00     0.011 C 
ENDROOT
BRANCH   4  19
HETATM   19  C   UNK N   1      31.949  43.198  60.360  0.00  0.00    -0.005 A 
HETATM   20  C   UNK N   1      31.362  41.976  60.108  0.00  0.00     0.151 A 
HETATM   21  O   UNK N   1      32.299  41.058  60.028  0.00  0.00    -0.334 OA
HETATM   22  C   UNK N   1      33.474  41.622  60.219  0.00  0.00     0.142 A 
HETATM   23  C   UNK N   1      33.306  42.974  60.428  0.00  0.00     0.036 A 
ENDBRANCH   4  19
BRANCH   9  24
HETATM   24  C   UNK N   1      28.257  49.184  56.639  0.00  0.00     0.203 C 
BRANCH  24  25
HETATM   25  O   UNK N   1      29.108  49.801  55.705  0.00  0.00    -0.398 OA
HETATM   26  H   UNK N   1      30.025  49.455  55.863  0.00  0.00     0.209 HD
ENDBRANCH  24  25
ENDBRANCH   9  24
BRANCH  15  27
HETATM   27  O   UNK N   1      27.063  46.705  56.875  0.00  0.00    -0.395 OA
HETATM   28  H   UNK N   1      27.654  47.286  56.330  0.00  0.00     0.210 HD
ENDBRANCH  15  27
TORSDOF 4
ENDMDL
