MODEL 1
REMARK VINA RESULT:      -5.2      0.000      0.000
REMARK  3 active torsions:
REMARK  status: ('A' for Active; 'I' for Inactive)
REMARK    1  A    between atoms: C_15  and  O_16 
REMARK    2  A    between atoms: O_16  and  C_17 
REMARK    3  A    between atoms: C_22  and  C_23 
ROOT
HETATM    1  O   UNK N   1      34.459  43.391  58.900  0.00  0.00    -0.292 OA
HETATM    2  C   UNK N   1      33.330  42.954  58.723  0.00  0.00     0.157 C 
HETATM    3  C   UNK N   1      32.599  43.361  57.501  0.00  0.00     0.048 C 
HETATM    4  C   UNK N   1      31.292  43.106  57.327  0.00  0.00    -0.013 C 
HETATM    5  C   UNK N   1      30.437  42.435  58.410  0.00  0.00    -0.017 C 
HETATM    6  C   UNK N   1      31.375  41.412  59.159  0.00  0.00     0.013 C 
HETATM    7  C   UNK N   1      32.717  42.006  59.747  0.00  0.00     0.022 C 
HETATM    8  C   UNK N   1      33.724  40.844  59.975  0.00  0.00     0.024 C 
HETATM    9  C   UNK N   1      32.561  42.739  61.103  0.00  0.00     0.024 C 
HETATM   10  C   UNK N   1      30.577  40.525  60.146  0.00  0.00     0.007 C 
HETATM   11  C   UNK N   1      29.531  39.693  59.387  0.00  0.00     0.011 C 
HETATM   12  C   UNK N   1      28.484  40.542  58.607  0.00  0.00    -0.032 C 
HETATM   13  C   UNK N   1      27.575  39.587  57.669  0.00  0.00    -0.030 C 
HETATM   14  C   UNK N   1      26.720  40.402  56.633  0.00  0.00     0.031 C 
HETATM   15  C   UNK N   1      27.512  41.535  55.902  0.00  0.00     0.137 C 
HETATM   16  C   UNK N   1      28.261  42.440  56.888  0.00  0.00     0.039 C 
HETATM   17  C   UNK N   1      29.276  41.594  57.711  0.00  0.00     0.009 C 
HETATM   18  C   UNK N   1      26.213  39.292  55.661  0.00  0.00     0.028 C 
HETATM   19  C   UNK N   1      27.419  38.326  55.543  0.00  0.00     0.009 C 
HETATM   20  C   UNK N   1      28.359  38.642  56.727  0.00  0.00     0.011 C 
HETATM   21  C   UNK N   1      26.651  38.665  58.547  0.00  0.00     0.016 C 
HETATM   22  C   UNK N   1      27.555  41.244  59.653  0.00  0.00     0.016 C 
HETATM   23  C   UNK N   1      29.919  43.595  59.300  0.00  0.00     0.020 C 
ENDROOT
BRANCH  18  24
HETATM   24  C   UNK N   1      25.511  39.678  54.313  0.00  0.00     0.071 C 
HETATM   25  O   UNK N   1      25.203  41.017  54.250  0.00  0.00    -0.310 OA
HETATM   26  C   UNK N   1      25.431  41.532  53.031  0.00  0.00     0.259 C 
HETATM   27  O   UNK N   1      25.065  42.650  52.718  0.00  0.00    -0.265 OA
HETATM   28  C   UNK N   1      25.967  40.541  52.071  0.00  0.00     0.114 C 
HETATM   29  C   UNK N   1      26.441  39.489  53.079  0.00  0.00     0.048 C 
HETATM   30  C   UNK N   1      24.219  38.858  54.125  0.00  0.00     0.047 C 
ENDBRANCH  18  24
BRANCH  15  31
HETATM   31  O   UNK N   1      28.418  41.038  54.973  0.00  0.00    -0.316 OA
BRANCH  31  32
HETATM   32  C   UNK N   1      29.164  41.821  54.145  0.00  0.00     0.255 C 
HETATM   33  O   UNK N   1      28.628  42.572  53.340  0.00  0.00    -0.266 OA
HETATM   34  C   UNK N   1      30.652  41.726  54.187  0.00  0.00     0.126 C 
ENDBRANCH  31  32
ENDBRANCH  15  31
TORSDOF 3
ENDMDL
MODEL 2
REMARK VINA RESULT:      -5.2      2.234      7.560
REMARK  3 active torsions:
REMARK  status: ('A' for Active; 'I' for Inactive)
REMARK    1  A    between atoms: C_15  and  O_16 
REMARK    2  A    between atoms: O_16  and  C_17 
REMARK    3  A    between atoms: C_22  and  C_23 
ROOT
HETATM    1  O   UNK N   1      29.483  42.197  51.348  0.00  0.00    -0.292 OA
HETATM    2  C   UNK N   1      29.290  42.180  52.556  0.00  0.00     0.157 C 
HETATM    3  C   UNK N   1      30.447  41.958  53.453  0.00  0.00     0.048 C 
HETATM    4  C   UNK N   1      30.302  41.715  54.767  0.00  0.00    -0.013 C 
HETATM    5  C   UNK N   1      28.923  41.580  55.427  0.00  0.00    -0.017 C 
HETATM    6  C   UNK N   1      27.958  42.570  54.669  0.00  0.00     0.013 C 
HETATM    7  C   UNK N   1      27.882  42.398  53.099  0.00  0.00     0.022 C 
HETATM    8  C   UNK N   1      27.334  43.711  52.475  0.00  0.00     0.024 C 
HETATM    9  C   UNK N   1      26.959  41.251  52.618  0.00  0.00     0.024 C 
HETATM   10  C   UNK N   1      26.583  42.675  55.372  0.00  0.00     0.007 C 
HETATM   11  C   UNK N   1      26.753  43.226  56.796  0.00  0.00     0.011 C 
HETATM   12  C   UNK N   1      27.656  42.350  57.716  0.00  0.00    -0.032 C 
HETATM   13  C   UNK N   1      27.955  43.122  59.106  0.00  0.00    -0.030 C 
HETATM   14  C   UNK N   1      29.101  42.439  59.937  0.00  0.00     0.031 C 
HETATM   15  C   UNK N   1      30.352  42.036  59.089  0.00  0.00     0.137 C 
HETATM   16  C   UNK N   1      29.965  41.227  57.843  0.00  0.00     0.039 C 
HETATM   17  C   UNK N   1      29.020  42.073  56.941  0.00  0.00     0.009 C 
HETATM   18  C   UNK N   1      29.424  43.513  61.020  0.00  0.00     0.028 C 
HETATM   19  C   UNK N   1      29.297  44.856  60.257  0.00  0.00     0.009 C 
HETATM   20  C   UNK N   1      28.512  44.559  58.961  0.00  0.00     0.011 C 
HETATM   21  C   UNK N   1      26.644  43.242  59.966  0.00  0.00     0.016 C 
HETATM   22  C   UNK N   1      26.883  41.027  58.035  0.00  0.00     0.016 C 
HETATM   23  C   UNK N   1      28.544  40.082  55.280  0.00  0.00     0.020 C 
ENDROOT
BRANCH  18  24
HETATM   24  C   UNK N   1      30.689  43.362  61.935  0.00  0.00     0.071 C 
HETATM   25  O   UNK N   1      31.685  44.248  61.598  0.00  0.00    -0.310 OA
HETATM   26  C   UNK N   1      32.293  44.761  62.679  0.00  0.00     0.259 C 
HETATM   27  O   UNK N   1      33.309  45.427  62.600  0.00  0.00    -0.265 OA
HETATM   28  C   UNK N   1      31.735  44.259  63.955  0.00  0.00     0.114 C 
HETATM   29  C   UNK N   1      30.400  43.730  63.419  0.00  0.00     0.048 C 
HETATM   30  C   UNK N   1      31.246  41.927  61.850  0.00  0.00     0.047 C 
ENDBRANCH  18  24
BRANCH  15  31
HETATM   31  O   UNK N   1      31.104  43.134  58.693  0.00  0.00    -0.316 OA
BRANCH  31  32
HETATM   32  C   UNK N   1      32.368  43.049  58.192  0.00  0.00     0.255 C 
HETATM   33  O   UNK N   1      32.599  43.322  57.021  0.00  0.00    -0.266 OA
HETATM   34  C   UNK N   1      33.476  42.572  59.071  0.00  0.00     0.126 C 
ENDBRANCH  31  32
ENDBRANCH  15  31
TORSDOF 3
ENDMDL
MODEL 3
REMARK VINA RESULT:      -5.2     17.738     20.782
REMARK  3 active torsions:
REMARK  status: ('A' for Active; 'I' for Inactive)
REMARK    1  A    between atoms: C_15  and  O_16 
REMARK    2  A    between atoms: O_16  and  C_17 
REMARK    3  A    between atoms: C_22  and  C_23 
ROOT
HETATM    1  O   UNK N   1      32.287  48.348  42.718  0.00  0.00    -0.292 OA
HETATM    2  C   UNK N   1      31.809  49.407  42.338  0.00  0.00     0.157 C 
HETATM    3  C   UNK N   1      30.780  49.376  41.273  0.00  0.00     0.048 C 
HETATM    4  C   UNK N   1      30.355  50.488  40.650  0.00  0.00    -0.013 C 
HETATM    5  C   UNK N   1      30.953  51.870  40.945  0.00  0.00    -0.017 C 
HETATM    6  C   UNK N   1      31.328  51.885  42.477  0.00  0.00     0.013 C 
HETATM    7  C   UNK N   1      32.270  50.715  42.971  0.00  0.00     0.022 C 
HETATM    8  C   UNK N   1      32.125  50.570  44.511  0.00  0.00     0.024 C 
HETATM    9  C   UNK N   1      33.775  50.929  42.678  0.00  0.00     0.024 C 
HETATM   10  C   UNK N   1      31.757  53.298  42.944  0.00  0.00     0.007 C 
HETATM   11  C   UNK N   1      30.601  54.293  42.761  0.00  0.00     0.011 C 
HETATM   12  C   UNK N   1      30.114  54.442  41.288  0.00  0.00    -0.032 C 
HETATM   13  C   UNK N   1      28.762  55.329  41.233  0.00  0.00    -0.030 C 
HETATM   14  C   UNK N   1      28.053  55.255  39.833  0.00  0.00     0.031 C 
HETATM   15  C   UNK N   1      27.954  53.810  39.242  0.00  0.00     0.137 C 
HETATM   16  C   UNK N   1      29.310  53.091  39.254  0.00  0.00     0.039 C 
HETATM   17  C   UNK N   1      29.832  52.982  40.716  0.00  0.00     0.009 C 
HETATM   18  C   UNK N   1      26.657  55.887  40.123  0.00  0.00     0.028 C 
HETATM   19  C   UNK N   1      26.305  55.369  41.541  0.00  0.00     0.009 C 
HETATM   20  C   UNK N   1      27.620  54.859  42.168  0.00  0.00     0.011 C 
HETATM   21  C   UNK N   1      29.063  56.823  41.623  0.00  0.00     0.016 C 
HETATM   22  C   UNK N   1      31.231  55.183  40.481  0.00  0.00     0.016 C 
HETATM   23  C   UNK N   1      32.168  52.002  39.989  0.00  0.00     0.020 C 
ENDROOT
BRANCH  18  24
HETATM   24  C   UNK N   1      25.510  55.801  39.058  0.00  0.00     0.071 C 
HETATM   25  O   UNK N   1      24.920  57.021  38.825  0.00  0.00    -0.310 OA
HETATM   26  C   UNK N   1      24.648  57.212  37.525  0.00  0.00     0.259 C 
HETATM   27  O   UNK N   1      23.974  58.147  37.132  0.00  0.00    -0.265 OA
HETATM   28  C   UNK N   1      25.061  56.077  36.670  0.00  0.00     0.114 C 
HETATM   29  C   UNK N   1      26.033  55.406  37.646  0.00  0.00     0.048 C 
HETATM   30  C   UNK N   1      24.427  54.801  39.513  0.00  0.00     0.047 C 
ENDBRANCH  18  24
BRANCH  15  31
HETATM   31  O   UNK N   1      27.024  53.024  39.910  0.00  0.00    -0.316 OA
BRANCH  31  32
HETATM   32  C   UNK N   1      26.598  51.808  39.466  0.00  0.00     0.255 C 
HETATM   33  O   UNK N   1      26.129  51.679  38.343  0.00  0.00    -0.266 OA
HETATM   34  C   UNK N   1      26.662  50.630  40.379  0.00  0.00     0.126 C 
ENDBRANCH  31  32
ENDBRANCH  15  31
TORSDOF 3
ENDMDL
MODEL 4
REMARK VINA RESULT:      -5.0      4.087      6.626
REMARK  3 active torsions:
REMARK  status: ('A' for Active; 'I' for Inactive)
REMARK    1  A    between atoms: C_15  and  O_16 
REMARK    2  A    between atoms: O_16  and  C_17 
REMARK    3  A    between atoms: C_22  and  C_23 
ROOT
HETATM    1  O   UNK N   1      26.311  50.706  56.616  0.00  0.00    -0.292 OA
HETATM    2  C   UNK N   1      26.862  49.696  57.032  0.00  0.00     0.157 C 
HETATM    3  C   UNK N   1      26.027  48.515  57.349  0.00  0.00     0.048 C 
HETATM    4  C   UNK N   1      26.511  47.447  58.003  0.00  0.00    -0.013 C 
HETATM    5  C   UNK N   1      27.950  47.395  58.534  0.00  0.00    -0.017 C 
HETATM    6  C   UNK N   1      28.841  48.198  57.510  0.00  0.00     0.013 C 
HETATM    7  C   UNK N   1      28.377  49.677  57.200  0.00  0.00     0.022 C 
HETATM    8  C   UNK N   1      29.007  50.129  55.853  0.00  0.00     0.024 C 
HETATM    9  C   UNK N   1      28.793  50.722  58.265  0.00  0.00     0.024 C 
HETATM   10  C   UNK N   1      30.349  48.049  57.829  0.00  0.00     0.007 C 
HETATM   11  C   UNK N   1      30.773  46.576  57.725  0.00  0.00     0.011 C 
HETATM   12  C   UNK N   1      30.017  45.624  58.700  0.00  0.00    -0.032 C 
HETATM   13  C   UNK N   1      30.367  44.081  58.359  0.00  0.00    -0.030 C 
HETATM   14  C   UNK N   1      29.408  43.073  59.089  0.00  0.00     0.031 C 
HETATM   15  C   UNK N   1      27.896  43.469  59.025  0.00  0.00     0.137 C 
HETATM   16  C   UNK N   1      27.664  44.922  59.458  0.00  0.00     0.039 C 
HETATM   17  C   UNK N   1      28.455  45.882  58.523  0.00  0.00     0.009 C 
HETATM   18  C   UNK N   1      29.713  41.726  58.366  0.00  0.00     0.028 C 
HETATM   19  C   UNK N   1      29.920  42.140  56.887  0.00  0.00     0.009 C 
HETATM   20  C   UNK N   1      30.162  43.665  56.881  0.00  0.00     0.011 C 
HETATM   21  C   UNK N   1      31.869  43.764  58.702  0.00  0.00     0.016 C 
HETATM   22  C   UNK N   1      30.503  45.936  60.154  0.00  0.00     0.016 C 
HETATM   23  C   UNK N   1      27.885  48.021  59.952  0.00  0.00     0.020 C 
ENDROOT
BRANCH  18  24
HETATM   24  C   UNK N   1      28.802  40.473  58.605  0.00  0.00     0.071 C 
HETATM   25  O   UNK N   1      27.874  40.303  57.603  0.00  0.00    -0.310 OA
HETATM   26  C   UNK N   1      27.719  39.012  57.272  0.00  0.00     0.259 C 
HETATM   27  O   UNK N   1      26.828  38.633  56.534  0.00  0.00    -0.265 OA
HETATM   28  C   UNK N   1      28.588  38.100  58.050  0.00  0.00     0.114 C 
HETATM   29  C   UNK N   1      29.598  39.136  58.555  0.00  0.00     0.048 C 
HETATM   30  C   UNK N   1      28.065  40.593  59.954  0.00  0.00     0.047 C 
ENDBRANCH  18  24
BRANCH  15  31
HETATM   31  O   UNK N   1      27.351  43.286  57.760  0.00  0.00    -0.316 OA
BRANCH  31  32
HETATM   32  C   UNK N   1      26.013  43.281  57.503  0.00  0.00     0.255 C 
HETATM   33  O   UNK N   1      25.265  42.505  58.082  0.00  0.00    -0.266 OA
HETATM   34  C   UNK N   1      25.462  44.202  56.466  0.00  0.00     0.126 C 
ENDBRANCH  31  32
ENDBRANCH  15  31
TORSDOF 3
ENDMDL
MODEL 5
REMARK VINA RESULT:      -5.0      1.935      7.245
REMARK  3 active torsions:
REMARK  status: ('A' for Active; 'I' for Inactive)
REMARK    1  A    between atoms: C_15  and  O_16 
REMARK    2  A    between atoms: O_16  and  C_17 
REMARK    3  A    between atoms: C_22  and  C_23 
ROOT
HETATM    1  O   UNK N   1      27.600  42.951  50.683  0.00  0.00    -0.292 OA
HETATM    2  C   UNK N   1      27.684  42.631  51.860  0.00  0.00     0.157 C 
HETATM    3  C   UNK N   1      29.011  42.687  52.515  0.00  0.00     0.048 C 
HETATM    4  C   UNK N   1      29.237  42.159  53.729  0.00  0.00    -0.013 C 
HETATM    5  C   UNK N   1      28.155  41.395  54.504  0.00  0.00    -0.017 C 
HETATM    6  C   UNK N   1      26.778  42.081  54.156  0.00  0.00     0.013 C 
HETATM    7  C   UNK N   1      26.433  42.199  52.617  0.00  0.00     0.022 C 
HETATM    8  C   UNK N   1      25.361  43.308  52.426  0.00  0.00     0.024 C 
HETATM    9  C   UNK N   1      25.864  40.907  51.982  0.00  0.00     0.024 C 
HETATM   10  C   UNK N   1      25.629  41.528  55.033  0.00  0.00     0.007 C 
HETATM   11  C   UNK N   1      25.905  41.818  56.517  0.00  0.00     0.011 C 
HETATM   12  C   UNK N   1      27.220  41.181  57.057  0.00  0.00    -0.032 C 
HETATM   13  C   UNK N   1      27.534  41.726  58.548  0.00  0.00    -0.030 C 
HETATM   14  C   UNK N   1      28.989  41.373  59.022  0.00  0.00     0.031 C 
HETATM   15  C   UNK N   1      30.093  41.636  57.946  0.00  0.00     0.137 C 
HETATM   16  C   UNK N   1      29.742  40.997  56.595  0.00  0.00     0.039 C 
HETATM   17  C   UNK N   1      28.402  41.588  56.068  0.00  0.00     0.009 C 
HETATM   18  C   UNK N   1      29.160  42.259  60.294  0.00  0.00     0.028 C 
HETATM   19  C   UNK N   1      28.435  43.578  59.924  0.00  0.00     0.009 C 
HETATM   20  C   UNK N   1      27.537  43.266  58.706  0.00  0.00     0.011 C 
HETATM   21  C   UNK N   1      26.471  41.181  59.572  0.00  0.00     0.016 C 
HETATM   22  C   UNK N   1      27.017  39.632  57.124  0.00  0.00     0.016 C 
HETATM   23  C   UNK N   1      28.273  39.924  54.029  0.00  0.00     0.020 C 
ENDROOT
BRANCH  18  24
HETATM   24  C   UNK N   1      30.566  42.417  60.969  0.00  0.00     0.071 C 
HETATM   25  O   UNK N   1      31.488  41.528  60.468  0.00  0.00    -0.310 OA
HETATM   26  C   UNK N   1      32.697  42.089  60.309  0.00  0.00     0.259 C 
HETATM   27  O   UNK N   1      33.688  41.434  60.043  0.00  0.00    -0.265 OA
HETATM   28  C   UNK N   1      32.732  43.518  60.694  0.00  0.00     0.114 C 
HETATM   29  C   UNK N   1      31.225  43.793  60.662  0.00  0.00     0.048 C 
HETATM   30  C   UNK N   1      30.456  42.218  62.495  0.00  0.00     0.047 C 
ENDBRANCH  18  24
BRANCH  15  31
HETATM   31  O   UNK N   1      30.336  42.990  57.752  0.00  0.00    -0.316 OA
BRANCH  31  32
HETATM   32  C   UNK N   1      31.506  43.490  57.264  0.00  0.00     0.255 C 
HETATM   33  O   UNK N   1      32.375  42.744  56.831  0.00  0.00    -0.266 OA
HETATM   34  C   UNK N   1      31.749  44.961  57.304  0.00  0.00     0.126 C 
ENDBRANCH  31  32
ENDBRANCH  15  31
TORSDOF 3
ENDMDL
MODEL 6
REMARK VINA RESULT:      -4.9      3.154      7.791
REMARK  3 active torsions:
REMARK  status: ('A' for Active; 'I' for Inactive)
REMARK    1  A    between atoms: C_15  and  O_16 
REMARK    2  A    between atoms: O_16  and  C_17 
REMARK    3  A    between atoms: C_22  and  C_23 
ROOT
HETATM    1  O   UNK N   1      28.884  35.638  55.825  0.00  0.00    -0.292 OA
HETATM    2  C   UNK N   1      28.979  36.788  56.230  0.00  0.00     0.157 C 
HETATM    3  C   UNK N   1      28.895  37.032  57.689  0.00  0.00     0.048 C 
HETATM    4  C   UNK N   1      28.778  38.266  58.205  0.00  0.00    -0.013 C 
HETATM    5  C   UNK N   1      28.652  39.515  57.322  0.00  0.00    -0.017 C 
HETATM    6  C   UNK N   1      29.522  39.249  56.034  0.00  0.00     0.013 C 
HETATM    7  C   UNK N   1      29.191  37.924  55.237  0.00  0.00     0.022 C 
HETATM    8  C   UNK N   1      30.413  37.553  54.350  0.00  0.00     0.024 C 
HETATM    9  C   UNK N   1      27.966  38.025  54.296  0.00  0.00     0.024 C 
HETATM   10  C   UNK N   1      29.639  40.518  55.154  0.00  0.00     0.007 C 
HETATM   11  C   UNK N   1      30.336  41.644  55.934  0.00  0.00     0.011 C 
HETATM   12  C   UNK N   1      29.593  42.073  57.234  0.00  0.00    -0.032 C 
HETATM   13  C   UNK N   1      30.511  43.093  58.092  0.00  0.00    -0.030 C 
HETATM   14  C   UNK N   1      29.962  43.315  59.547  0.00  0.00     0.031 C 
HETATM   15  C   UNK N   1      29.529  42.000  60.274  0.00  0.00     0.137 C 
HETATM   16  C   UNK N   1      28.585  41.152  59.412  0.00  0.00     0.039 C 
HETATM   17  C   UNK N   1      29.297  40.759  58.085  0.00  0.00     0.009 C 
HETATM   18  C   UNK N   1      31.151  44.035  60.255  0.00  0.00     0.028 C 
HETATM   19  C   UNK N   1      32.405  43.339  59.669  0.00  0.00     0.009 C 
HETATM   20  C   UNK N   1      31.949  42.602  58.391  0.00  0.00     0.011 C 
HETATM   21  C   UNK N   1      30.662  44.467  57.341  0.00  0.00     0.016 C 
HETATM   22  C   UNK N   1      28.279  42.813  56.820  0.00  0.00     0.016 C 
HETATM   23  C   UNK N   1      27.134  39.670  57.046  0.00  0.00     0.020 C 
ENDROOT
BRANCH  18  24
HETATM   24  C   UNK N   1      31.144  44.238  61.810  0.00  0.00     0.071 C 
HETATM   25  O   UNK N   1      29.954  43.853  62.381  0.00  0.00    -0.310 OA
HETATM   26  C   UNK N   1      30.136  43.212  63.546  0.00  0.00     0.259 C 
HETATM   27  O   UNK N   1      29.212  42.943  64.291  0.00  0.00    -0.265 OA
HETATM   28  C   UNK N   1      31.562  43.067  63.916  0.00  0.00     0.114 C 
HETATM   29  C   UNK N   1      32.176  43.326  62.536  0.00  0.00     0.048 C 
HETATM   30  C   UNK N   1      31.414  45.715  62.161  0.00  0.00     0.047 C 
ENDBRANCH  18  24
BRANCH  15  31
HETATM   31  O   UNK N   1      30.613  41.219  60.654  0.00  0.00    -0.316 OA
BRANCH  31  32
HETATM   32  C   UNK N   1      30.501  40.039  61.326  0.00  0.00     0.255 C 
HETATM   33  O   UNK N   1      29.930  39.985  62.408  0.00  0.00    -0.266 OA
HETATM   34  C   UNK N   1      31.125  38.808  60.759  0.00  0.00     0.126 C 
ENDBRANCH  31  32
ENDBRANCH  15  31
TORSDOF 3
ENDMDL
MODEL 7
REMARK VINA RESULT:      -4.9      5.795      8.118
REMARK  3 active torsions:
REMARK  status: ('A' for Active; 'I' for Inactive)
REMARK    1  A    between atoms: C_15  and  O_16 
REMARK    2  A    between atoms: O_16  and  C_17 
REMARK    3  A    between atoms: C_22  and  C_23 
ROOT
HETATM    1  O   UNK N   1      32.530  42.966  56.350  0.00  0.00    -0.292 OA
HETATM    2  C   UNK N   1      31.584  43.518  56.894  0.00  0.00     0.157 C 
HETATM    3  C   UNK N   1      31.769  44.896  57.404  0.00  0.00     0.048 C 
HETATM    4  C   UNK N   1      30.864  45.498  58.194  0.00  0.00    -0.013 C 
HETATM    5  C   UNK N   1      29.600  44.780  58.686  0.00  0.00    -0.017 C 
HETATM    6  C   UNK N   1      29.155  43.803  57.530  0.00  0.00     0.013 C 
HETATM    7  C   UNK N   1      30.253  42.787  57.020  0.00  0.00     0.022 C 
HETATM    8  C   UNK N   1      29.854  42.287  55.603  0.00  0.00     0.024 C 
HETATM    9  C   UNK N   1      30.434  41.531  57.907  0.00  0.00     0.024 C 
HETATM   10  C   UNK N   1      27.774  43.166  57.825  0.00  0.00     0.007 C 
HETATM   11  C   UNK N   1      26.695  44.256  57.925  0.00  0.00     0.011 C 
HETATM   12  C   UNK N   1      26.949  45.303  59.051  0.00  0.00    -0.032 C 
HETATM   13  C   UNK N   1      25.891  46.521  58.930  0.00  0.00    -0.030 C 
HETATM   14  C   UNK N   1      26.286  47.749  59.827  0.00  0.00     0.031 C 
HETATM   15  C   UNK N   1      27.799  48.139  59.749  0.00  0.00     0.137 C 
HETATM   16  C   UNK N   1      28.715  46.928  59.971  0.00  0.00     0.039 C 
HETATM   17  C   UNK N   1      28.435  45.851  58.882  0.00  0.00     0.009 C 
HETATM   18  C   UNK N   1      25.342  48.874  59.301  0.00  0.00     0.028 C 
HETATM   19  C   UNK N   1      25.291  48.627  57.772  0.00  0.00     0.009 C 
HETATM   20  C   UNK N   1      25.805  47.190  57.536  0.00  0.00     0.011 C 
HETATM   21  C   UNK N   1      24.437  46.029  59.273  0.00  0.00     0.016 C 
HETATM   22  C   UNK N   1      26.737  44.593  60.429  0.00  0.00     0.016 C 
HETATM   23  C   UNK N   1      30.021  44.066  59.998  0.00  0.00     0.020 C 
ENDROOT
BRANCH  18  24
HETATM   24  C   UNK N   1      25.556  50.362  59.747  0.00  0.00     0.071 C 
HETATM   25  O   UNK N   1      26.442  50.472  60.794  0.00  0.00    -0.310 OA
HETATM   26  C   UNK N   1      27.261  51.525  60.655  0.00  0.00     0.259 C 
HETATM   27  O   UNK N   1      27.999  51.897  61.549  0.00  0.00    -0.265 OA
HETATM   28  C   UNK N   1      27.020  52.292  59.412  0.00  0.00     0.114 C 
HETATM   29  C   UNK N   1      26.232  51.226  58.643  0.00  0.00     0.048 C 
HETATM   30  C   UNK N   1      24.213  50.998  60.160  0.00  0.00     0.047 C 
ENDBRANCH  18  24
BRANCH  15  31
HETATM   31  O   UNK N   1      28.133  48.738  58.541  0.00  0.00    -0.316 OA
BRANCH  31  32
HETATM   32  C   UNK N   1      29.355  49.275  58.271  0.00  0.00     0.255 C 
HETATM   33  O   UNK N   1      29.858  50.099  59.023  0.00  0.00    -0.266 OA
HETATM   34  C   UNK N   1      30.067  48.888  57.018  0.00  0.00     0.126 C 
ENDBRANCH  31  32
ENDBRANCH  15  31
TORSDOF 3
ENDMDL
MODEL 8
REMARK VINA RESULT:      -4.5      4.278      7.391
REMARK  3 active torsions:
REMARK  status: ('A' for Active; 'I' for Inactive)
REMARK    1  A    between atoms: C_15  and  O_16 
REMARK    2  A    between atoms: O_16  and  C_17 
REMARK    3  A    between atoms: C_22  and  C_23 
ROOT
HETATM    1  O   UNK N   1      31.840  41.491  54.331  0.00  0.00    -0.292 OA
HETATM    2  C   UNK N   1      30.955  41.922  55.058  0.00  0.00     0.157 C 
HETATM    3  C   UNK N   1      31.340  42.745  56.227  0.00  0.00     0.048 C 
HETATM    4  C   UNK N   1      30.465  43.081  57.190  0.00  0.00    -0.013 C 
HETATM    5  C   UNK N   1      29.015  42.580  57.188  0.00  0.00    -0.017 C 
HETATM    6  C   UNK N   1      28.570  42.483  55.678  0.00  0.00     0.013 C 
HETATM    7  C   UNK N   1      29.497  41.614  54.737  0.00  0.00     0.022 C 
HETATM    8  C   UNK N   1      29.242  42.026  53.261  0.00  0.00     0.024 C 
HETATM    9  C   UNK N   1      29.259  40.087  54.827  0.00  0.00     0.024 C 
HETATM   10  C   UNK N   1      27.057  42.180  55.549  0.00  0.00     0.007 C 
HETATM   11  C   UNK N   1      26.231  43.311  56.182  0.00  0.00     0.011 C 
HETATM   12  C   UNK N   1      26.511  43.533  57.698  0.00  0.00    -0.032 C 
HETATM   13  C   UNK N   1      25.770  44.877  58.213  0.00  0.00    -0.030 C 
HETATM   14  C   UNK N   1      26.261  45.325  59.637  0.00  0.00     0.031 C 
HETATM   15  C   UNK N   1      27.814  45.280  59.821  0.00  0.00     0.137 C 
HETATM   16  C   UNK N   1      28.404  43.930  59.392  0.00  0.00     0.039 C 
HETATM   17  C   UNK N   1      28.087  43.672  57.890  0.00  0.00     0.009 C 
HETATM   18  C   UNK N   1      25.678  46.766  59.762  0.00  0.00     0.028 C 
HETATM   19  C   UNK N   1      25.829  47.350  58.334  0.00  0.00     0.009 C 
HETATM   20  C   UNK N   1      26.059  46.153  57.386  0.00  0.00     0.011 C 
HETATM   21  C   UNK N   1      24.208  44.688  58.200  0.00  0.00     0.016 C 
HETATM   22  C   UNK N   1      25.929  42.311  58.482  0.00  0.00     0.016 C 
HETATM   23  C   UNK N   1      29.051  41.219  57.931  0.00  0.00     0.020 C 
ENDROOT
BRANCH  18  24
HETATM   24  C   UNK N   1      26.124  47.703  60.936  0.00  0.00     0.071 C 
HETATM   25  O   UNK N   1      26.843  47.031  61.897  0.00  0.00    -0.310 OA
HETATM   26  C   UNK N   1      27.875  47.756  62.356  0.00  0.00     0.259 C 
HETATM   27  O   UNK N   1      28.528  47.416  63.325  0.00  0.00    -0.265 OA
HETATM   28  C   UNK N   1      27.990  49.083  61.709  0.00  0.00     0.114 C 
HETATM   29  C   UNK N   1      27.125  48.803  60.475  0.00  0.00     0.048 C 
HETATM   30  C   UNK N   1      24.895  48.359  61.598  0.00  0.00     0.047 C 
ENDBRANCH  18  24
BRANCH  15  31
HETATM   31  O   UNK N   1      28.462  46.293  59.126  0.00  0.00    -0.316 OA
BRANCH  31  32
HETATM   32  C   UNK N   1      29.805  46.515  59.183  0.00  0.00     0.255 C 
HETATM   33  O   UNK N   1      30.378  46.625  60.259  0.00  0.00    -0.266 OA
HETATM   34  C   UNK N   1      30.578  46.673  57.917  0.00  0.00     0.126 C 
ENDBRANCH  31  32
ENDBRANCH  15  31
TORSDOF 3
ENDMDL
MODEL 9
REMARK VINA RESULT:      -4.5      2.354      7.296
REMARK  3 active torsions:
REMARK  status: ('A' for Active; 'I' for Inactive)
REMARK    1  A    between atoms: C_15  and  O_16 
REMARK    2  A    between atoms: O_16  and  C_17 
REMARK    3  A    between atoms: C_22  and  C_23 
ROOT
HETATM    1  O   UNK N   1      29.207  42.682  51.341  0.00  0.00    -0.292 OA
HETATM    2  C   UNK N   1      28.928  42.439  52.506  0.00  0.00     0.157 C 
HETATM    3  C   UNK N   1      30.032  42.175  53.457  0.00  0.00     0.048 C 
HETATM    4  C   UNK N   1      29.817  41.696  54.694  0.00  0.00    -0.013 C 
HETATM    5  C   UNK N   1      28.416  41.320  55.194  0.00  0.00    -0.017 C 
HETATM    6  C   UNK N   1      27.408  42.331  54.523  0.00  0.00     0.013 C 
HETATM    7  C   UNK N   1      27.468  42.426  52.947  0.00  0.00     0.022 C 
HETATM    8  C   UNK N   1      26.829  43.770  52.499  0.00  0.00     0.024 C 
HETATM    9  C   UNK N   1      26.713  41.297  52.202  0.00  0.00     0.024 C 
HETATM   10  C   UNK N   1      25.981  42.183  55.106  0.00  0.00     0.007 C 
HETATM   11  C   UNK N   1      25.985  42.494  56.611  0.00  0.00     0.011 C 
HETATM   12  C   UNK N   1      26.907  41.561  57.452  0.00  0.00    -0.032 C 
HETATM   13  C   UNK N   1      27.016  42.106  58.972  0.00  0.00    -0.030 C 
HETATM   14  C   UNK N   1      28.164  41.401  59.781  0.00  0.00     0.031 C 
HETATM   15  C   UNK N   1      29.511  41.270  58.996  0.00  0.00     0.137 C 
HETATM   16  C   UNK N   1      29.307  40.655  57.605  0.00  0.00     0.039 C 
HETATM   17  C   UNK N   1      28.347  41.551  56.771  0.00  0.00     0.009 C 
HETATM   18  C   UNK N   1      28.288  42.298  61.051  0.00  0.00     0.028 C 
HETATM   19  C   UNK N   1      28.073  43.734  60.510  0.00  0.00     0.009 C 
HETATM   20  C   UNK N   1      27.423  43.593  59.117  0.00  0.00     0.011 C 
HETATM   21  C   UNK N   1      25.639  41.952  59.717  0.00  0.00     0.016 C 
HETATM   22  C   UNK N   1      26.260  40.136  57.479  0.00  0.00     0.016 C 
HETATM   23  C   UNK N   1      28.213  39.842  54.770  0.00  0.00     0.020 C 
ENDROOT
BRANCH  18  24
HETATM   24  C   UNK N   1      29.490  42.111  62.040  0.00  0.00     0.071 C 
HETATM   25  O   UNK N   1      30.474  43.054  61.851  0.00  0.00    -0.310 OA
HETATM   26  C   UNK N   1      30.985  43.492  63.011  0.00  0.00     0.259 C 
HETATM   27  O   UNK N   1      31.977  44.195  63.061  0.00  0.00    -0.265 OA
HETATM   28  C   UNK N   1      30.357  42.868  64.198  0.00  0.00     0.114 C 
HETATM   29  C   UNK N   1      29.084  42.343  63.525  0.00  0.00     0.048 C 
HETATM   30  C   UNK N   1      30.106  40.706  61.879  0.00  0.00     0.047 C 
ENDBRANCH  18  24
BRANCH  15  31
HETATM   31  O   UNK N   1      30.167  42.486  58.857  0.00  0.00    -0.316 OA
BRANCH  31  32
HETATM   32  C   UNK N   1      31.487  42.606  58.542  0.00  0.00     0.255 C 
HETATM   33  O   UNK N   1      32.350  42.118  59.260  0.00  0.00    -0.266 OA
HETATM   34  C   UNK N   1      31.887  43.383  57.333  0.00  0.00     0.126 C 
ENDBRANCH  31  32
ENDBRANCH  15  31
TORSDOF 3
ENDMDL
