MODEL 1
REMARK VINA RESULT:      -5.3      0.000      0.000
REMARK  10 active torsions:
REMARK  status: ('A' for Active; 'I' for Inactive)
REMARK    1  A    between atoms: C_2  and  O_3 
REMARK    2  A    between atoms: C_2  and  C_5 
REMARK    3  A    between atoms: C_11  and  O_12 
REMARK    4  A    between atoms: C_16  and  C_17 
REMARK    5  A    between atoms: C_17  and  C_18 
REMARK    6  A    between atoms: C_18  and  C_19 
REMARK    7  A    between atoms: C_19  and  O_20 
REMARK    8  A    between atoms: C_22  and  O_30 
REMARK    9  A    between atoms: C_24  and  O_25 
REMARK   10  A    between atoms: C_27  and  O_28 
ROOT
HETATM    1  C   UNK N   1      31.314  53.342  42.572  0.00  0.00     0.023 C 
HETATM    2  C   UNK N   1      31.469  52.072  42.136  0.00  0.00    -0.012 C 
HETATM    3  C   UNK N   1      30.889  51.548  40.850  0.00  0.00     0.028 C 
HETATM    4  C   UNK N   1      30.254  52.619  39.964  0.00  0.00     0.010 C 
HETATM    5  C   UNK N   1      29.483  53.634  40.833  0.00  0.00     0.010 C 
HETATM    6  C   UNK N   1      30.502  54.400  41.779  0.00  0.00     0.020 C 
HETATM    7  C   UNK N   1      29.636  55.293  42.732  0.00  0.00     0.132 C 
HETATM    8  C   UNK N   1      28.679  56.231  41.963  0.00  0.00     0.038 C 
HETATM    9  C   UNK N   1      27.681  55.435  41.095  0.00  0.00    -0.008 C 
HETATM   10  C   UNK N   1      28.413  54.507  40.043  0.00  0.00    -0.036 C 
HETATM   11  C   UNK N   1      29.042  55.347  38.894  0.00  0.00     0.016 C 
HETATM   12  C   UNK N   1      26.647  56.403  40.479  0.00  0.00     0.011 C 
HETATM   13  C   UNK N   1      31.569  55.281  41.070  0.00  0.00     0.024 C 
ENDROOT
BRANCH  10  14
HETATM   14  C   UNK N   1      27.369  53.568  39.324  0.00  0.00     0.013 C 
BRANCH  14  15
HETATM   15  C   UNK N   1      26.506  52.668  40.244  0.00  0.00     0.046 C 
BRANCH  15  16
HETATM   16  C   UNK N   1      25.982  51.386  39.560  0.00  0.00     0.138 C 
HETATM   17  C   UNK N   1      24.589  51.513  38.912  0.00  0.00     0.299 C 
HETATM   18  O   UNK N   1      24.028  50.207  38.847  0.00  0.00    -0.326 OA
HETATM   19  C   UNK N   1      24.795  49.372  39.706  0.00  0.00     0.294 C 
HETATM   20  C   UNK N   1      25.629  50.313  40.568  0.00  0.00     0.212 C 
BRANCH  16  21
HETATM   21  O   UNK N   1      26.937  50.869  38.654  0.00  0.00    -0.382 OA
HETATM   22  H   UNK N   1      27.720  50.536  39.161  0.00  0.00     0.210 HD
ENDBRANCH  16  21
BRANCH  17  23
HETATM   23  O   UNK N   1      24.699  52.093  37.627  0.00  0.00    -0.363 OA
HETATM   24  C   UNK N   1      24.023  51.308  36.674  0.00  0.00     0.204 C 
ENDBRANCH  17  23
BRANCH  19  25
HETATM   25  O   UNK N   1      25.636  48.537  38.930  0.00  0.00    -0.363 OA
HETATM   26  C   UNK N   1      24.871  47.845  37.970  0.00  0.00     0.204 C 
ENDBRANCH  19  25
BRANCH  20  27
HETATM   27  O   UNK N   1      26.718  49.710  41.228  0.00  0.00    -0.387 OA
HETATM   28  H   UNK N   1      26.841  48.796  40.865  0.00  0.00     0.210 HD
ENDBRANCH  20  27
ENDBRANCH  15  16
ENDBRANCH  14  15
ENDBRANCH  10  14
BRANCH   1  29
HETATM   29  C   UNK N   1      31.992  53.690  43.845  0.00  0.00     0.172 C 
HETATM   30  O   UNK N   1      33.027  54.326  43.823  0.00  0.00    -0.646 OA
BRANCH  29  31
HETATM   31  O   UNK N   1      31.407  53.402  45.029  0.00  0.00    -0.773 OA
HETATM   32  H   UNK N   1      31.928  53.267  45.829  0.00  0.00     0.167 HD
ENDBRANCH  29  31
ENDBRANCH   1  29
BRANCH   7  33
HETATM   33  O   UNK N   1      30.454  56.092  43.557  0.00  0.00    -0.394 OA
HETATM   34  H   UNK N   1      31.349  56.155  43.134  0.00  0.00     0.210 HD
ENDBRANCH   7  33
TORSDOF 10
ENDMDL
MODEL 2
REMARK VINA RESULT:      -5.1      1.283      2.300
REMARK  10 active torsions:
REMARK  status: ('A' for Active; 'I' for Inactive)
REMARK    1  A    between atoms: C_2  and  O_3 
REMARK    2  A    between atoms: C_2  and  C_5 
REMARK    3  A    between atoms: C_11  and  O_12 
REMARK    4  A    between atoms: C_16  and  C_17 
REMARK    5  A    between atoms: C_17  and  C_18 
REMARK    6  A    between atoms: C_18  and  C_19 
REMARK    7  A    between atoms: C_19  and  O_20 
REMARK    8  A    between atoms: C_22  and  O_30 
REMARK    9  A    between atoms: C_24  and  O_25 
REMARK   10  A    between atoms: C_27  and  O_28 
ROOT
HETATM    1  C   UNK N   1      30.617  54.206  42.077  0.00  0.00     0.023 C 
HETATM    2  C   UNK N   1      30.667  52.887  41.789  0.00  0.00    -0.012 C 
HETATM    3  C   UNK N   1      30.213  52.293  40.483  0.00  0.00     0.028 C 
HETATM    4  C   UNK N   1      29.855  53.325  39.414  0.00  0.00     0.010 C 
HETATM    5  C   UNK N   1      29.106  54.511  40.054  0.00  0.00     0.010 C 
HETATM    6  C   UNK N   1      30.070  55.255  41.073  0.00  0.00     0.020 C 
HETATM    7  C   UNK N   1      29.200  56.342  41.793  0.00  0.00     0.132 C 
HETATM    8  C   UNK N   1      28.492  57.291  40.800  0.00  0.00     0.038 C 
HETATM    9  C   UNK N   1      27.534  56.523  39.865  0.00  0.00    -0.008 C 
HETATM   10  C   UNK N   1      28.282  55.407  39.031  0.00  0.00    -0.036 C 
HETATM   11  C   UNK N   1      29.173  56.038  37.921  0.00  0.00     0.016 C 
HETATM   12  C   UNK N   1      26.733  57.529  39.009  0.00  0.00     0.011 C 
HETATM   13  C   UNK N   1      31.333  55.926  40.459  0.00  0.00     0.024 C 
ENDROOT
BRANCH  10  14
HETATM   14  C   UNK N   1      27.239  54.519  38.248  0.00  0.00     0.013 C 
BRANCH  14  15
HETATM   15  C   UNK N   1      25.933  54.165  39.004  0.00  0.00     0.046 C 
BRANCH  15  16
HETATM   16  C   UNK N   1      25.548  52.671  38.930  0.00  0.00     0.138 C 
HETATM   17  C   UNK N   1      26.501  51.712  39.670  0.00  0.00     0.299 C 
HETATM   18  O   UNK N   1      26.367  50.430  39.068  0.00  0.00    -0.326 OA
HETATM   19  C   UNK N   1      25.698  50.610  37.827  0.00  0.00     0.294 C 
HETATM   20  C   UNK N   1      25.749  52.106  37.539  0.00  0.00     0.212 C 
BRANCH  16  21
HETATM   21  O   UNK N   1      24.202  52.476  39.315  0.00  0.00    -0.382 OA
HETATM   22  H   UNK N   1      24.133  52.536  40.301  0.00  0.00     0.210 HD
ENDBRANCH  16  21
BRANCH  17  23
HETATM   23  O   UNK N   1      26.181  51.672  41.047  0.00  0.00    -0.363 OA
HETATM   24  C   UNK N   1      25.824  50.367  41.432  0.00  0.00     0.204 C 
ENDBRANCH  17  23
BRANCH  19  25
HETATM   25  O   UNK N   1      24.356  50.174  37.942  0.00  0.00    -0.363 OA
HETATM   26  C   UNK N   1      24.323  48.808  38.289  0.00  0.00     0.204 C 
ENDBRANCH  19  25
BRANCH  20  27
HETATM   27  O   UNK N   1      24.843  52.557  36.559  0.00  0.00    -0.387 OA
HETATM   28  H   UNK N   1      24.605  51.793  35.973  0.00  0.00     0.210 HD
ENDBRANCH  20  27
ENDBRANCH  15  16
ENDBRANCH  14  15
ENDBRANCH  10  14
BRANCH   1  29
HETATM   29  C   UNK N   1      31.145  54.614  43.402  0.00  0.00     0.172 C 
HETATM   30  O   UNK N   1      32.253  55.104  43.484  0.00  0.00    -0.646 OA
BRANCH  29  31
HETATM   31  O   UNK N   1      30.358  54.547  44.498  0.00  0.00    -0.773 OA
HETATM   32  H   UNK N   1      29.400  54.455  44.426  0.00  0.00     0.167 HD
ENDBRANCH  29  31
ENDBRANCH   1  29
BRANCH   7  33
HETATM   33  O   UNK N   1      29.988  57.129  42.657  0.00  0.00    -0.394 OA
HETATM   34  H   UNK N   1      30.941  56.921  42.478  0.00  0.00     0.210 HD
ENDBRANCH   7  33
TORSDOF 10
ENDMDL
MODEL 3
REMARK VINA RESULT:      -5.1     11.142     15.210
REMARK  10 active torsions:
REMARK  status: ('A' for Active; 'I' for Inactive)
REMARK    1  A    between atoms: C_2  and  O_3 
REMARK    2  A    between atoms: C_2  and  C_5 
REMARK    3  A    between atoms: C_11  and  O_12 
REMARK    4  A    between atoms: C_16  and  C_17 
REMARK    5  A    between atoms: C_17  and  C_18 
REMARK    6  A    between atoms: C_18  and  C_19 
REMARK    7  A    between atoms: C_19  and  O_20 
REMARK    8  A    between atoms: C_22  and  O_30 
REMARK    9  A    between atoms: C_24  and  O_25 
REMARK   10  A    between atoms: C_27  and  O_28 
ROOT
HETATM    1  C   UNK N   1      39.975  44.507  49.489  0.00  0.00     0.023 C 
HETATM    2  C   UNK N   1      38.637  44.451  49.305  0.00  0.00    -0.012 C 
HETATM    3  C   UNK N   1      37.923  45.063  48.131  0.00  0.00     0.028 C 
HETATM    4  C   UNK N   1      38.850  45.605  47.044  0.00  0.00     0.010 C 
HETATM    5  C   UNK N   1      40.069  46.298  47.686  0.00  0.00     0.010 C 
HETATM    6  C   UNK N   1      40.921  45.227  48.491  0.00  0.00     0.020 C 
HETATM    7  C   UNK N   1      42.044  46.025  49.238  0.00  0.00     0.132 C 
HETATM    8  C   UNK N   1      42.888  46.900  48.283  0.00  0.00     0.038 C 
HETATM    9  C   UNK N   1      42.020  47.952  47.562  0.00  0.00    -0.008 C 
HETATM   10  C   UNK N   1      40.854  47.290  46.722  0.00  0.00    -0.036 C 
HETATM   11  C   UNK N   1      41.408  46.588  45.448  0.00  0.00     0.016 C 
HETATM   12  C   UNK N   1      42.929  48.901  46.750  0.00  0.00     0.011 C 
HETATM   13  C   UNK N   1      41.565  44.089  47.650  0.00  0.00     0.024 C 
ENDROOT
BRANCH  10  14
HETATM   14  C   UNK N   1      39.878  48.401  46.173  0.00  0.00     0.013 C 
BRANCH  14  15
HETATM   15  C   UNK N   1      39.287  48.161  44.761  0.00  0.00     0.046 C 
BRANCH  15  16
HETATM   16  C   UNK N   1      38.975  49.457  43.981  0.00  0.00     0.138 C 
HETATM   17  C   UNK N   1      38.158  49.261  42.688  0.00  0.00     0.299 C 
HETATM   18  O   UNK N   1      38.433  50.368  41.838  0.00  0.00    -0.326 OA
HETATM   19  C   UNK N   1      39.593  51.016  42.345  0.00  0.00     0.294 C 
HETATM   20  C   UNK N   1      40.216  50.040  43.338  0.00  0.00     0.212 C 
BRANCH  16  21
HETATM   21  O   UNK N   1      38.395  50.431  44.826  0.00  0.00    -0.382 OA
HETATM   22  H   UNK N   1      38.754  50.322  45.742  0.00  0.00     0.210 HD
ENDBRANCH  16  21
BRANCH  17  23
HETATM   23  O   UNK N   1      36.779  49.172  42.990  0.00  0.00    -0.363 OA
HETATM   24  C   UNK N   1      36.295  47.883  42.702  0.00  0.00     0.204 C 
ENDBRANCH  17  23
BRANCH  19  25
HETATM   25  O   UNK N   1      39.220  52.215  42.999  0.00  0.00    -0.363 OA
HETATM   26  C   UNK N   1      39.962  53.295  42.480  0.00  0.00     0.204 C 
ENDBRANCH  19  25
BRANCH  20  27
HETATM   27  O   UNK N   1      41.155  50.606  44.222  0.00  0.00    -0.387 OA
HETATM   28  H   UNK N   1      40.940  51.567  44.338  0.00  0.00     0.210 HD
ENDBRANCH  20  27
ENDBRANCH  15  16
ENDBRANCH  14  15
ENDBRANCH  10  14
BRANCH   1  29
HETATM   29  C   UNK N   1      40.508  43.812  50.686  0.00  0.00     0.172 C 
HETATM   30  O   UNK N   1      41.353  42.950  50.556  0.00  0.00    -0.646 OA
BRANCH  29  31
HETATM   31  O   UNK N   1      40.139  44.209  51.924  0.00  0.00    -0.773 OA
HETATM   32  H   UNK N   1      40.470  43.767  52.715  0.00  0.00     0.167 HD
ENDBRANCH  29  31
ENDBRANCH   1  29
BRANCH   7  33
HETATM   33  O   UNK N   1      42.921  45.151  49.912  0.00  0.00    -0.394 OA
HETATM   34  H   UNK N   1      43.595  45.700  50.390  0.00  0.00     0.210 HD
ENDBRANCH   7  33
TORSDOF 10
ENDMDL
MODEL 4
REMARK VINA RESULT:      -4.9     24.158     26.466
REMARK  10 active torsions:
REMARK  status: ('A' for Active; 'I' for Inactive)
REMARK    1  A    between atoms: C_2  and  O_3 
REMARK    2  A    between atoms: C_2  and  C_5 
REMARK    3  A    between atoms: C_11  and  O_12 
REMARK    4  A    between atoms: C_16  and  C_17 
REMARK    5  A    between atoms: C_17  and  C_18 
REMARK    6  A    between atoms: C_18  and  C_19 
REMARK    7  A    between atoms: C_19  and  O_20 
REMARK    8  A    between atoms: C_22  and  O_30 
REMARK    9  A    between atoms: C_24  and  O_25 
REMARK   10  A    between atoms: C_27  and  O_28 
ROOT
HETATM    1  C   UNK N   1      50.110  55.694  54.083  0.00  0.00     0.023 C 
HETATM    2  C   UNK N   1      49.732  56.786  53.382  0.00  0.00    -0.012 C 
HETATM    3  C   UNK N   1      49.039  57.976  53.989  0.00  0.00     0.028 C 
HETATM    4  C   UNK N   1      48.955  57.944  55.515  0.00  0.00     0.010 C 
HETATM    5  C   UNK N   1      48.650  56.511  55.997  0.00  0.00     0.010 C 
HETATM    6  C   UNK N   1      49.856  55.555  55.607  0.00  0.00     0.020 C 
HETATM    7  C   UNK N   1      49.410  54.102  55.987  0.00  0.00     0.132 C 
HETATM    8  C   UNK N   1      48.972  53.979  57.463  0.00  0.00     0.038 C 
HETATM    9  C   UNK N   1      47.770  54.894  57.777  0.00  0.00    -0.008 C 
HETATM   10  C   UNK N   1      48.084  56.416  57.481  0.00  0.00    -0.036 C 
HETATM   11  C   UNK N   1      49.058  57.006  58.542  0.00  0.00     0.016 C 
HETATM   12  C   UNK N   1      47.270  54.615  59.211  0.00  0.00     0.011 C 
HETATM   13  C   UNK N   1      51.225  55.868  56.276  0.00  0.00     0.024 C 
ENDROOT
BRANCH  10  14
HETATM   14  C   UNK N   1      46.772  57.281  57.619  0.00  0.00     0.013 C 
BRANCH  14  15
HETATM   15  C   UNK N   1      46.647  58.140  58.903  0.00  0.00     0.046 C 
BRANCH  15  16
HETATM   16  C   UNK N   1      45.258  58.070  59.575  0.00  0.00     0.138 C 
HETATM   17  C   UNK N   1      44.367  59.311  59.368  0.00  0.00     0.299 C 
HETATM   18  O   UNK N   1      43.437  59.352  60.443  0.00  0.00    -0.326 OA
HETATM   19  C   UNK N   1      43.911  58.466  61.449  0.00  0.00     0.294 C 
HETATM   20  C   UNK N   1      45.357  58.154  61.084  0.00  0.00     0.212 C 
BRANCH  16  21
HETATM   21  O   UNK N   1      44.586  56.876  59.224  0.00  0.00    -0.382 OA
HETATM   22  H   UNK N   1      44.255  56.435  60.046  0.00  0.00     0.210 HD
ENDBRANCH  16  21
BRANCH  17  23
HETATM   23  O   UNK N   1      43.709  59.236  58.118  0.00  0.00    -0.363 OA
HETATM   24  C   UNK N   1      42.348  59.563  58.258  0.00  0.00     0.204 C 
ENDBRANCH  17  23
BRANCH  19  25
HETATM   25  O   UNK N   1      43.133  57.282  61.445  0.00  0.00    -0.363 OA
HETATM   26  C   UNK N   1      41.762  57.609  61.452  0.00  0.00     0.204 C 
ENDBRANCH  19  25
BRANCH  20  27
HETATM   27  O   UNK N   1      45.905  57.025  61.725  0.00  0.00    -0.387 OA
HETATM   28  H   UNK N   1      46.864  57.198  61.906  0.00  0.00     0.210 HD
ENDBRANCH  20  27
ENDBRANCH  15  16
ENDBRANCH  14  15
ENDBRANCH  10  14
BRANCH   1  29
HETATM   29  C   UNK N   1      50.817  54.633  53.323  0.00  0.00     0.172 C 
HETATM   30  O   UNK N   1      52.006  54.459  53.496  0.00  0.00    -0.646 OA
BRANCH  29  31
HETATM   31  O   UNK N   1      50.124  53.790  52.525  0.00  0.00    -0.773 OA
HETATM   32  H   UNK N   1      50.570  53.129  51.983  0.00  0.00     0.167 HD
ENDBRANCH  29  31
ENDBRANCH   1  29
BRANCH   7  33
HETATM   33  O   UNK N   1      50.453  53.179  55.766  0.00  0.00    -0.394 OA
HETATM   34  H   UNK N   1      51.315  53.657  55.882  0.00  0.00     0.210 HD
ENDBRANCH   7  33
TORSDOF 10
ENDMDL
MODEL 5
REMARK VINA RESULT:      -4.9     17.525     20.193
REMARK  10 active torsions:
REMARK  status: ('A' for Active; 'I' for Inactive)
REMARK    1  A    between atoms: C_2  and  O_3 
REMARK    2  A    between atoms: C_2  and  C_5 
REMARK    3  A    between atoms: C_11  and  O_12 
REMARK    4  A    between atoms: C_16  and  C_17 
REMARK    5  A    between atoms: C_17  and  C_18 
REMARK    6  A    between atoms: C_18  and  C_19 
REMARK    7  A    between atoms: C_19  and  O_20 
REMARK    8  A    between atoms: C_22  and  O_30 
REMARK    9  A    between atoms: C_24  and  O_25 
REMARK   10  A    between atoms: C_27  and  O_28 
ROOT
HETATM    1  C   UNK N   1      28.765  50.377  58.505  0.00  0.00     0.023 C 
HETATM    2  C   UNK N   1      29.449  50.200  57.353  0.00  0.00    -0.012 C 
HETATM    3  C   UNK N   1      29.957  48.868  56.872  0.00  0.00     0.028 C 
HETATM    4  C   UNK N   1      29.477  47.676  57.701  0.00  0.00     0.010 C 
HETATM    5  C   UNK N   1      29.483  48.038  59.200  0.00  0.00     0.010 C 
HETATM    6  C   UNK N   1      28.436  49.202  59.465  0.00  0.00     0.020 C 
HETATM    7  C   UNK N   1      28.609  49.620  60.966  0.00  0.00     0.132 C 
HETATM    8  C   UNK N   1      28.469  48.426  61.936  0.00  0.00     0.038 C 
HETATM    9  C   UNK N   1      29.537  47.346  61.664  0.00  0.00    -0.008 C 
HETATM   10  C   UNK N   1      29.461  46.790  60.186  0.00  0.00    -0.036 C 
HETATM   11  C   UNK N   1      28.213  45.881  59.989  0.00  0.00     0.016 C 
HETATM   12  C   UNK N   1      29.460  46.258  62.758  0.00  0.00     0.011 C 
HETATM   13  C   UNK N   1      26.944  48.860  59.190  0.00  0.00     0.024 C 
ENDROOT
BRANCH  10  14
HETATM   14  C   UNK N   1      30.691  45.846  59.894  0.00  0.00     0.013 C 
BRANCH  14  15
HETATM   15  C   UNK N   1      30.438  44.324  60.031  0.00  0.00     0.046 C 
BRANCH  15  16
HETATM   16  C   UNK N   1      30.952  43.489  58.838  0.00  0.00     0.138 C 
HETATM   17  C   UNK N   1      32.486  43.388  58.722  0.00  0.00     0.299 C 
HETATM   18  O   UNK N   1      32.793  43.115  57.360  0.00  0.00    -0.326 OA
HETATM   19  C   UNK N   1      31.626  43.392  56.596  0.00  0.00     0.294 C 
HETATM   20  C   UNK N   1      30.704  44.185  57.515  0.00  0.00     0.212 C 
BRANCH  16  21
HETATM   21  O   UNK N   1      30.337  42.216  58.808  0.00  0.00    -0.382 OA
HETATM   22  H   UNK N   1      29.934  42.028  59.693  0.00  0.00     0.210 HD
ENDBRANCH  16  21
BRANCH  17  23
HETATM   23  O   UNK N   1      32.974  42.372  59.576  0.00  0.00    -0.363 OA
HETATM   24  C   UNK N   1      33.978  42.880  60.421  0.00  0.00     0.204 C 
ENDBRANCH  17  23
BRANCH  19  25
HETATM   25  O   UNK N   1      31.011  42.176  56.210  0.00  0.00    -0.363 OA
HETATM   26  C   UNK N   1      31.210  41.954  54.832  0.00  0.00     0.204 C 
ENDBRANCH  19  25
BRANCH  20  27
HETATM   27  O   UNK N   1      29.360  44.251  57.101  0.00  0.00    -0.387 OA
HETATM   28  H   UNK N   1      29.087  45.203  57.061  0.00  0.00     0.210 HD
ENDBRANCH  20  27
ENDBRANCH  15  16
ENDBRANCH  14  15
ENDBRANCH  10  14
BRANCH   1  29
HETATM   29  C   UNK N   1      28.309  51.758  58.798  0.00  0.00     0.172 C 
HETATM   30  O   UNK N   1      27.120  52.000  58.856  0.00  0.00    -0.646 OA
BRANCH  29  31
HETATM   31  O   UNK N   1      29.207  52.719  59.110  0.00  0.00    -0.773 OA
HETATM   32  H   UNK N   1      29.134  53.231  59.924  0.00  0.00     0.167 HD
ENDBRANCH  29  31
ENDBRANCH   1  29
BRANCH   7  33
HETATM   33  O   UNK N   1      27.654  50.590  61.333  0.00  0.00    -0.394 OA
HETATM   34  H   UNK N   1      28.119  51.461  61.421  0.00  0.00     0.210 HD
ENDBRANCH   7  33
TORSDOF 10
ENDMDL
MODEL 6
REMARK VINA RESULT:      -4.8     26.029     27.905
REMARK  10 active torsions:
REMARK  status: ('A' for Active; 'I' for Inactive)
REMARK    1  A    between atoms: C_2  and  O_3 
REMARK    2  A    between atoms: C_2  and  C_5 
REMARK    3  A    between atoms: C_11  and  O_12 
REMARK    4  A    between atoms: C_16  and  C_17 
REMARK    5  A    between atoms: C_17  and  C_18 
REMARK    6  A    between atoms: C_18  and  C_19 
REMARK    7  A    between atoms: C_19  and  O_20 
REMARK    8  A    between atoms: C_22  and  O_30 
REMARK    9  A    between atoms: C_24  and  O_25 
REMARK   10  A    between atoms: C_27  and  O_28 
ROOT
HETATM    1  C   UNK N   1      46.698  50.332  61.060  0.00  0.00     0.023 C 
HETATM    2  C   UNK N   1      47.660  49.518  60.571  0.00  0.00    -0.012 C 
HETATM    3  C   UNK N   1      49.048  49.975  60.213  0.00  0.00     0.028 C 
HETATM    4  C   UNK N   1      49.360  51.415  60.622  0.00  0.00     0.010 C 
HETATM    5  C   UNK N   1      48.132  52.314  60.368  0.00  0.00     0.010 C 
HETATM    6  C   UNK N   1      46.935  51.846  61.300  0.00  0.00     0.020 C 
HETATM    7  C   UNK N   1      45.688  52.697  60.878  0.00  0.00     0.132 C 
HETATM    8  C   UNK N   1      45.959  54.217  60.930  0.00  0.00     0.038 C 
HETATM    9  C   UNK N   1      47.100  54.624  59.974  0.00  0.00    -0.008 C 
HETATM   10  C   UNK N   1      48.451  53.871  60.304  0.00  0.00    -0.036 C 
HETATM   11  C   UNK N   1      49.093  54.415  61.614  0.00  0.00     0.016 C 
HETATM   12  C   UNK N   1      47.220  56.163  59.941  0.00  0.00     0.011 C 
HETATM   13  C   UNK N   1      47.162  51.984  62.832  0.00  0.00     0.024 C 
ENDROOT
BRANCH  10  14
HETATM   14  C   UNK N   1      49.525  54.161  59.184  0.00  0.00     0.013 C 
BRANCH  14  15
HETATM   15  C   UNK N   1      49.380  53.355  57.869  0.00  0.00     0.046 C 
BRANCH  15  16
HETATM   16  C   UNK N   1      49.775  54.144  56.601  0.00  0.00     0.138 C 
HETATM   17  C   UNK N   1      51.279  54.457  56.467  0.00  0.00     0.299 C 
HETATM   18  O   UNK N   1      51.404  55.601  55.631  0.00  0.00    -0.326 OA
HETATM   19  C   UNK N   1      50.119  56.205  55.542  0.00  0.00     0.294 C 
HETATM   20  C   UNK N   1      49.284  55.576  56.652  0.00  0.00     0.212 C 
BRANCH  16  21
HETATM   21  O   UNK N   1      49.263  53.523  55.438  0.00  0.00    -0.382 OA
HETATM   22  H   UNK N   1      48.509  52.933  55.689  0.00  0.00     0.210 HD
ENDBRANCH  16  21
BRANCH  17  23
HETATM   23  O   UNK N   1      51.963  53.344  55.926  0.00  0.00    -0.363 OA
HETATM   24  C   UNK N   1      52.830  53.753  54.896  0.00  0.00     0.204 C 
ENDBRANCH  17  23
BRANCH  19  25
HETATM   25  O   UNK N   1      49.549  55.926  54.276  0.00  0.00    -0.363 OA
HETATM   26  C   UNK N   1      50.497  56.165  53.260  0.00  0.00     0.204 C 
ENDBRANCH  19  25
BRANCH  20  27
HETATM   27  O   UNK N   1      47.893  55.750  56.524  0.00  0.00    -0.387 OA
HETATM   28  H   UNK N   1      47.462  55.500  57.380  0.00  0.00     0.210 HD
ENDBRANCH  20  27
ENDBRANCH  15  16
ENDBRANCH  14  15
ENDBRANCH  10  14
BRANCH   1  29
HETATM   29  C   UNK N   1      45.400  49.695  61.393  0.00  0.00     0.172 C 
HETATM   30  O   UNK N   1      45.185  49.323  62.529  0.00  0.00    -0.646 OA
BRANCH  29  31
HETATM   31  O   UNK N   1      44.417  49.631  60.468  0.00  0.00    -0.773 OA
HETATM   32  H   UNK N   1      43.744  48.940  60.496  0.00  0.00     0.167 HD
ENDBRANCH  29  31
ENDBRANCH   1  29
BRANCH   7  33
HETATM   33  O   UNK N   1      44.585  52.425  61.713  0.00  0.00    -0.394 OA
HETATM   34  H   UNK N   1      43.771  52.784  61.275  0.00  0.00     0.210 HD
ENDBRANCH   7  33
TORSDOF 10
ENDMDL
MODEL 7
REMARK VINA RESULT:      -4.5     17.100     20.032
REMARK  10 active torsions:
REMARK  status: ('A' for Active; 'I' for Inactive)
REMARK    1  A    between atoms: C_2  and  O_3 
REMARK    2  A    between atoms: C_2  and  C_5 
REMARK    3  A    between atoms: C_11  and  O_12 
REMARK    4  A    between atoms: C_16  and  C_17 
REMARK    5  A    between atoms: C_17  and  C_18 
REMARK    6  A    between atoms: C_18  and  C_19 
REMARK    7  A    between atoms: C_19  and  O_20 
REMARK    8  A    between atoms: C_22  and  O_30 
REMARK    9  A    between atoms: C_24  and  O_25 
REMARK   10  A    between atoms: C_27  and  O_28 
ROOT
HETATM    1  C   UNK N   1      28.997  41.868  53.032  0.00  0.00     0.023 C 
HETATM    2  C   UNK N   1      30.273  41.858  53.477  0.00  0.00    -0.012 C 
HETATM    3  C   UNK N   1      30.697  41.292  54.805  0.00  0.00     0.028 C 
HETATM    4  C   UNK N   1      29.591  40.549  55.553  0.00  0.00     0.010 C 
HETATM    5  C   UNK N   1      28.251  41.297  55.395  0.00  0.00     0.010 C 
HETATM    6  C   UNK N   1      27.822  41.292  53.866  0.00  0.00     0.020 C 
HETATM    7  C   UNK N   1      26.546  42.196  53.761  0.00  0.00     0.132 C 
HETATM    8  C   UNK N   1      25.421  41.751  54.723  0.00  0.00     0.038 C 
HETATM    9  C   UNK N   1      25.876  41.817  56.197  0.00  0.00    -0.008 C 
HETATM   10  C   UNK N   1      27.144  40.914  56.471  0.00  0.00    -0.036 C 
HETATM   11  C   UNK N   1      26.774  39.402  56.451  0.00  0.00     0.016 C 
HETATM   12  C   UNK N   1      24.673  41.524  57.121  0.00  0.00     0.011 C 
HETATM   13  C   UNK N   1      27.525  39.900  53.240  0.00  0.00     0.024 C 
ENDROOT
BRANCH  10  14
HETATM   14  C   UNK N   1      27.692  41.170  57.928  0.00  0.00     0.013 C 
BRANCH  14  15
HETATM   15  C   UNK N   1      27.908  42.650  58.332  0.00  0.00     0.046 C 
BRANCH  15  16
HETATM   16  C   UNK N   1      29.355  42.983  58.757  0.00  0.00     0.138 C 
HETATM   17  C   UNK N   1      30.255  43.540  57.635  0.00  0.00     0.299 C 
HETATM   18  O   UNK N   1      31.603  43.263  57.994  0.00  0.00    -0.326 OA
HETATM   19  C   UNK N   1      31.576  42.293  59.034  0.00  0.00     0.294 C 
HETATM   20  C   UNK N   1      30.159  41.732  59.046  0.00  0.00     0.212 C 
BRANCH  16  21
HETATM   21  O   UNK N   1      29.368  43.812  59.902  0.00  0.00    -0.382 OA
HETATM   22  H   UNK N   1      28.523  44.326  59.942  0.00  0.00     0.210 HD
ENDBRANCH  16  21
BRANCH  17  23
HETATM   23  O   UNK N   1      30.036  44.928  57.478  0.00  0.00    -0.363 OA
HETATM   24  C   UNK N   1      31.256  45.627  57.533  0.00  0.00     0.204 C 
ENDBRANCH  17  23
BRANCH  19  25
HETATM   25  O   UNK N   1      31.871  42.916  60.271  0.00  0.00    -0.363 OA
HETATM   26  C   UNK N   1      33.181  42.584  60.675  0.00  0.00     0.204 C 
ENDBRANCH  19  25
BRANCH  20  27
HETATM   27  O   UNK N   1      29.803  41.033  60.215  0.00  0.00    -0.387 OA
HETATM   28  H   UNK N   1      30.424  41.295  60.942  0.00  0.00     0.210 HD
ENDBRANCH  20  27
ENDBRANCH  15  16
ENDBRANCH  14  15
ENDBRANCH  10  14
BRANCH   1  29
HETATM   29  C   UNK N   1      28.773  42.433  51.679  0.00  0.00     0.172 C 
HETATM   30  O   UNK N   1      28.800  43.637  51.516  0.00  0.00    -0.646 OA
BRANCH  29  31
HETATM   31  O   UNK N   1      28.652  41.614  50.610  0.00  0.00    -0.773 OA
HETATM   32  H   UNK N   1      29.425  41.275  50.146  0.00  0.00     0.167 HD
ENDBRANCH  29  31
ENDBRANCH   1  29
BRANCH   7  33
HETATM   33  O   UNK N   1      26.024  42.184  52.452  0.00  0.00    -0.394 OA
HETATM   34  H   UNK N   1      25.087  41.863  52.497  0.00  0.00     0.210 HD
ENDBRANCH   7  33
TORSDOF 10
ENDMDL
MODEL 8
REMARK VINA RESULT:      -4.5     17.535     19.853
REMARK  10 active torsions:
REMARK  status: ('A' for Active; 'I' for Inactive)
REMARK    1  A    between atoms: C_2  and  O_3 
REMARK    2  A    between atoms: C_2  and  C_5 
REMARK    3  A    between atoms: C_11  and  O_12 
REMARK    4  A    between atoms: C_16  and  C_17 
REMARK    5  A    between atoms: C_17  and  C_18 
REMARK    6  A    between atoms: C_18  and  C_19 
REMARK    7  A    between atoms: C_19  and  O_20 
REMARK    8  A    between atoms: C_22  and  O_30 
REMARK    9  A    between atoms: C_24  and  O_25 
REMARK   10  A    between atoms: C_27  and  O_28 
ROOT
HETATM    1  C   UNK N   1      30.532  42.177  55.773  0.00  0.00     0.023 C 
HETATM    2  C   UNK N   1      31.822  42.578  55.817  0.00  0.00    -0.012 C 
HETATM    3  C   UNK N   1      32.417  43.374  56.946  0.00  0.00     0.028 C 
HETATM    4  C   UNK N   1      31.493  43.543  58.152  0.00  0.00     0.010 C 
HETATM    5  C   UNK N   1      30.046  43.790  57.677  0.00  0.00     0.010 C 
HETATM    6  C   UNK N   1      29.520  42.509  56.902  0.00  0.00     0.020 C 
HETATM    7  C   UNK N   1      28.115  42.889  56.321  0.00  0.00     0.132 C 
HETATM    8  C   UNK N   1      27.141  43.403  57.405  0.00  0.00     0.038 C 
HETATM    9  C   UNK N   1      27.680  44.674  58.096  0.00  0.00    -0.008 C 
HETATM   10  C   UNK N   1      29.089  44.433  58.773  0.00  0.00    -0.036 C 
HETATM   11  C   UNK N   1      28.956  43.559  60.053  0.00  0.00     0.016 C 
HETATM   12  C   UNK N   1      26.603  45.237  59.049  0.00  0.00     0.011 C 
HETATM   13  C   UNK N   1      29.399  41.202  57.736  0.00  0.00     0.024 C 
ENDROOT
BRANCH  10  14
HETATM   14  C   UNK N   1      29.688  45.800  59.284  0.00  0.00     0.013 C 
BRANCH  14  15
HETATM   15  C   UNK N   1      29.982  46.870  58.202  0.00  0.00     0.046 C 
BRANCH  15  16
HETATM   16  C   UNK N   1      29.276  48.222  58.446  0.00  0.00     0.138 C 
HETATM   17  C   UNK N   1      28.592  48.365  59.820  0.00  0.00     0.299 C 
HETATM   18  O   UNK N   1      27.566  49.341  59.686  0.00  0.00    -0.326 OA
HETATM   19  C   UNK N   1      27.342  49.535  58.295  0.00  0.00     0.294 C 
HETATM   20  C   UNK N   1      28.032  48.369  57.595  0.00  0.00     0.212 C 
BRANCH  16  21
HETATM   21  O   UNK N   1      30.147  49.303  58.177  0.00  0.00    -0.382 OA
HETATM   22  H   UNK N   1      30.329  49.341  57.205  0.00  0.00     0.210 HD
ENDBRANCH  16  21
BRANCH  17  23
HETATM   23  O   UNK N   1      29.539  48.741  60.800  0.00  0.00    -0.363 OA
HETATM   24  C   UNK N   1      28.980  49.676  61.691  0.00  0.00     0.204 C 
ENDBRANCH  17  23
BRANCH  19  25
HETATM   25  O   UNK N   1      27.914  50.765  57.888  0.00  0.00    -0.363 OA
HETATM   26  C   UNK N   1      27.657  51.757  58.855  0.00  0.00     0.204 C 
ENDBRANCH  19  25
BRANCH  20  27
HETATM   27  O   UNK N   1      28.252  48.548  56.215  0.00  0.00    -0.387 OA
HETATM   28  H   UNK N   1      28.359  49.516  56.034  0.00  0.00     0.210 HD
ENDBRANCH  20  27
ENDBRANCH  15  16
ENDBRANCH  14  15
ENDBRANCH  10  14
BRANCH   1  29
HETATM   29  C   UNK N   1      30.131  41.366  54.597  0.00  0.00     0.172 C 
HETATM   30  O   UNK N   1      29.978  41.903  53.519  0.00  0.00    -0.646 OA
BRANCH  29  31
HETATM   31  O   UNK N   1      30.046  40.020  54.696  0.00  0.00    -0.773 OA
HETATM   32  H   UNK N   1      30.338  39.554  55.487  0.00  0.00     0.167 HD
ENDBRANCH  29  31
ENDBRANCH   1  29
BRANCH   7  33
HETATM   33  O   UNK N   1      27.513  41.782  55.688  0.00  0.00    -0.394 OA
HETATM   34  H   UNK N   1      26.657  41.592  56.151  0.00  0.00     0.210 HD
ENDBRANCH   7  33
TORSDOF 10
ENDMDL
MODEL 9
REMARK VINA RESULT:      -4.4     17.961     20.154
REMARK  10 active torsions:
REMARK  status: ('A' for Active; 'I' for Inactive)
REMARK    1  A    between atoms: C_2  and  O_3 
REMARK    2  A    between atoms: C_2  and  C_5 
REMARK    3  A    between atoms: C_11  and  O_12 
REMARK    4  A    between atoms: C_16  and  C_17 
REMARK    5  A    between atoms: C_17  and  C_18 
REMARK    6  A    between atoms: C_18  and  C_19 
REMARK    7  A    between atoms: C_19  and  O_20 
REMARK    8  A    between atoms: C_22  and  O_30 
REMARK    9  A    between atoms: C_24  and  O_25 
REMARK   10  A    between atoms: C_27  and  O_28 
ROOT
HETATM    1  C   UNK N   1      32.536  42.769  59.142  0.00  0.00     0.023 C 
HETATM    2  C   UNK N   1      32.766  43.275  57.909  0.00  0.00    -0.012 C 
HETATM    3  C   UNK N   1      31.688  43.809  57.006  0.00  0.00     0.028 C 
HETATM    4  C   UNK N   1      30.311  43.912  57.662  0.00  0.00     0.010 C 
HETATM    5  C   UNK N   1      30.062  42.685  58.562  0.00  0.00     0.010 C 
HETATM    6  C   UNK N   1      31.113  42.682  59.753  0.00  0.00     0.020 C 
HETATM    7  C   UNK N   1      30.900  41.337  60.528  0.00  0.00     0.132 C 
HETATM    8  C   UNK N   1      29.439  41.140  60.989  0.00  0.00     0.038 C 
HETATM    9  C   UNK N   1      28.466  41.105  59.792  0.00  0.00    -0.008 C 
HETATM   10  C   UNK N   1      28.535  42.427  58.927  0.00  0.00    -0.036 C 
HETATM   11  C   UNK N   1      27.878  43.624  59.675  0.00  0.00     0.016 C 
HETATM   12  C   UNK N   1      27.049  40.743  60.290  0.00  0.00     0.011 C 
HETATM   13  C   UNK N   1      31.026  43.874  60.749  0.00  0.00     0.024 C 
ENDROOT
BRANCH  10  14
HETATM   14  C   UNK N   1      27.682  42.264  57.610  0.00  0.00     0.013 C 
BRANCH  14  15
HETATM   15  C   UNK N   1      28.213  41.247  56.569  0.00  0.00     0.046 C 
BRANCH  15  16
HETATM   16  C   UNK N   1      28.058  41.707  55.103  0.00  0.00     0.138 C 
HETATM   17  C   UNK N   1      26.845  41.118  54.356  0.00  0.00     0.299 C 
HETATM   18  O   UNK N   1      27.141  41.157  52.965  0.00  0.00    -0.326 OA
HETATM   19  C   UNK N   1      28.539  41.383  52.833  0.00  0.00     0.294 C 
HETATM   20  C   UNK N   1      29.136  41.124  54.212  0.00  0.00     0.212 C 
BRANCH  16  21
HETATM   21  O   UNK N   1      28.098  43.118  55.008  0.00  0.00    -0.382 OA
HETATM   22  H   UNK N   1      27.674  43.400  54.160  0.00  0.00     0.210 HD
ENDBRANCH  16  21
BRANCH  17  23
HETATM   23  O   UNK N   1      25.679  41.858  54.657  0.00  0.00    -0.363 OA
HETATM   24  C   UNK N   1      24.703  41.025  55.234  0.00  0.00     0.204 C 
ENDBRANCH  17  23
BRANCH  19  25
HETATM   25  O   UNK N   1      28.769  42.723  52.439  0.00  0.00    -0.363 OA
HETATM   26  C   UNK N   1      27.787  43.126  51.512  0.00  0.00     0.204 C 
ENDBRANCH  19  25
BRANCH  20  27
HETATM   27  O   UNK N   1      30.433  41.634  54.407  0.00  0.00    -0.387 OA
HETATM   28  H   UNK N   1      31.089  40.962  54.089  0.00  0.00     0.210 HD
ENDBRANCH  20  27
ENDBRANCH  15  16
ENDBRANCH  14  15
ENDBRANCH  10  14
BRANCH   1  29
HETATM   29  C   UNK N   1      33.728  42.324  59.906  0.00  0.00     0.172 C 
HETATM   30  O   UNK N   1      34.188  43.038  60.774  0.00  0.00    -0.646 OA
BRANCH  29  31
HETATM   31  O   UNK N   1      34.234  41.085  59.717  0.00  0.00    -0.773 OA
HETATM   32  H   UNK N   1      33.667  40.339  59.487  0.00  0.00     0.167 HD
ENDBRANCH  29  31
ENDBRANCH   1  29
BRANCH   7  33
HETATM   33  O   UNK N   1      31.726  41.276  61.669  0.00  0.00    -0.394 OA
HETATM   34  H   UNK N   1      31.143  41.181  62.466  0.00  0.00     0.210 HD
ENDBRANCH   7  33
TORSDOF 10
ENDMDL
