MODEL 1
REMARK VINA RESULT:      -7.2      0.000      0.000
REMARK  6 active torsions:
REMARK  status: ('A' for Active; 'I' for Inactive)
REMARK    1  A    between atoms: C_8  and  O_10 
REMARK    2  A    between atoms: O_10  and  C_11 
REMARK    3  A    between atoms: C_11  and  C_12 
REMARK    4  A    between atoms: C_15  and  C_21 
REMARK    5  A    between atoms: C_16  and  O_17 
REMARK    6  A    between atoms: C_21  and  O_22 
ROOT
HETATM    1  C   UNK N   1      40.465  46.084  48.292  0.00  0.00     0.047 C 
HETATM    2  C   UNK N   1      41.372  45.344  49.379  0.00  0.00    -0.030 C 
HETATM    3  C   UNK N   1      40.390  44.704  50.431  0.00  0.00     0.011 C 
HETATM    4  C   UNK N   1      40.997  44.239  51.833  0.00  0.00     0.008 C 
HETATM    5  C   UNK N   1      41.880  45.406  52.385  0.00  0.00     0.128 C 
HETATM    6  C   UNK N   1      42.946  45.853  51.368  0.00  0.00     0.033 C 
HETATM    7  C   UNK N   1      42.268  46.392  50.104  0.00  0.00     0.013 C 
HETATM    8  C   UNK N   1      39.834  44.024  52.844  0.00  0.00     0.020 C 
HETATM    9  C   UNK N   1      39.508  43.636  49.741  0.00  0.00     0.033 C 
HETATM   10  C   UNK N   1      38.860  44.135  48.485  0.00  0.00    -0.023 C 
HETATM   11  C   UNK N   1      39.250  45.250  47.836  0.00  0.00    -0.081 C 
HETATM   12  C   UNK N   1      38.415  45.710  46.657  0.00  0.00     0.043 C 
HETATM   13  C   UNK N   1      42.284  44.292  48.676  0.00  0.00     0.016 C 
ENDROOT
BRANCH   1  14
HETATM   14  C   UNK N   1      41.245  46.589  47.049  0.00  0.00     0.185 C 
BRANCH  14  15
HETATM   15  O   UNK N   1      41.175  47.959  46.907  0.00  0.00    -0.350 OA
BRANCH  15  16
HETATM   16  C   UNK N   1      40.636  48.573  45.823  0.00  0.00     0.071 A 
HETATM   17  C   UNK N   1      41.275  49.706  45.302  0.00  0.00     0.038 A 
HETATM   18  C   UNK N   1      40.728  50.391  44.212  0.00  0.00     0.017 A 
HETATM   19  C   UNK N   1      39.540  49.936  43.623  0.00  0.00    -0.002 A 
HETATM   20  C   UNK N   1      38.902  48.785  44.127  0.00  0.00     0.092 A 
HETATM   21  C   UNK N   1      38.960  50.599  42.538  0.00  0.00     0.020 A 
HETATM   22  O   UNK N   1      37.779  48.339  43.570  0.00  0.00    -0.275 OA
HETATM   23  C   UNK N   1      39.444  48.113  45.221  0.00  0.00     0.075 A 
HETATM   24  C   UNK N   1      37.207  48.946  42.533  0.00  0.00     0.288 A 
HETATM   25  O   UNK N   1      36.181  48.496  42.060  0.00  0.00    -0.260 OA
HETATM   26  C   UNK N   1      37.781  50.101  41.987  0.00  0.00     0.083 A 
ENDBRANCH  15  16
ENDBRANCH  14  15
ENDBRANCH   1  14
BRANCH   4  27
HETATM   27  C   UNK N   1      41.821  42.905  51.822  0.00  0.00     0.176 C 
BRANCH  27  28
HETATM   28  O   UNK N   1      42.027  42.413  53.117  0.00  0.00    -0.400 OA
HETATM   29  H   UNK N   1      41.205  42.617  53.632  0.00  0.00     0.209 HD
ENDBRANCH  27  28
ENDBRANCH   4  27
BRANCH   5  30
HETATM   30  O   UNK N   1      42.496  45.031  53.593  0.00  0.00    -0.395 OA
HETATM   31  H   UNK N   1      41.803  45.075  54.303  0.00  0.00     0.210 HD
ENDBRANCH   5  30
TORSDOF 6
ENDMDL
MODEL 2
REMARK VINA RESULT:      -7.1      9.643     16.156
REMARK  6 active torsions:
REMARK  status: ('A' for Active; 'I' for Inactive)
REMARK    1  A    between atoms: C_8  and  O_10 
REMARK    2  A    between atoms: O_10  and  C_11 
REMARK    3  A    between atoms: C_11  and  C_12 
REMARK    4  A    between atoms: C_15  and  C_21 
REMARK    5  A    between atoms: C_16  and  O_17 
REMARK    6  A    between atoms: C_21  and  O_22 
ROOT
HETATM    1  C   UNK N   1      28.797  55.726  41.350  0.00  0.00     0.047 C 
HETATM    2  C   UNK N   1      28.681  54.652  40.173  0.00  0.00    -0.030 C 
HETATM    3  C   UNK N   1      27.162  54.587  39.764  0.00  0.00     0.011 C 
HETATM    4  C   UNK N   1      26.674  53.340  38.895  0.00  0.00     0.008 C 
HETATM    5  C   UNK N   1      27.229  52.041  39.569  0.00  0.00     0.128 C 
HETATM    6  C   UNK N   1      28.754  52.099  39.764  0.00  0.00     0.033 C 
HETATM    7  C   UNK N   1      29.117  53.254  40.704  0.00  0.00     0.013 C 
HETATM    8  C   UNK N   1      25.121  53.259  38.949  0.00  0.00     0.020 C 
HETATM    9  C   UNK N   1      26.712  55.959  39.204  0.00  0.00     0.033 C 
HETATM   10  C   UNK N   1      27.085  57.105  40.095  0.00  0.00    -0.023 C 
HETATM   11  C   UNK N   1      27.993  57.015  41.087  0.00  0.00    -0.081 C 
HETATM   12  C   UNK N   1      28.168  58.216  41.996  0.00  0.00     0.043 C 
HETATM   13  C   UNK N   1      29.614  55.063  38.992  0.00  0.00     0.016 C 
ENDROOT
BRANCH   1  14
HETATM   14  C   UNK N   1      30.255  56.092  41.738  0.00  0.00     0.185 C 
BRANCH  14  15
HETATM   15  O   UNK N   1      30.507  55.893  43.079  0.00  0.00    -0.350 OA
BRANCH  15  16
HETATM   16  C   UNK N   1      31.350  54.939  43.548  0.00  0.00     0.071 A 
HETATM   17  C   UNK N   1      32.324  55.302  44.489  0.00  0.00     0.038 A 
HETATM   18  C   UNK N   1      33.238  54.356  44.965  0.00  0.00     0.017 A 
HETATM   19  C   UNK N   1      33.174  53.031  44.513  0.00  0.00    -0.002 A 
HETATM   20  C   UNK N   1      32.185  52.652  43.583  0.00  0.00     0.092 A 
HETATM   21  C   UNK N   1      34.075  52.061  44.960  0.00  0.00     0.020 A 
HETATM   22  O   UNK N   1      32.110  51.394  43.155  0.00  0.00    -0.275 OA
HETATM   23  C   UNK N   1      31.284  53.601  43.103  0.00  0.00     0.075 A 
HETATM   24  C   UNK N   1      32.951  50.448  43.567  0.00  0.00     0.288 A 
HETATM   25  O   UNK N   1      32.837  49.314  43.145  0.00  0.00    -0.260 OA
HETATM   26  C   UNK N   1      33.965  50.756  44.483  0.00  0.00     0.083 A 
ENDBRANCH  15  16
ENDBRANCH  14  15
ENDBRANCH   1  14
BRANCH   4  27
HETATM   27  C   UNK N   1      27.061  53.360  37.376  0.00  0.00     0.176 C 
BRANCH  27  28
HETATM   28  O   UNK N   1      26.174  52.597  36.605  0.00  0.00    -0.400 OA
HETATM   29  H   UNK N   1      26.698  52.240  35.842  0.00  0.00     0.209 HD
ENDBRANCH  27  28
ENDBRANCH   4  27
BRANCH   5  30
HETATM   30  O   UNK N   1      26.884  50.906  38.811  0.00  0.00    -0.395 OA
HETATM   31  H   UNK N   1      27.670  50.677  38.249  0.00  0.00     0.210 HD
ENDBRANCH   5  30
TORSDOF 6
ENDMDL
MODEL 3
REMARK VINA RESULT:      -6.8     14.086     17.241
REMARK  6 active torsions:
REMARK  status: ('A' for Active; 'I' for Inactive)
REMARK    1  A    between atoms: C_8  and  O_10 
REMARK    2  A    between atoms: O_10  and  C_11 
REMARK    3  A    between atoms: C_11  and  C_12 
REMARK    4  A    between atoms: C_15  and  C_21 
REMARK    5  A    between atoms: C_16  and  O_17 
REMARK    6  A    between atoms: C_21  and  O_22 
ROOT
HETATM    1  C   UNK N   1      31.464  44.317  60.469  0.00  0.00     0.047 C 
HETATM    2  C   UNK N   1      30.151  45.153  60.109  0.00  0.00    -0.030 C 
HETATM    3  C   UNK N   1      30.469  45.952  58.790  0.00  0.00     0.011 C 
HETATM    4  C   UNK N   1      29.505  47.164  58.400  0.00  0.00     0.008 C 
HETATM    5  C   UNK N   1      29.311  48.051  59.674  0.00  0.00     0.128 C 
HETATM    6  C   UNK N   1      28.816  47.231  60.878  0.00  0.00     0.033 C 
HETATM    7  C   UNK N   1      29.857  46.170  61.252  0.00  0.00     0.013 C 
HETATM    8  C   UNK N   1      30.206  48.046  57.327  0.00  0.00     0.020 C 
HETATM    9  C   UNK N   1      30.735  44.961  57.630  0.00  0.00     0.033 C 
HETATM   10  C   UNK N   1      31.729  43.898  57.986  0.00  0.00    -0.023 C 
HETATM   11  C   UNK N   1      32.098  43.613  59.251  0.00  0.00    -0.081 C 
HETATM   12  C   UNK N   1      33.214  42.608  59.453  0.00  0.00     0.043 C 
HETATM   13  C   UNK N   1      28.935  44.187  59.961  0.00  0.00     0.016 C 
ENDROOT
BRANCH   1  14
HETATM   14  C   UNK N   1      31.272  43.292  61.619  0.00  0.00     0.185 C 
BRANCH  14  15
HETATM   15  O   UNK N   1      31.723  43.772  62.831  0.00  0.00    -0.350 OA
BRANCH  15  16
HETATM   16  C   UNK N   1      32.800  44.589  62.957  0.00  0.00     0.071 A 
HETATM   17  C   UNK N   1      32.596  45.917  63.355  0.00  0.00     0.038 A 
HETATM   18  C   UNK N   1      33.676  46.801  63.456  0.00  0.00     0.017 A 
HETATM   19  C   UNK N   1      34.975  46.356  63.175  0.00  0.00    -0.002 A 
HETATM   20  C   UNK N   1      35.192  45.016  62.794  0.00  0.00     0.092 A 
HETATM   21  C   UNK N   1      36.076  47.212  63.257  0.00  0.00     0.020 A 
HETATM   22  O   UNK N   1      36.422  44.580  62.534  0.00  0.00    -0.275 OA
HETATM   23  C   UNK N   1      34.111  44.142  62.683  0.00  0.00     0.075 A 
HETATM   24  C   UNK N   1      37.490  45.371  62.610  0.00  0.00     0.288 A 
HETATM   25  O   UNK N   1      38.592  44.922  62.362  0.00  0.00    -0.260 OA
HETATM   26  C   UNK N   1      37.347  46.716  62.971  0.00  0.00     0.083 A 
ENDBRANCH  15  16
ENDBRANCH  14  15
ENDBRANCH   1  14
BRANCH   4  27
HETATM   27  C   UNK N   1      28.108  46.774  57.804  0.00  0.00     0.176 C 
BRANCH  27  28
HETATM   28  O   UNK N   1      27.657  47.723  56.877  0.00  0.00    -0.400 OA
HETATM   29  H   UNK N   1      27.156  47.224  56.182  0.00  0.00     0.209 HD
ENDBRANCH  27  28
ENDBRANCH   4  27
BRANCH   5  30
HETATM   30  O   UNK N   1      28.418  49.106  59.410  0.00  0.00    -0.395 OA
HETATM   31  H   UNK N   1      27.503  48.720  59.393  0.00  0.00     0.210 HD
ENDBRANCH   5  30
TORSDOF 6
ENDMDL
MODEL 4
REMARK VINA RESULT:      -6.7     13.045     15.335
REMARK  6 active torsions:
REMARK  status: ('A' for Active; 'I' for Inactive)
REMARK    1  A    between atoms: C_8  and  O_10 
REMARK    2  A    between atoms: O_10  and  C_11 
REMARK    3  A    between atoms: C_11  and  C_12 
REMARK    4  A    between atoms: C_15  and  C_21 
REMARK    5  A    between atoms: C_16  and  O_17 
REMARK    6  A    between atoms: C_21  and  O_22 
ROOT
HETATM    1  C   UNK N   1      29.758  43.428  57.067  0.00  0.00     0.047 C 
HETATM    2  C   UNK N   1      28.752  42.569  56.171  0.00  0.00    -0.030 C 
HETATM    3  C   UNK N   1      29.348  42.545  54.714  0.00  0.00     0.011 C 
HETATM    4  C   UNK N   1      28.384  42.102  53.520  0.00  0.00     0.008 C 
HETATM    5  C   UNK N   1      27.043  42.893  53.668  0.00  0.00     0.128 C 
HETATM    6  C   UNK N   1      26.419  42.715  55.064  0.00  0.00     0.033 C 
HETATM    7  C   UNK N   1      27.363  43.274  56.133  0.00  0.00     0.013 C 
HETATM    8  C   UNK N   1      29.023  42.527  52.167  0.00  0.00     0.020 C 
HETATM    9  C   UNK N   1      30.717  41.821  54.721  0.00  0.00     0.033 C 
HETATM   10  C   UNK N   1      31.644  42.334  55.780  0.00  0.00    -0.023 C 
HETATM   11  C   UNK N   1      31.242  43.086  56.824  0.00  0.00    -0.081 C 
HETATM   12  C   UNK N   1      32.310  43.650  57.742  0.00  0.00     0.043 C 
HETATM   13  C   UNK N   1      28.585  41.145  56.787  0.00  0.00     0.016 C 
ENDROOT
BRANCH   1  14
HETATM   14  C   UNK N   1      29.456  43.382  58.589  0.00  0.00     0.185 C 
BRANCH  14  15
HETATM   15  O   UNK N   1      29.583  44.618  59.187  0.00  0.00    -0.350 OA
BRANCH  15  16
HETATM   16  C   UNK N   1      29.241  45.782  58.579  0.00  0.00     0.071 A 
HETATM   17  C   UNK N   1      27.882  46.107  58.458  0.00  0.00     0.038 A 
HETATM   18  C   UNK N   1      27.488  47.277  57.800  0.00  0.00     0.017 A 
HETATM   19  C   UNK N   1      28.455  48.142  57.271  0.00  0.00    -0.002 A 
HETATM   20  C   UNK N   1      29.824  47.835  57.407  0.00  0.00     0.092 A 
HETATM   21  C   UNK N   1      28.099  49.316  56.601  0.00  0.00     0.020 A 
HETATM   22  O   UNK N   1      30.751  48.654  56.915  0.00  0.00    -0.275 OA
HETATM   23  C   UNK N   1      30.211  46.661  58.051  0.00  0.00     0.075 A 
HETATM   24  C   UNK N   1      30.441  49.781  56.278  0.00  0.00     0.288 A 
HETATM   25  O   UNK N   1      31.327  50.495  55.849  0.00  0.00    -0.260 OA
HETATM   26  C   UNK N   1      29.101  50.144  56.098  0.00  0.00     0.083 A 
ENDBRANCH  15  16
ENDBRANCH  14  15
ENDBRANCH   1  14
BRANCH   4  27
HETATM   27  C   UNK N   1      28.088  40.567  53.403  0.00  0.00     0.176 C 
BRANCH  27  28
HETATM   28  O   UNK N   1      27.724  40.207  52.099  0.00  0.00    -0.400 OA
HETATM   29  H   UNK N   1      27.431  41.040  51.647  0.00  0.00     0.209 HD
ENDBRANCH  27  28
ENDBRANCH   4  27
BRANCH   5  30
HETATM   30  O   UNK N   1      26.125  42.498  52.677  0.00  0.00    -0.395 OA
HETATM   31  H   UNK N   1      26.627  42.422  51.824  0.00  0.00     0.210 HD
ENDBRANCH   5  30
TORSDOF 6
ENDMDL
MODEL 5
REMARK VINA RESULT:      -6.7     13.964     16.601
REMARK  6 active torsions:
REMARK  status: ('A' for Active; 'I' for Inactive)
REMARK    1  A    between atoms: C_8  and  O_10 
REMARK    2  A    between atoms: O_10  and  C_11 
REMARK    3  A    between atoms: C_11  and  C_12 
REMARK    4  A    between atoms: C_15  and  C_21 
REMARK    5  A    between atoms: C_16  and  O_17 
REMARK    6  A    between atoms: C_21  and  O_22 
ROOT
HETATM    1  C   UNK N   1      33.050  46.837  63.639  0.00  0.00     0.047 C 
HETATM    2  C   UNK N   1      34.526  46.304  63.940  0.00  0.00    -0.030 C 
HETATM    3  C   UNK N   1      35.520  47.280  63.207  0.00  0.00     0.011 C 
HETATM    4  C   UNK N   1      37.026  46.793  62.997  0.00  0.00     0.008 C 
HETATM    5  C   UNK N   1      36.984  45.341  62.416  0.00  0.00     0.128 C 
HETATM    6  C   UNK N   1      36.145  44.394  63.291  0.00  0.00     0.033 C 
HETATM    7  C   UNK N   1      34.691  44.876  63.339  0.00  0.00     0.013 C 
HETATM    8  C   UNK N   1      37.708  47.697  61.930  0.00  0.00     0.020 C 
HETATM    9  C   UNK N   1      35.395  48.701  63.808  0.00  0.00     0.033 C 
HETATM   10  C   UNK N   1      33.978  49.179  63.891  0.00  0.00    -0.023 C 
HETATM   11  C   UNK N   1      32.908  48.366  63.784  0.00  0.00    -0.081 C 
HETATM   12  C   UNK N   1      31.534  49.006  63.748  0.00  0.00     0.043 C 
HETATM   13  C   UNK N   1      34.758  46.238  65.481  0.00  0.00     0.016 C 
ENDROOT
BRANCH   1  14
HETATM   14  C   UNK N   1      31.938  46.131  64.460  0.00  0.00     0.185 C 
BRANCH  14  15
HETATM   15  O   UNK N   1      31.233  45.214  63.710  0.00  0.00    -0.350 OA
BRANCH  15  16
HETATM   16  C   UNK N   1      31.040  45.332  62.371  0.00  0.00     0.071 A 
HETATM   17  C   UNK N   1      30.175  46.329  61.900  0.00  0.00     0.038 A 
HETATM   18  C   UNK N   1      29.917  46.456  60.531  0.00  0.00     0.017 A 
HETATM   19  C   UNK N   1      30.539  45.593  59.618  0.00  0.00    -0.002 A 
HETATM   20  C   UNK N   1      31.428  44.601  60.082  0.00  0.00     0.092 A 
HETATM   21  C   UNK N   1      30.300  45.685  58.245  0.00  0.00     0.020 A 
HETATM   22  O   UNK N   1      32.030  43.783  59.223  0.00  0.00    -0.275 OA
HETATM   23  C   UNK N   1      31.671  44.471  61.448  0.00  0.00     0.075 A 
HETATM   24  C   UNK N   1      31.826  43.851  57.909  0.00  0.00     0.288 A 
HETATM   25  O   UNK N   1      32.404  43.079  57.168  0.00  0.00    -0.260 OA
HETATM   26  C   UNK N   1      30.949  44.805  57.380  0.00  0.00     0.083 A 
ENDBRANCH  15  16
ENDBRANCH  14  15
ENDBRANCH   1  14
BRANCH   4  27
HETATM   27  C   UNK N   1      37.950  46.835  64.263  0.00  0.00     0.176 C 
BRANCH  27  28
HETATM   28  O   UNK N   1      39.306  46.871  63.914  0.00  0.00    -0.400 OA
HETATM   29  H   UNK N   1      39.540  47.826  63.785  0.00  0.00     0.209 HD
ENDBRANCH  27  28
ENDBRANCH   4  27
BRANCH   5  30
HETATM   30  O   UNK N   1      38.288  44.831  62.267  0.00  0.00    -0.395 OA
HETATM   31  H   UNK N   1      38.203  43.865  62.056  0.00  0.00     0.210 HD
ENDBRANCH   5  30
TORSDOF 6
ENDMDL
MODEL 6
REMARK VINA RESULT:      -6.5      1.570      2.037
REMARK  6 active torsions:
REMARK  status: ('A' for Active; 'I' for Inactive)
REMARK    1  A    between atoms: C_8  and  O_10 
REMARK    2  A    between atoms: O_10  and  C_11 
REMARK    3  A    between atoms: C_11  and  C_12 
REMARK    4  A    between atoms: C_15  and  C_21 
REMARK    5  A    between atoms: C_16  and  O_17 
REMARK    6  A    between atoms: C_21  and  O_22 
ROOT
HETATM    1  C   UNK N   1      40.091  46.250  48.081  0.00  0.00     0.047 C 
HETATM    2  C   UNK N   1      41.127  45.517  49.051  0.00  0.00    -0.030 C 
HETATM    3  C   UNK N   1      40.280  44.826  50.184  0.00  0.00     0.011 C 
HETATM    4  C   UNK N   1      41.043  44.351  51.504  0.00  0.00     0.008 C 
HETATM    5  C   UNK N   1      41.946  45.534  51.988  0.00  0.00     0.128 C 
HETATM    6  C   UNK N   1      42.885  46.034  50.877  0.00  0.00     0.033 C 
HETATM    7  C   UNK N   1      42.064  46.578  49.702  0.00  0.00     0.013 C 
HETATM    8  C   UNK N   1      39.999  44.080  52.625  0.00  0.00     0.020 C 
HETATM    9  C   UNK N   1      39.361  43.745  49.564  0.00  0.00     0.033 C 
HETATM   10  C   UNK N   1      38.571  44.249  48.395  0.00  0.00    -0.023 C 
HETATM   11  C   UNK N   1      38.859  45.389  47.735  0.00  0.00    -0.081 C 
HETATM   12  C   UNK N   1      37.892  45.847  46.660  0.00  0.00     0.043 C 
HETATM   13  C   UNK N   1      41.991  44.508  48.232  0.00  0.00     0.016 C 
ENDROOT
BRANCH   1  14
HETATM   14  C   UNK N   1      40.721  46.805  46.776  0.00  0.00     0.185 C 
BRANCH  14  15
HETATM   15  O   UNK N   1      40.596  48.174  46.673  0.00  0.00    -0.350 OA
BRANCH  15  16
HETATM   16  C   UNK N   1      40.127  48.802  45.564  0.00  0.00     0.071 A 
HETATM   17  C   UNK N   1      39.264  48.104  44.708  0.00  0.00     0.038 A 
HETATM   18  C   UNK N   1      38.794  48.701  43.534  0.00  0.00     0.017 A 
HETATM   19  C   UNK N   1      39.172  50.012  43.214  0.00  0.00    -0.002 A 
HETATM   20  C   UNK N   1      40.023  50.729  44.080  0.00  0.00     0.092 A 
HETATM   21  C   UNK N   1      38.728  50.637  42.047  0.00  0.00     0.020 A 
HETATM   22  O   UNK N   1      40.381  51.977  43.791  0.00  0.00    -0.275 OA
HETATM   23  C   UNK N   1      40.499  50.125  45.243  0.00  0.00     0.075 A 
HETATM   24  C   UNK N   1      39.969  52.601  42.689  0.00  0.00     0.288 A 
HETATM   25  O   UNK N   1      40.326  53.743  42.473  0.00  0.00    -0.260 OA
HETATM   26  C   UNK N   1      39.131  51.945  41.779  0.00  0.00     0.083 A 
ENDBRANCH  15  16
ENDBRANCH  14  15
ENDBRANCH   1  14
BRANCH   4  27
HETATM   27  C   UNK N   1      41.900  43.044  51.376  0.00  0.00     0.176 C 
BRANCH  27  28
HETATM   28  O   UNK N   1      42.042  42.395  52.609  0.00  0.00    -0.400 OA
HETATM   29  H   UNK N   1      41.627  41.500  52.507  0.00  0.00     0.209 HD
ENDBRANCH  27  28
ENDBRANCH   4  27
BRANCH   5  30
HETATM   30  O   UNK N   1      42.695  45.153  53.117  0.00  0.00    -0.395 OA
HETATM   31  H   UNK N   1      42.259  45.560  53.910  0.00  0.00     0.210 HD
ENDBRANCH   5  30
TORSDOF 6
ENDMDL
MODEL 7
REMARK VINA RESULT:      -6.3      9.893     16.429
REMARK  6 active torsions:
REMARK  status: ('A' for Active; 'I' for Inactive)
REMARK    1  A    between atoms: C_8  and  O_10 
REMARK    2  A    between atoms: O_10  and  C_11 
REMARK    3  A    between atoms: C_11  and  C_12 
REMARK    4  A    between atoms: C_15  and  C_21 
REMARK    5  A    between atoms: C_16  and  O_17 
REMARK    6  A    between atoms: C_21  and  O_22 
ROOT
HETATM    1  C   UNK N   1      28.263  53.195  39.352  0.00  0.00     0.047 C 
HETATM    2  C   UNK N   1      27.833  54.338  40.382  0.00  0.00    -0.030 C 
HETATM    3  C   UNK N   1      27.563  55.637  39.534  0.00  0.00     0.011 C 
HETATM    4  C   UNK N   1      27.498  57.033  40.306  0.00  0.00     0.008 C 
HETATM    5  C   UNK N   1      28.739  57.115  41.255  0.00  0.00     0.128 C 
HETATM    6  C   UNK N   1      28.832  55.896  42.190  0.00  0.00     0.033 C 
HETATM    7  C   UNK N   1      29.010  54.617  41.365  0.00  0.00     0.013 C 
HETATM    8  C   UNK N   1      27.630  58.191  39.274  0.00  0.00     0.020 C 
HETATM    9  C   UNK N   1      26.376  55.394  38.570  0.00  0.00     0.033 C 
HETATM   10  C   UNK N   1      26.517  54.132  37.776  0.00  0.00    -0.023 C 
HETATM   11  C   UNK N   1      27.381  53.145  38.087  0.00  0.00    -0.081 C 
HETATM   12  C   UNK N   1      27.514  51.988  37.117  0.00  0.00     0.043 C 
HETATM   13  C   UNK N   1      26.588  53.871  41.198  0.00  0.00     0.016 C 
ENDROOT
BRANCH   1  14
HETATM   14  C   UNK N   1      28.358  51.777  39.977  0.00  0.00     0.185 C 
BRANCH  14  15
HETATM   15  O   UNK N   1      29.570  51.172  39.723  0.00  0.00    -0.350 OA
BRANCH  15  16
HETATM   16  C   UNK N   1      30.432  50.785  40.698  0.00  0.00     0.071 A 
HETATM   17  C   UNK N   1      30.660  49.416  40.894  0.00  0.00     0.038 A 
HETATM   18  C   UNK N   1      31.508  48.976  41.916  0.00  0.00     0.017 A 
HETATM   19  C   UNK N   1      32.149  49.908  42.743  0.00  0.00    -0.002 A 
HETATM   20  C   UNK N   1      31.943  51.288  42.540  0.00  0.00     0.092 A 
HETATM   21  C   UNK N   1      32.997  49.506  43.778  0.00  0.00     0.020 A 
HETATM   22  O   UNK N   1      32.555  52.181  43.314  0.00  0.00    -0.275 OA
HETATM   23  C   UNK N   1      31.087  51.720  41.529  0.00  0.00     0.075 A 
HETATM   24  C   UNK N   1      33.371  51.827  44.304  0.00  0.00     0.288 A 
HETATM   25  O   UNK N   1      33.906  52.684  44.981  0.00  0.00    -0.260 OA
HETATM   26  C   UNK N   1      33.614  50.474  44.568  0.00  0.00     0.083 A 
ENDBRANCH  15  16
ENDBRANCH  14  15
ENDBRANCH   1  14
BRANCH   4  27
HETATM   27  C   UNK N   1      26.187  57.315  41.118  0.00  0.00     0.176 C 
BRANCH  27  28
HETATM   28  O   UNK N   1      25.884  58.682  41.155  0.00  0.00    -0.400 OA
HETATM   29  H   UNK N   1      26.590  59.115  41.700  0.00  0.00     0.209 HD
ENDBRANCH  27  28
ENDBRANCH   4  27
BRANCH   5  30
HETATM   30  O   UNK N   1      28.705  58.301  42.012  0.00  0.00    -0.395 OA
HETATM   31  H   UNK N   1      28.545  58.042  42.957  0.00  0.00     0.210 HD
ENDBRANCH   5  30
TORSDOF 6
ENDMDL
MODEL 8
REMARK VINA RESULT:      -6.3     14.114     16.505
REMARK  6 active torsions:
REMARK  status: ('A' for Active; 'I' for Inactive)
REMARK    1  A    between atoms: C_8  and  O_10 
REMARK    2  A    between atoms: O_10  and  C_11 
REMARK    3  A    between atoms: C_11  and  C_12 
REMARK    4  A    between atoms: C_15  and  C_21 
REMARK    5  A    between atoms: C_16  and  O_17 
REMARK    6  A    between atoms: C_21  and  O_22 
ROOT
HETATM    1  C   UNK N   1      32.957  45.069  63.075  0.00  0.00     0.047 C 
HETATM    2  C   UNK N   1      34.386  45.342  63.735  0.00  0.00    -0.030 C 
HETATM    3  C   UNK N   1      34.837  46.776  63.265  0.00  0.00     0.011 C 
HETATM    4  C   UNK N   1      36.375  47.169  63.438  0.00  0.00     0.008 C 
HETATM    5  C   UNK N   1      37.237  45.991  62.873  0.00  0.00     0.128 C 
HETATM    6  C   UNK N   1      36.867  44.645  63.519  0.00  0.00     0.033 C 
HETATM    7  C   UNK N   1      35.409  44.295  63.202  0.00  0.00     0.013 C 
HETATM    8  C   UNK N   1      36.680  48.422  62.567  0.00  0.00     0.020 C 
HETATM    9  C   UNK N   1      33.850  47.838  63.808  0.00  0.00     0.033 C 
HETATM   10  C   UNK N   1      32.417  47.500  63.535  0.00  0.00    -0.023 C 
HETATM   11  C   UNK N   1      31.996  46.272  63.171  0.00  0.00    -0.081 C 
HETATM   12  C   UNK N   1      30.537  46.108  62.792  0.00  0.00     0.043 C 
HETATM   13  C   UNK N   1      34.283  45.211  65.286  0.00  0.00     0.016 C 
ENDROOT
BRANCH   1  14
HETATM   14  C   UNK N   1      32.246  43.793  63.600  0.00  0.00     0.185 C 
BRANCH  14  15
HETATM   15  O   UNK N   1      32.428  42.710  62.765  0.00  0.00    -0.350 OA
BRANCH  15  16
HETATM   16  C   UNK N   1      32.270  42.768  61.418  0.00  0.00     0.071 A 
HETATM   17  C   UNK N   1      33.399  42.629  60.600  0.00  0.00     0.038 A 
HETATM   18  C   UNK N   1      33.283  42.726  59.209  0.00  0.00     0.017 A 
HETATM   19  C   UNK N   1      32.029  42.947  58.624  0.00  0.00    -0.002 A 
HETATM   20  C   UNK N   1      30.884  43.067  59.438  0.00  0.00     0.092 A 
HETATM   21  C   UNK N   1      31.877  43.057  57.239  0.00  0.00     0.020 A 
HETATM   22  O   UNK N   1      29.688  43.268  58.892  0.00  0.00    -0.275 OA
HETATM   23  C   UNK N   1      31.007  42.983  60.824  0.00  0.00     0.075 A 
HETATM   24  C   UNK N   1      29.511  43.371  57.577  0.00  0.00     0.288 A 
HETATM   25  O   UNK N   1      28.395  43.554  57.130  0.00  0.00    -0.260 OA
HETATM   26  C   UNK N   1      30.606  43.272  56.709  0.00  0.00     0.083 A 
ENDBRANCH  15  16
ENDBRANCH  14  15
ENDBRANCH   1  14
BRANCH   4  27
HETATM   27  C   UNK N   1      36.841  47.521  64.893  0.00  0.00     0.176 C 
BRANCH  27  28
HETATM   28  O   UNK N   1      37.889  48.450  64.891  0.00  0.00    -0.400 OA
HETATM   29  H   UNK N   1      38.656  48.014  65.342  0.00  0.00     0.209 HD
ENDBRANCH  27  28
ENDBRANCH   4  27
BRANCH   5  30
HETATM   30  O   UNK N   1      38.608  46.252  63.055  0.00  0.00    -0.395 OA
HETATM   31  H   UNK N   1      38.746  46.447  64.018  0.00  0.00     0.210 HD
ENDBRANCH   5  30
TORSDOF 6
ENDMDL
MODEL 9
REMARK VINA RESULT:      -6.1     14.209     17.138
REMARK  6 active torsions:
REMARK  status: ('A' for Active; 'I' for Inactive)
REMARK    1  A    between atoms: C_8  and  O_10 
REMARK    2  A    between atoms: O_10  and  C_11 
REMARK    3  A    between atoms: C_11  and  C_12 
REMARK    4  A    between atoms: C_15  and  C_21 
REMARK    5  A    between atoms: C_16  and  O_17 
REMARK    6  A    between atoms: C_21  and  O_22 
ROOT
HETATM    1  C   UNK N   1      48.796  55.322  58.001  0.00  0.00     0.047 C 
HETATM    2  C   UNK N   1      50.126  55.305  57.115  0.00  0.00    -0.030 C 
HETATM    3  C   UNK N   1      49.684  55.556  55.625  0.00  0.00     0.011 C 
HETATM    4  C   UNK N   1      50.728  55.210  54.467  0.00  0.00     0.008 C 
HETATM    5  C   UNK N   1      51.301  53.782  54.750  0.00  0.00     0.128 C 
HETATM    6  C   UNK N   1      51.890  53.667  56.167  0.00  0.00     0.033 C 
HETATM    7  C   UNK N   1      50.791  53.899  57.210  0.00  0.00     0.013 C 
HETATM    8  C   UNK N   1      49.974  55.143  53.107  0.00  0.00     0.020 C 
HETATM    9  C   UNK N   1      49.046  56.961  55.499  0.00  0.00     0.033 C 
HETATM   10  C   UNK N   1      47.990  57.219  56.530  0.00  0.00    -0.023 C 
HETATM   11  C   UNK N   1      47.836  56.475  57.644  0.00  0.00    -0.081 C 
HETATM   12  C   UNK N   1      46.639  56.765  58.528  0.00  0.00     0.043 C 
HETATM   13  C   UNK N   1      51.126  56.379  57.645  0.00  0.00     0.016 C 
ENDROOT
BRANCH   1  14
HETATM   14  C   UNK N   1      49.050  55.312  59.532  0.00  0.00     0.185 C 
BRANCH  14  15
HETATM   15  O   UNK N   1      49.119  54.033  60.044  0.00  0.00    -0.350 OA
BRANCH  15  16
HETATM   16  C   UNK N   1      48.025  53.284  60.337  0.00  0.00     0.071 A 
HETATM   17  C   UNK N   1      46.811  53.936  60.596  0.00  0.00     0.038 A 
HETATM   18  C   UNK N   1      45.672  53.203  60.943  0.00  0.00     0.017 A 
HETATM   19  C   UNK N   1      45.735  51.805  61.019  0.00  0.00    -0.002 A 
HETATM   20  C   UNK N   1      46.946  51.139  60.740  0.00  0.00     0.092 A 
HETATM   21  C   UNK N   1      44.620  51.040  61.371  0.00  0.00     0.020 A 
HETATM   22  O   UNK N   1      47.014  49.812  60.801  0.00  0.00    -0.275 OA
HETATM   23  C   UNK N   1      48.082  51.876  60.407  0.00  0.00     0.075 A 
HETATM   24  C   UNK N   1      45.968  49.057  61.127  0.00  0.00     0.288 A 
HETATM   25  O   UNK N   1      46.084  47.848  61.166  0.00  0.00    -0.260 OA
HETATM   26  C   UNK N   1      44.736  49.652  61.427  0.00  0.00     0.083 A 
ENDBRANCH  15  16
ENDBRANCH  14  15
ENDBRANCH   1  14
BRANCH   4  27
HETATM   27  C   UNK N   1      51.903  56.228  54.268  0.00  0.00     0.176 C 
BRANCH  27  28
HETATM   28  O   UNK N   1      52.174  56.449  52.912  0.00  0.00    -0.400 OA
HETATM   29  H   UNK N   1      51.325  56.756  52.500  0.00  0.00     0.209 HD
ENDBRANCH  27  28
ENDBRANCH   4  27
BRANCH   5  30
HETATM   30  O   UNK N   1      52.278  53.444  53.794  0.00  0.00    -0.395 OA
HETATM   31  H   UNK N   1      52.718  52.611  54.105  0.00  0.00     0.210 HD
ENDBRANCH   5  30
TORSDOF 6
ENDMDL
