MODEL 1
REMARK VINA RESULT:      -6.2      0.000      0.000
REMARK  5 active torsions:
REMARK  status: ('A' for Active; 'I' for Inactive)
REMARK    1  A    between atoms: C_6  and  C_7 
REMARK    2  A    between atoms: C_7  and  O_8 
REMARK    3  A    between atoms: C_13  and  O_14 
REMARK    4  A    between atoms: C_17  and  O_18 
REMARK    5  A    between atoms: O_18  and  C_19 
ROOT
HETATM    1  O   UNK N   1      32.153  51.830  43.615  0.00  0.00    -0.259 OA
HETATM    2  C   UNK N   1      31.618  52.745  43.016  0.00  0.00     0.292 A 
HETATM    3  O   UNK N   1      31.043  52.612  41.805  0.00  0.00    -0.307 OA
HETATM    4  C   UNK N   1      30.507  53.826  41.388  0.00  0.00     0.171 A 
HETATM    5  C   UNK N   1      30.824  54.747  42.540  0.00  0.00    -0.036 A 
HETATM    6  C   UNK N   1      31.486  54.101  43.488  0.00  0.00     0.045 A 
HETATM    7  C   UNK N   1      30.329  56.159  42.534  0.00  0.00     0.038 C 
HETATM    8  C   UNK N   1      28.794  56.080  42.362  0.00  0.00     0.017 C 
HETATM    9  C   UNK N   1      28.344  55.210  41.130  0.00  0.00    -0.007 C 
HETATM   10  C   UNK N   1      26.773  55.076  41.121  0.00  0.00     0.130 C 
HETATM   11  C   UNK N   1      26.263  54.136  39.988  0.00  0.00     0.069 C 
HETATM   12  C   UNK N   1      26.956  52.746  39.958  0.00  0.00     0.163 C 
HETATM   13  C   UNK N   1      28.453  52.926  40.061  0.00  0.00    -0.052 C 
HETATM   14  C   UNK N   1      28.970  53.765  41.232  0.00  0.00     0.061 C 
HETATM   15  C   UNK N   1      29.257  52.366  39.138  0.00  0.00     0.017 C 
HETATM   16  C   UNK N   1      28.808  55.926  39.823  0.00  0.00     0.018 C 
ENDROOT
BRANCH  12  17
HETATM   17  O   UNK N   1      26.582  51.878  40.968  0.00  0.00    -0.312 OA
BRANCH  17  18
HETATM   18  C   UNK N   1      26.374  50.548  40.804  0.00  0.00     0.255 C 
HETATM   19  O   UNK N   1      27.306  49.780  40.618  0.00  0.00    -0.266 OA
HETATM   20  C   UNK N   1      24.984  50.015  40.953  0.00  0.00     0.126 C 
ENDBRANCH  17  18
ENDBRANCH  12  17
BRANCH  10  21
HETATM   21  O   UNK N   1      26.260  54.682  42.373  0.00  0.00    -0.395 OA
HETATM   22  H   UNK N   1      26.559  55.317  43.066  0.00  0.00     0.210 HD
ENDBRANCH  10  21
BRANCH   6  23
HETATM   23  C   UNK N   1      31.985  54.652  44.800  0.00  0.00     0.209 C 
BRANCH  23  24
HETATM   24  O   UNK N   1      31.101  54.368  45.851  0.00  0.00    -0.396 OA
HETATM   25  H   UNK N   1      30.262  54.029  45.446  0.00  0.00     0.209 HD
ENDBRANCH  23  24
ENDBRANCH   6  23
TORSDOF 5
ENDMDL
MODEL 2
REMARK VINA RESULT:      -5.7     15.116     17.749
REMARK  5 active torsions:
REMARK  status: ('A' for Active; 'I' for Inactive)
REMARK    1  A    between atoms: C_6  and  C_7 
REMARK    2  A    between atoms: C_7  and  O_8 
REMARK    3  A    between atoms: C_13  and  O_14 
REMARK    4  A    between atoms: C_17  and  O_18 
REMARK    5  A    between atoms: O_18  and  C_19 
ROOT
HETATM    1  O   UNK N   1      43.604  40.662  46.481  0.00  0.00    -0.259 OA
HETATM    2  C   UNK N   1      42.936  41.662  46.290  0.00  0.00     0.292 A 
HETATM    3  O   UNK N   1      41.883  42.015  47.053  0.00  0.00    -0.307 OA
HETATM    4  C   UNK N   1      41.335  43.210  46.596  0.00  0.00     0.171 A 
HETATM    5  C   UNK N   1      42.222  43.562  45.428  0.00  0.00    -0.036 A 
HETATM    6  C   UNK N   1      43.155  42.638  45.253  0.00  0.00     0.045 A 
HETATM    7  C   UNK N   1      42.026  44.852  44.696  0.00  0.00     0.038 C 
HETATM    8  C   UNK N   1      42.126  45.973  45.758  0.00  0.00     0.017 C 
HETATM    9  C   UNK N   1      41.174  45.754  46.992  0.00  0.00    -0.007 C 
HETATM   10  C   UNK N   1      41.447  46.867  48.076  0.00  0.00     0.130 C 
HETATM   11  C   UNK N   1      40.615  46.650  49.374  0.00  0.00     0.069 C 
HETATM   12  C   UNK N   1      40.739  45.223  49.975  0.00  0.00     0.163 C 
HETATM   13  C   UNK N   1      40.559  44.197  48.880  0.00  0.00    -0.052 C 
HETATM   14  C   UNK N   1      41.447  44.344  47.642  0.00  0.00     0.061 C 
HETATM   15  C   UNK N   1      39.642  43.222  49.023  0.00  0.00     0.017 C 
HETATM   16  C   UNK N   1      39.696  45.865  46.503  0.00  0.00     0.018 C 
ENDROOT
BRANCH  12  17
HETATM   17  O   UNK N   1      41.944  44.946  50.596  0.00  0.00    -0.312 OA
BRANCH  17  18
HETATM   18  C   UNK N   1      42.085  44.664  51.915  0.00  0.00     0.255 C 
HETATM   19  O   UNK N   1      42.547  45.488  52.691  0.00  0.00    -0.266 OA
HETATM   20  C   UNK N   1      41.570  43.358  52.429  0.00  0.00     0.126 C 
ENDBRANCH  17  18
ENDBRANCH  12  17
BRANCH  10  21
HETATM   21  O   UNK N   1      42.819  47.003  48.372  0.00  0.00    -0.395 OA
HETATM   22  H   UNK N   1      43.078  46.335  49.050  0.00  0.00     0.210 HD
ENDBRANCH  10  21
BRANCH   6  23
HETATM   23  C   UNK N   1      44.237  42.613  44.203  0.00  0.00     0.209 C 
BRANCH  23  24
HETATM   24  O   UNK N   1      44.806  41.337  44.077  0.00  0.00    -0.396 OA
HETATM   25  H   UNK N   1      45.370  41.185  44.878  0.00  0.00     0.209 HD
ENDBRANCH  23  24
ENDBRANCH   6  23
TORSDOF 5
ENDMDL
MODEL 3
REMARK VINA RESULT:      -5.3     18.500     20.916
REMARK  5 active torsions:
REMARK  status: ('A' for Active; 'I' for Inactive)
REMARK    1  A    between atoms: C_6  and  C_7 
REMARK    2  A    between atoms: C_7  and  O_8 
REMARK    3  A    between atoms: C_13  and  O_14 
REMARK    4  A    between atoms: C_17  and  O_18 
REMARK    5  A    between atoms: O_18  and  C_19 
ROOT
HETATM    1  O   UNK N   1      29.871  36.965  57.656  0.00  0.00    -0.259 OA
HETATM    2  C   UNK N   1      29.577  38.104  57.345  0.00  0.00     0.292 A 
HETATM    3  O   UNK N   1      29.396  39.099  58.236  0.00  0.00    -0.307 OA
HETATM    4  C   UNK N   1      29.084  40.285  57.578  0.00  0.00     0.171 A 
HETATM    5  C   UNK N   1      29.111  39.881  56.125  0.00  0.00    -0.036 A 
HETATM    6  C   UNK N   1      29.393  38.593  56.002  0.00  0.00     0.045 A 
HETATM    7  C   UNK N   1      28.913  40.907  55.054  0.00  0.00     0.038 C 
HETATM    8  C   UNK N   1      29.985  41.996  55.292  0.00  0.00     0.017 C 
HETATM    9  C   UNK N   1      29.993  42.558  56.763  0.00  0.00    -0.007 C 
HETATM   10  C   UNK N   1      31.203  43.553  56.943  0.00  0.00     0.130 C 
HETATM   11  C   UNK N   1      31.337  44.067  58.407  0.00  0.00     0.069 C 
HETATM   12  C   UNK N   1      31.361  42.939  59.475  0.00  0.00     0.163 C 
HETATM   13  C   UNK N   1      30.238  41.963  59.203  0.00  0.00    -0.052 C 
HETATM   14  C   UNK N   1      30.160  41.375  57.792  0.00  0.00     0.061 C 
HETATM   15  C   UNK N   1      29.364  41.663  60.182  0.00  0.00     0.017 C 
HETATM   16  C   UNK N   1      28.655  43.324  57.006  0.00  0.00     0.018 C 
ENDROOT
BRANCH  12  17
HETATM   17  O   UNK N   1      32.531  42.203  59.531  0.00  0.00    -0.312 OA
BRANCH  17  18
HETATM   18  C   UNK N   1      33.774  42.739  59.617  0.00  0.00     0.255 C 
HETATM   19  O   UNK N   1      34.468  42.890  58.622  0.00  0.00    -0.266 OA
HETATM   20  C   UNK N   1      34.250  43.238  60.944  0.00  0.00     0.126 C 
ENDBRANCH  17  18
ENDBRANCH  12  17
BRANCH  10  21
HETATM   21  O   UNK N   1      32.419  43.009  56.485  0.00  0.00    -0.395 OA
HETATM   22  H   UNK N   1      32.237  42.326  55.797  0.00  0.00     0.210 HD
ENDBRANCH  10  21
BRANCH   6  23
HETATM   23  C   UNK N   1      29.519  37.797  54.727  0.00  0.00     0.209 C 
BRANCH  23  24
HETATM   24  O   UNK N   1      30.670  36.996  54.728  0.00  0.00    -0.396 OA
HETATM   25  H   UNK N   1      31.104  37.105  55.613  0.00  0.00     0.209 HD
ENDBRANCH  23  24
ENDBRANCH   6  23
TORSDOF 5
ENDMDL
MODEL 4
REMARK VINA RESULT:      -5.0     15.913     18.380
REMARK  5 active torsions:
REMARK  status: ('A' for Active; 'I' for Inactive)
REMARK    1  A    between atoms: C_6  and  C_7 
REMARK    2  A    between atoms: C_7  and  O_8 
REMARK    3  A    between atoms: C_13  and  O_14 
REMARK    4  A    between atoms: C_17  and  O_18 
REMARK    5  A    between atoms: O_18  and  C_19 
ROOT
HETATM    1  O   UNK N   1      28.528  43.813  51.279  0.00  0.00    -0.259 OA
HETATM    2  C   UNK N   1      28.493  42.909  52.093  0.00  0.00     0.292 A 
HETATM    3  O   UNK N   1      29.542  42.552  52.860  0.00  0.00    -0.307 OA
HETATM    4  C   UNK N   1      29.190  41.499  53.699  0.00  0.00     0.171 A 
HETATM    5  C   UNK N   1      27.743  41.258  53.349  0.00  0.00    -0.036 A 
HETATM    6  C   UNK N   1      27.347  42.089  52.395  0.00  0.00     0.045 A 
HETATM    7  C   UNK N   1      26.943  40.246  54.106  0.00  0.00     0.038 C 
HETATM    8  C   UNK N   1      27.039  40.644  55.598  0.00  0.00     0.017 C 
HETATM    9  C   UNK N   1      28.517  40.840  56.101  0.00  0.00    -0.007 C 
HETATM   10  C   UNK N   1      28.505  41.377  57.584  0.00  0.00     0.130 C 
HETATM   11  C   UNK N   1      29.935  41.696  58.112  0.00  0.00     0.069 C 
HETATM   12  C   UNK N   1      30.765  42.618  57.177  0.00  0.00     0.163 C 
HETATM   13  C   UNK N   1      30.669  42.112  55.755  0.00  0.00    -0.052 C 
HETATM   14  C   UNK N   1      29.262  41.892  55.193  0.00  0.00     0.061 C 
HETATM   15  C   UNK N   1      31.794  41.869  55.056  0.00  0.00     0.017 C 
HETATM   16  C   UNK N   1      29.240  39.458  56.060  0.00  0.00     0.018 C 
ENDROOT
BRANCH  12  17
HETATM   17  O   UNK N   1      30.378  43.946  57.161  0.00  0.00    -0.312 OA
BRANCH  17  18
HETATM   18  C   UNK N   1      31.207  44.994  57.392  0.00  0.00     0.255 C 
HETATM   19  O   UNK N   1      32.418  44.882  57.263  0.00  0.00    -0.266 OA
HETATM   20  C   UNK N   1      30.609  46.326  57.712  0.00  0.00     0.126 C 
ENDBRANCH  17  18
ENDBRANCH  12  17
BRANCH  10  21
HETATM   21  O   UNK N   1      27.647  42.482  57.748  0.00  0.00    -0.395 OA
HETATM   22  H   UNK N   1      27.652  42.767  58.691  0.00  0.00     0.210 HD
ENDBRANCH  10  21
BRANCH   6  23
HETATM   23  C   UNK N   1      25.980  42.180  51.765  0.00  0.00     0.209 C 
BRANCH  23  24
HETATM   24  O   UNK N   1      26.061  42.440  50.389  0.00  0.00    -0.396 OA
HETATM   25  H   UNK N   1      26.779  41.864  50.022  0.00  0.00     0.209 HD
ENDBRANCH  23  24
ENDBRANCH   6  23
TORSDOF 5
ENDMDL
MODEL 5
REMARK VINA RESULT:      -4.9     18.157     20.816
REMARK  5 active torsions:
REMARK  status: ('A' for Active; 'I' for Inactive)
REMARK    1  A    between atoms: C_6  and  C_7 
REMARK    2  A    between atoms: C_7  and  O_8 
REMARK    3  A    between atoms: C_13  and  O_14 
REMARK    4  A    between atoms: C_17  and  O_18 
REMARK    5  A    between atoms: O_18  and  C_19 
ROOT
HETATM    1  O   UNK N   1      32.909  46.159  63.712  0.00  0.00    -0.259 OA
HETATM    2  C   UNK N   1      32.745  45.259  62.910  0.00  0.00     0.292 A 
HETATM    3  O   UNK N   1      31.555  44.960  62.353  0.00  0.00    -0.307 OA
HETATM    4  C   UNK N   1      31.690  43.894  61.469  0.00  0.00     0.171 A 
HETATM    5  C   UNK N   1      33.162  43.577  61.545  0.00  0.00    -0.036 A 
HETATM    6  C   UNK N   1      33.771  44.381  62.404  0.00  0.00     0.045 A 
HETATM    7  C   UNK N   1      33.754  42.528  60.657  0.00  0.00     0.038 C 
HETATM    8  C   UNK N   1      33.404  42.937  59.208  0.00  0.00     0.017 C 
HETATM    9  C   UNK N   1      31.869  43.212  58.987  0.00  0.00    -0.007 C 
HETATM   10  C   UNK N   1      31.633  43.755  57.525  0.00  0.00     0.130 C 
HETATM   11  C   UNK N   1      30.149  44.150  57.270  0.00  0.00     0.069 C 
HETATM   12  C   UNK N   1      29.557  45.110  58.338  0.00  0.00     0.163 C 
HETATM   13  C   UNK N   1      29.888  44.593  59.719  0.00  0.00    -0.052 C 
HETATM   14  C   UNK N   1      31.361  44.297  60.012  0.00  0.00     0.061 C 
HETATM   15  C   UNK N   1      28.902  44.405  60.616  0.00  0.00     0.017 C 
HETATM   16  C   UNK N   1      31.096  41.869  59.168  0.00  0.00     0.018 C 
ENDROOT
BRANCH  12  17
HETATM   17  O   UNK N   1      30.008  46.416  58.275  0.00  0.00    -0.312 OA
BRANCH  17  18
HETATM   18  C   UNK N   1      29.317  47.445  57.724  0.00  0.00     0.255 C 
HETATM   19  O   UNK N   1      28.097  47.420  57.651  0.00  0.00    -0.266 OA
HETATM   20  C   UNK N   1      30.068  48.664  57.294  0.00  0.00     0.126 C 
ENDBRANCH  17  18
ENDBRANCH  12  17
BRANCH  10  21
HETATM   21  O   UNK N   1      32.503  44.815  57.199  0.00  0.00    -0.395 OA
HETATM   22  H   UNK N   1      33.431  44.483  57.166  0.00  0.00     0.210 HD
ENDBRANCH  10  21
BRANCH   6  23
HETATM   23  C   UNK N   1      35.234  44.398  62.769  0.00  0.00     0.209 C 
BRANCH  23  24
HETATM   24  O   UNK N   1      35.715  45.707  62.917  0.00  0.00    -0.396 OA
HETATM   25  H   UNK N   1      35.588  45.962  63.866  0.00  0.00     0.209 HD
ENDBRANCH  23  24
ENDBRANCH   6  23
TORSDOF 5
ENDMDL
MODEL 6
REMARK VINA RESULT:      -4.9     18.355     20.251
REMARK  5 active torsions:
REMARK  status: ('A' for Active; 'I' for Inactive)
REMARK    1  A    between atoms: C_6  and  C_7 
REMARK    2  A    between atoms: C_7  and  O_8 
REMARK    3  A    between atoms: C_13  and  O_14 
REMARK    4  A    between atoms: C_17  and  O_18 
REMARK    5  A    between atoms: O_18  and  C_19 
ROOT
HETATM    1  O   UNK N   1      33.119  43.701  58.061  0.00  0.00    -0.259 OA
HETATM    2  C   UNK N   1      32.174  43.014  58.404  0.00  0.00     0.292 A 
HETATM    3  O   UNK N   1      30.949  43.097  57.850  0.00  0.00    -0.307 OA
HETATM    4  C   UNK N   1      30.089  42.177  58.442  0.00  0.00     0.171 A 
HETATM    5  C   UNK N   1      30.974  41.488  59.450  0.00  0.00    -0.036 A 
HETATM    6  C   UNK N   1      32.197  41.996  59.424  0.00  0.00     0.045 A 
HETATM    7  C   UNK N   1      30.449  40.340  60.254  0.00  0.00     0.038 C 
HETATM    8  C   UNK N   1      29.940  39.293  59.235  0.00  0.00     0.017 C 
HETATM    9  C   UNK N   1      28.934  39.884  58.178  0.00  0.00    -0.007 C 
HETATM   10  C   UNK N   1      28.583  38.782  57.107  0.00  0.00     0.130 C 
HETATM   11  C   UNK N   1      27.674  39.328  55.966  0.00  0.00     0.069 C 
HETATM   12  C   UNK N   1      28.208  40.625  55.298  0.00  0.00     0.163 C 
HETATM   13  C   UNK N   1      28.615  41.613  56.368  0.00  0.00    -0.052 C 
HETATM   14  C   UNK N   1      29.589  41.112  57.437  0.00  0.00     0.061 C 
HETATM   15  C   UNK N   1      28.111  42.862  56.349  0.00  0.00     0.017 C 
HETATM   16  C   UNK N   1      27.631  40.313  58.922  0.00  0.00     0.018 C 
ENDROOT
BRANCH  12  17
HETATM   17  O   UNK N   1      29.300  40.455  54.467  0.00  0.00    -0.312 OA
BRANCH  17  18
HETATM   18  C   UNK N   1      29.961  41.464  53.847  0.00  0.00     0.255 C 
HETATM   19  O   UNK N   1      31.131  41.706  54.105  0.00  0.00    -0.266 OA
HETATM   20  C   UNK N   1      29.262  42.219  52.762  0.00  0.00     0.126 C 
ENDBRANCH  17  18
ENDBRANCH  12  17
BRANCH  10  21
HETATM   21  O   UNK N   1      29.732  38.157  56.582  0.00  0.00    -0.395 OA
HETATM   22  H   UNK N   1      30.513  38.748  56.703  0.00  0.00     0.210 HD
ENDBRANCH  10  21
BRANCH   6  23
HETATM   23  C   UNK N   1      33.379  41.590  60.268  0.00  0.00     0.209 C 
BRANCH  23  24
HETATM   24  O   UNK N   1      34.536  41.424  59.492  0.00  0.00    -0.396 OA
HETATM   25  H   UNK N   1      34.297  41.645  58.556  0.00  0.00     0.209 HD
ENDBRANCH  23  24
ENDBRANCH   6  23
TORSDOF 5
ENDMDL
MODEL 7
REMARK VINA RESULT:      -4.9     16.241     18.794
REMARK  5 active torsions:
REMARK  status: ('A' for Active; 'I' for Inactive)
REMARK    1  A    between atoms: C_6  and  C_7 
REMARK    2  A    between atoms: C_7  and  O_8 
REMARK    3  A    between atoms: C_13  and  O_14 
REMARK    4  A    between atoms: C_17  and  O_18 
REMARK    5  A    between atoms: O_18  and  C_19 
ROOT
HETATM    1  O   UNK N   1      32.594  42.970  56.047  0.00  0.00    -0.259 OA
HETATM    2  C   UNK N   1      31.525  43.060  56.623  0.00  0.00     0.292 A 
HETATM    3  O   UNK N   1      31.361  43.692  57.802  0.00  0.00    -0.307 OA
HETATM    4  C   UNK N   1      30.028  43.638  58.197  0.00  0.00     0.171 A 
HETATM    5  C   UNK N   1      29.373  42.881  57.069  0.00  0.00    -0.036 A 
HETATM    6  C   UNK N   1      30.266  42.538  56.153  0.00  0.00     0.045 A 
HETATM    7  C   UNK N   1      27.890  42.680  57.058  0.00  0.00     0.038 C 
HETATM    8  C   UNK N   1      27.260  44.090  57.149  0.00  0.00     0.017 C 
HETATM    9  C   UNK N   1      27.809  44.947  58.350  0.00  0.00    -0.007 C 
HETATM   10  C   UNK N   1      27.216  46.406  58.276  0.00  0.00     0.130 C 
HETATM   11  C   UNK N   1      27.800  47.342  59.374  0.00  0.00     0.069 C 
HETATM   12  C   UNK N   1      29.353  47.359  59.431  0.00  0.00     0.163 C 
HETATM   13  C   UNK N   1      29.874  45.940  59.408  0.00  0.00    -0.052 C 
HETATM   14  C   UNK N   1      29.382  45.041  58.272  0.00  0.00     0.061 C 
HETATM   15  C   UNK N   1      30.721  45.525  60.369  0.00  0.00     0.017 C 
HETATM   16  C   UNK N   1      27.358  44.274  59.684  0.00  0.00     0.018 C 
ENDROOT
BRANCH  12  17
HETATM   17  O   UNK N   1      29.975  48.036  58.397  0.00  0.00    -0.312 OA
BRANCH  17  18
HETATM   18  C   UNK N   1      29.811  49.355  58.131  0.00  0.00     0.255 C 
HETATM   19  O   UNK N   1      29.645  50.166  59.030  0.00  0.00    -0.266 OA
HETATM   20  C   UNK N   1      29.937  49.822  56.716  0.00  0.00     0.126 C 
ENDBRANCH  17  18
ENDBRANCH  12  17
BRANCH  10  21
HETATM   21  O   UNK N   1      27.356  46.978  56.995  0.00  0.00    -0.395 OA
HETATM   22  H   UNK N   1      26.707  46.567  56.377  0.00  0.00     0.210 HD
ENDBRANCH  10  21
BRANCH   6  23
HETATM   23  C   UNK N   1      30.025  41.779  54.873  0.00  0.00     0.209 C 
BRANCH  23  24
HETATM   24  O   UNK N   1      31.227  41.477  54.216  0.00  0.00    -0.396 OA
HETATM   25  H   UNK N   1      31.802  42.283  54.268  0.00  0.00     0.209 HD
ENDBRANCH  23  24
ENDBRANCH   6  23
TORSDOF 5
ENDMDL
MODEL 8
REMARK VINA RESULT:      -4.8     12.360     15.727
REMARK  5 active torsions:
REMARK  status: ('A' for Active; 'I' for Inactive)
REMARK    1  A    between atoms: C_6  and  C_7 
REMARK    2  A    between atoms: C_7  and  O_8 
REMARK    3  A    between atoms: C_13  and  O_14 
REMARK    4  A    between atoms: C_17  and  O_18 
REMARK    5  A    between atoms: O_18  and  C_19 
ROOT
HETATM    1  O   UNK N   1      43.415  43.177  44.154  0.00  0.00    -0.259 OA
HETATM    2  C   UNK N   1      42.986  43.598  45.213  0.00  0.00     0.292 A 
HETATM    3  O   UNK N   1      42.953  44.905  45.540  0.00  0.00    -0.307 OA
HETATM    4  C   UNK N   1      42.396  45.072  46.805  0.00  0.00     0.171 A 
HETATM    5  C   UNK N   1      42.070  43.659  47.218  0.00  0.00    -0.036 A 
HETATM    6  C   UNK N   1      42.431  42.799  46.277  0.00  0.00     0.045 A 
HETATM    7  C   UNK N   1      41.357  43.397  48.508  0.00  0.00     0.038 C 
HETATM    8  C   UNK N   1      40.048  44.219  48.455  0.00  0.00     0.017 C 
HETATM    9  C   UNK N   1      40.276  45.739  48.114  0.00  0.00    -0.007 C 
HETATM   10  C   UNK N   1      38.882  46.459  47.947  0.00  0.00     0.130 C 
HETATM   11  C   UNK N   1      39.029  47.944  47.502  0.00  0.00     0.069 C 
HETATM   12  C   UNK N   1      39.931  48.144  46.252  0.00  0.00     0.163 C 
HETATM   13  C   UNK N   1      41.213  47.362  46.424  0.00  0.00    -0.052 C 
HETATM   14  C   UNK N   1      41.076  45.876  46.762  0.00  0.00     0.061 C 
HETATM   15  C   UNK N   1      42.398  47.986  46.289  0.00  0.00     0.017 C 
HETATM   16  C   UNK N   1      41.057  46.399  49.293  0.00  0.00     0.018 C 
ENDROOT
BRANCH  12  17
HETATM   17  O   UNK N   1      39.372  47.747  45.051  0.00  0.00    -0.312 OA
BRANCH  17  18
HETATM   18  C   UNK N   1      38.904  48.595  44.101  0.00  0.00     0.255 C 
HETATM   19  O   UNK N   1      37.905  48.326  43.451  0.00  0.00    -0.266 OA
HETATM   20  C   UNK N   1      39.575  49.920  43.928  0.00  0.00     0.126 C 
ENDBRANCH  17  18
ENDBRANCH  12  17
BRANCH  10  21
HETATM   21  O   UNK N   1      38.016  45.756  47.085  0.00  0.00    -0.395 OA
HETATM   22  H   UNK N   1      37.261  46.337  46.830  0.00  0.00     0.210 HD
ENDBRANCH  10  21
BRANCH   6  23
HETATM   23  C   UNK N   1      42.278  41.299  46.294  0.00  0.00     0.209 C 
BRANCH  23  24
HETATM   24  O   UNK N   1      43.167  40.678  45.405  0.00  0.00    -0.396 OA
HETATM   25  H   UNK N   1      43.966  40.409  45.927  0.00  0.00     0.209 HD
ENDBRANCH  23  24
ENDBRANCH   6  23
TORSDOF 5
ENDMDL
MODEL 9
REMARK VINA RESULT:      -4.8      2.648      4.766
REMARK  5 active torsions:
REMARK  status: ('A' for Active; 'I' for Inactive)
REMARK    1  A    between atoms: C_6  and  C_7 
REMARK    2  A    between atoms: C_7  and  O_8 
REMARK    3  A    between atoms: C_13  and  O_14 
REMARK    4  A    between atoms: C_17  and  O_18 
REMARK    5  A    between atoms: O_18  and  C_19 
ROOT
HETATM    1  O   UNK N   1      27.577  50.703  40.529  0.00  0.00    -0.259 OA
HETATM    2  C   UNK N   1      28.159  51.672  40.078  0.00  0.00     0.292 A 
HETATM    3  O   UNK N   1      27.533  52.759  39.587  0.00  0.00    -0.307 OA
HETATM    4  C   UNK N   1      28.464  53.701  39.161  0.00  0.00     0.171 A 
HETATM    5  C   UNK N   1      29.782  53.038  39.475  0.00  0.00    -0.036 A 
HETATM    6  C   UNK N   1      29.589  51.840  40.006  0.00  0.00     0.045 A 
HETATM    7  C   UNK N   1      31.067  53.772  39.250  0.00  0.00     0.038 C 
HETATM    8  C   UNK N   1      30.963  55.088  40.055  0.00  0.00     0.017 C 
HETATM    9  C   UNK N   1      29.659  55.913  39.743  0.00  0.00    -0.007 C 
HETATM   10  C   UNK N   1      29.575  57.158  40.708  0.00  0.00     0.130 C 
HETATM   11  C   UNK N   1      28.254  57.962  40.528  0.00  0.00     0.069 C 
HETATM   12  C   UNK N   1      26.968  57.093  40.603  0.00  0.00     0.163 C 
HETATM   13  C   UNK N   1      27.136  55.869  39.733  0.00  0.00    -0.052 C 
HETATM   14  C   UNK N   1      28.383  55.015  39.973  0.00  0.00     0.061 C 
HETATM   15  C   UNK N   1      26.212  55.586  38.795  0.00  0.00     0.017 C 
HETATM   16  C   UNK N   1      29.731  56.410  38.266  0.00  0.00     0.018 C 
ENDROOT
BRANCH  12  17
HETATM   17  O   UNK N   1      26.629  56.648  41.868  0.00  0.00    -0.312 OA
BRANCH  17  18
HETATM   18  C   UNK N   1      25.444  56.893  42.479  0.00  0.00     0.255 C 
HETATM   19  O   UNK N   1      25.290  56.675  43.672  0.00  0.00    -0.266 OA
HETATM   20  C   UNK N   1      24.348  57.534  41.689  0.00  0.00     0.126 C 
ENDBRANCH  17  18
ENDBRANCH  12  17
BRANCH  10  21
HETATM   21  O   UNK N   1      29.773  56.805  42.058  0.00  0.00    -0.395 OA
HETATM   22  H   UNK N   1      28.962  57.018  42.577  0.00  0.00     0.210 HD
ENDBRANCH  10  21
BRANCH   6  23
HETATM   23  C   UNK N   1      30.638  50.857  40.463  0.00  0.00     0.209 C 
BRANCH  23  24
HETATM   24  O   UNK N   1      30.089  49.588  40.700  0.00  0.00    -0.396 OA
HETATM   25  H   UNK N   1      30.821  48.927  40.596  0.00  0.00     0.209 HD
ENDBRANCH  23  24
ENDBRANCH   6  23
TORSDOF 5
ENDMDL
