MODEL 1
REMARK VINA RESULT:      -6.4      0.000      0.000
REMARK  8 active torsions:
REMARK  status: ('A' for Active; 'I' for Inactive)
REMARK    1  A    between atoms: C_6  and  C_7 
REMARK    2  A    between atoms: C_7  and  O_8 
REMARK    3  A    between atoms: O_8  and  C_9 
REMARK    4  A    between atoms: C_11  and  C_21 
REMARK    5  A    between atoms: C_12  and  O_13 
REMARK    6  A    between atoms: C_15  and  O_16 
REMARK    7  A    between atoms: C_18  and  O_19 
REMARK    8  A    between atoms: C_21  and  O_22 
ROOT
HETATM    1  O   UNK N   1      34.719  55.339  43.809  0.00  0.00    -0.265 OA
HETATM    2  C   UNK N   1      33.686  54.722  44.028  0.00  0.00     0.264 C 
HETATM    3  O   UNK N   1      33.511  53.505  43.447  0.00  0.00    -0.300 OA
HETATM    4  C   UNK N   1      32.479  52.613  43.725  0.00  0.00     0.125 A 
HETATM    5  C   UNK N   1      31.636  52.399  42.477  0.00  0.00     0.036 A 
HETATM    6  C   UNK N   1      30.929  53.364  41.827  0.00  0.00    -0.043 C 
HETATM    7  C   UNK N   1      30.929  54.798  42.322  0.00  0.00     0.037 C 
HETATM    8  C   UNK N   1      30.387  54.948  43.753  0.00  0.00     0.010 C 
HETATM    9  C   UNK N   1      31.315  54.516  44.922  0.00  0.00     0.002 C 
HETATM   10  C   UNK N   1      32.650  55.319  44.960  0.00  0.00     0.085 C 
HETATM   11  C   UNK N   1      33.257  55.384  46.372  0.00  0.00     0.021 C 
HETATM   12  C   UNK N   1      31.622  53.020  44.945  0.00  0.00     0.054 C 
HETATM   13  C   UNK N   1      31.744  50.986  42.104  0.00  0.00     0.182 A 
HETATM   14  O   UNK N   1      31.202  50.433  41.162  0.00  0.00    -0.288 OA
HETATM   15  C   UNK N   1      32.634  50.331  43.026  0.00  0.00     0.061 A 
HETATM   16  C   UNK N   1      33.058  51.212  43.932  0.00  0.00    -0.040 A 
HETATM   17  C   UNK N   1      34.022  50.857  45.031  0.00  0.00     0.047 C 
ENDROOT
BRANCH   6  18
HETATM   18  C   UNK N   1      30.119  53.048  40.582  0.00  0.00     0.206 C 
BRANCH  18  19
HETATM   19  O   UNK N   1      28.766  52.899  40.951  0.00  0.00    -0.354 OA
BRANCH  19  20
HETATM   20  C   UNK N   1      27.897  53.686  40.155  0.00  0.00     0.291 C 
HETATM   21  O   UNK N   1      28.527  54.887  39.717  0.00  0.00    -0.348 OA
HETATM   22  C   UNK N   1      27.670  55.599  38.833  0.00  0.00     0.179 C 
HETATM   23  C   UNK N   1      26.422  56.097  39.598  0.00  0.00     0.180 C 
HETATM   24  C   UNK N   1      25.694  54.882  40.198  0.00  0.00     0.183 C 
HETATM   25  C   UNK N   1      26.679  54.050  41.028  0.00  0.00     0.204 C 
BRANCH  22  26
HETATM   26  C   UNK N   1      28.447  56.777  38.224  0.00  0.00     0.198 C 
BRANCH  26  27
HETATM   27  O   UNK N   1      28.299  57.925  39.015  0.00  0.00    -0.398 OA
HETATM   28  H   UNK N   1      28.699  58.677  38.506  0.00  0.00     0.209 HD
ENDBRANCH  26  27
ENDBRANCH  22  26
BRANCH  23  29
HETATM   29  O   UNK N   1      25.566  56.784  38.720  0.00  0.00    -0.390 OA
HETATM   30  H   UNK N   1      26.134  57.179  38.009  0.00  0.00     0.210 HD
ENDBRANCH  23  29
BRANCH  24  31
HETATM   31  O   UNK N   1      24.629  55.296  41.015  0.00  0.00    -0.390 OA
HETATM   32  H   UNK N   1      23.796  55.177  40.489  0.00  0.00     0.210 HD
ENDBRANCH  24  31
BRANCH  25  33
HETATM   33  O   UNK N   1      26.035  52.890  41.487  0.00  0.00    -0.388 OA
HETATM   34  H   UNK N   1      25.059  53.047  41.400  0.00  0.00     0.210 HD
ENDBRANCH  25  33
ENDBRANCH  19  20
ENDBRANCH  18  19
ENDBRANCH   6  18
TORSDOF 8
ENDMDL
MODEL 2
REMARK VINA RESULT:      -5.8      1.862      2.663
REMARK  8 active torsions:
REMARK  status: ('A' for Active; 'I' for Inactive)
REMARK    1  A    between atoms: C_6  and  C_7 
REMARK    2  A    between atoms: C_7  and  O_8 
REMARK    3  A    between atoms: O_8  and  C_9 
REMARK    4  A    between atoms: C_11  and  C_21 
REMARK    5  A    between atoms: C_12  and  O_13 
REMARK    6  A    between atoms: C_15  and  O_16 
REMARK    7  A    between atoms: C_18  and  O_19 
REMARK    8  A    between atoms: C_21  and  O_22 
ROOT
HETATM    1  O   UNK N   1      34.705  55.355  43.701  0.00  0.00    -0.265 OA
HETATM    2  C   UNK N   1      33.686  54.731  43.963  0.00  0.00     0.264 C 
HETATM    3  O   UNK N   1      33.480  53.526  43.366  0.00  0.00    -0.300 OA
HETATM    4  C   UNK N   1      32.466  52.625  43.681  0.00  0.00     0.125 A 
HETATM    5  C   UNK N   1      31.554  52.438  42.480  0.00  0.00     0.036 A 
HETATM    6  C   UNK N   1      30.810  53.416  41.892  0.00  0.00    -0.043 C 
HETATM    7  C   UNK N   1      30.837  54.838  42.419  0.00  0.00     0.037 C 
HETATM    8  C   UNK N   1      30.377  54.954  43.882  0.00  0.00     0.010 C 
HETATM    9  C   UNK N   1      31.370  54.498  44.985  0.00  0.00     0.002 C 
HETATM   10  C   UNK N   1      32.704  55.304  44.966  0.00  0.00     0.085 C 
HETATM   11  C   UNK N   1      33.391  55.338  46.342  0.00  0.00     0.021 C 
HETATM   12  C   UNK N   1      31.679  53.003  44.958  0.00  0.00     0.054 C 
HETATM   13  C   UNK N   1      31.642  51.034  42.069  0.00  0.00     0.182 A 
HETATM   14  O   UNK N   1      31.048  50.501  41.147  0.00  0.00    -0.288 OA
HETATM   15  C   UNK N   1      32.584  50.360  42.924  0.00  0.00     0.061 A 
HETATM   16  C   UNK N   1      33.057  51.222  43.823  0.00  0.00    -0.040 A 
HETATM   17  C   UNK N   1      34.083  50.844  44.858  0.00  0.00     0.047 C 
ENDROOT
BRANCH   6  18
HETATM   18  C   UNK N   1      29.931  53.125  40.689  0.00  0.00     0.206 C 
BRANCH  18  19
HETATM   19  O   UNK N   1      28.619  52.875  41.140  0.00  0.00    -0.354 OA
BRANCH  19  20
HETATM   20  C   UNK N   1      27.752  52.475  40.093  0.00  0.00     0.291 C 
HETATM   21  O   UNK N   1      26.609  53.323  40.002  0.00  0.00    -0.348 OA
HETATM   22  C   UNK N   1      25.818  52.965  38.876  0.00  0.00     0.179 C 
HETATM   23  C   UNK N   1      25.215  51.556  39.085  0.00  0.00     0.180 C 
HETATM   24  C   UNK N   1      26.363  50.552  39.283  0.00  0.00     0.183 C 
HETATM   25  C   UNK N   1      27.285  51.039  40.406  0.00  0.00     0.204 C 
BRANCH  22  26
HETATM   26  C   UNK N   1      24.710  54.014  38.689  0.00  0.00     0.198 C 
BRANCH  26  27
HETATM   27  O   UNK N   1      24.291  54.053  37.351  0.00  0.00    -0.398 OA
HETATM   28  H   UNK N   1      23.915  54.958  37.196  0.00  0.00     0.209 HD
ENDBRANCH  26  27
ENDBRANCH  22  26
BRANCH  23  29
HETATM   29  O   UNK N   1      24.447  51.194  37.964  0.00  0.00    -0.390 OA
HETATM   30  H   UNK N   1      23.747  51.888  37.854  0.00  0.00     0.210 HD
ENDBRANCH  23  29
BRANCH  24  31
HETATM   31  O   UNK N   1      25.859  49.282  39.610  0.00  0.00    -0.390 OA
HETATM   32  H   UNK N   1      25.848  49.221  40.601  0.00  0.00     0.210 HD
ENDBRANCH  24  31
BRANCH  25  33
HETATM   33  O   UNK N   1      28.386  50.174  40.512  0.00  0.00    -0.388 OA
HETATM   34  H   UNK N   1      29.024  50.429  39.796  0.00  0.00     0.210 HD
ENDBRANCH  25  33
ENDBRANCH  19  20
ENDBRANCH  18  19
ENDBRANCH   6  18
TORSDOF 8
ENDMDL
MODEL 3
REMARK VINA RESULT:      -5.8      1.410      2.316
REMARK  8 active torsions:
REMARK  status: ('A' for Active; 'I' for Inactive)
REMARK    1  A    between atoms: C_6  and  C_7 
REMARK    2  A    between atoms: C_7  and  O_8 
REMARK    3  A    between atoms: O_8  and  C_9 
REMARK    4  A    between atoms: C_11  and  C_21 
REMARK    5  A    between atoms: C_12  and  O_13 
REMARK    6  A    between atoms: C_15  and  O_16 
REMARK    7  A    between atoms: C_18  and  O_19 
REMARK    8  A    between atoms: C_21  and  O_22 
ROOT
HETATM    1  O   UNK N   1      34.699  55.382  43.805  0.00  0.00    -0.265 OA
HETATM    2  C   UNK N   1      33.690  54.736  44.049  0.00  0.00     0.264 C 
HETATM    3  O   UNK N   1      33.547  53.503  43.495  0.00  0.00    -0.300 OA
HETATM    4  C   UNK N   1      32.549  52.583  43.804  0.00  0.00     0.125 A 
HETATM    5  C   UNK N   1      31.697  52.317  42.572  0.00  0.00     0.036 A 
HETATM    6  C   UNK N   1      30.950  53.246  41.913  0.00  0.00    -0.043 C 
HETATM    7  C   UNK N   1      30.909  54.688  42.380  0.00  0.00     0.037 C 
HETATM    8  C   UNK N   1      30.382  54.849  43.816  0.00  0.00     0.010 C 
HETATM    9  C   UNK N   1      31.339  54.470  44.980  0.00  0.00     0.002 C 
HETATM   10  C   UNK N   1      32.647  55.317  44.984  0.00  0.00     0.085 C 
HETATM   11  C   UNK N   1      33.271  55.430  46.386  0.00  0.00     0.021 C 
HETATM   12  C   UNK N   1      31.695  52.986  45.028  0.00  0.00     0.054 C 
HETATM   13  C   UNK N   1      31.847  50.901  42.225  0.00  0.00     0.182 A 
HETATM   14  O   UNK N   1      31.310  50.313  41.302  0.00  0.00    -0.288 OA
HETATM   15  C   UNK N   1      32.769  50.294  43.147  0.00  0.00     0.061 A 
HETATM   16  C   UNK N   1      33.176  51.206  44.030  0.00  0.00    -0.040 A 
HETATM   17  C   UNK N   1      34.166  50.904  45.122  0.00  0.00     0.047 C 
ENDROOT
BRANCH   6  18
HETATM   18  C   UNK N   1      30.135  52.878  40.686  0.00  0.00     0.206 C 
BRANCH  18  19
HETATM   19  O   UNK N   1      30.292  53.894  39.721  0.00  0.00    -0.354 OA
BRANCH  19  20
HETATM   20  C   UNK N   1      29.054  54.337  39.193  0.00  0.00     0.291 C 
HETATM   21  O   UNK N   1      28.008  54.250  40.158  0.00  0.00    -0.348 OA
HETATM   22  C   UNK N   1      26.807  54.804  39.635  0.00  0.00     0.179 C 
HETATM   23  C   UNK N   1      26.297  53.938  38.461  0.00  0.00     0.180 C 
HETATM   24  C   UNK N   1      27.387  53.884  37.376  0.00  0.00     0.183 C 
HETATM   25  C   UNK N   1      28.710  53.424  37.999  0.00  0.00     0.204 C 
BRANCH  22  26
HETATM   26  C   UNK N   1      25.761  54.879  40.758  0.00  0.00     0.198 C 
BRANCH  26  27
HETATM   27  O   UNK N   1      26.008  53.897  41.727  0.00  0.00    -0.398 OA
HETATM   28  H   UNK N   1      25.690  53.036  41.349  0.00  0.00     0.209 HD
ENDBRANCH  26  27
ENDBRANCH  22  26
BRANCH  23  29
HETATM   29  O   UNK N   1      25.120  54.496  37.932  0.00  0.00    -0.390 OA
HETATM   30  H   UNK N   1      24.377  54.236  38.536  0.00  0.00     0.210 HD
ENDBRANCH  23  29
BRANCH  24  31
HETATM   31  O   UNK N   1      27.021  52.998  36.350  0.00  0.00    -0.390 OA
HETATM   32  H   UNK N   1      27.718  53.064  35.647  0.00  0.00     0.210 HD
ENDBRANCH  24  31
BRANCH  25  33
HETATM   33  O   UNK N   1      29.723  53.476  37.028  0.00  0.00    -0.388 OA
HETATM   34  H   UNK N   1      30.371  54.167  37.324  0.00  0.00     0.210 HD
ENDBRANCH  25  33
ENDBRANCH  19  20
ENDBRANCH  18  19
ENDBRANCH   6  18
TORSDOF 8
ENDMDL
MODEL 4
REMARK VINA RESULT:      -5.5     15.439     18.212
REMARK  8 active torsions:
REMARK  status: ('A' for Active; 'I' for Inactive)
REMARK    1  A    between atoms: C_6  and  C_7 
REMARK    2  A    between atoms: C_7  and  O_8 
REMARK    3  A    between atoms: O_8  and  C_9 
REMARK    4  A    between atoms: C_11  and  C_21 
REMARK    5  A    between atoms: C_12  and  O_13 
REMARK    6  A    between atoms: C_15  and  O_16 
REMARK    7  A    between atoms: C_18  and  O_19 
REMARK    8  A    between atoms: C_21  and  O_22 
ROOT
HETATM    1  O   UNK N   1      31.745  41.711  60.841  0.00  0.00    -0.265 OA
HETATM    2  C   UNK N   1      31.617  42.515  59.929  0.00  0.00     0.264 C 
HETATM    3  O   UNK N   1      30.495  43.282  59.880  0.00  0.00    -0.300 OA
HETATM    4  C   UNK N   1      30.275  44.349  59.013  0.00  0.00     0.125 A 
HETATM    5  C   UNK N   1      29.095  44.039  58.106  0.00  0.00     0.036 A 
HETATM    6  C   UNK N   1      29.031  43.011  57.216  0.00  0.00    -0.043 C 
HETATM    7  C   UNK N   1      30.191  42.047  57.054  0.00  0.00     0.037 C 
HETATM    8  C   UNK N   1      31.496  42.733  56.620  0.00  0.00     0.010 C 
HETATM    9  C   UNK N   1      32.279  43.535  57.696  0.00  0.00     0.002 C 
HETATM   10  C   UNK N   1      32.723  42.652  58.901  0.00  0.00     0.085 C 
HETATM   11  C   UNK N   1      33.968  43.210  59.611  0.00  0.00     0.021 C 
HETATM   12  C   UNK N   1      31.533  44.763  58.213  0.00  0.00     0.054 C 
HETATM   13  C   UNK N   1      28.050  45.030  58.382  0.00  0.00     0.182 A 
HETATM   14  O   UNK N   1      26.959  45.112  57.845  0.00  0.00    -0.288 OA
HETATM   15  C   UNK N   1      28.506  45.903  59.431  0.00  0.00     0.061 A 
HETATM   16  C   UNK N   1      29.736  45.543  59.801  0.00  0.00    -0.040 A 
HETATM   17  C   UNK N   1      30.498  46.240  60.896  0.00  0.00     0.047 C 
ENDROOT
BRANCH   6  18
HETATM   18  C   UNK N   1      27.800  42.785  56.356  0.00  0.00     0.206 C 
BRANCH  18  19
HETATM   19  O   UNK N   1      28.144  41.920  55.296  0.00  0.00    -0.354 OA
BRANCH  19  20
HETATM   20  C   UNK N   1      27.913  42.502  54.025  0.00  0.00     0.291 C 
HETATM   21  O   UNK N   1      26.574  42.290  53.584  0.00  0.00    -0.348 OA
HETATM   22  C   UNK N   1      26.343  42.977  52.361  0.00  0.00     0.179 C 
HETATM   23  C   UNK N   1      27.203  42.354  51.237  0.00  0.00     0.180 C 
HETATM   24  C   UNK N   1      28.684  42.447  51.640  0.00  0.00     0.183 C 
HETATM   25  C   UNK N   1      28.879  41.829  53.030  0.00  0.00     0.204 C 
BRANCH  22  26
HETATM   26  C   UNK N   1      24.847  42.897  52.016  0.00  0.00     0.198 C 
BRANCH  26  27
HETATM   27  O   UNK N   1      24.483  43.945  51.159  0.00  0.00    -0.398 OA
HETATM   28  H   UNK N   1      24.996  44.743  51.449  0.00  0.00     0.209 HD
ENDBRANCH  26  27
ENDBRANCH  22  26
BRANCH  23  29
HETATM   29  O   UNK N   1      26.989  43.045  50.032  0.00  0.00    -0.390 OA
HETATM   30  H   UNK N   1      27.693  42.751  49.398  0.00  0.00     0.210 HD
ENDBRANCH  23  29
BRANCH  24  31
HETATM   31  O   UNK N   1      29.494  41.772  50.711  0.00  0.00    -0.390 OA
HETATM   32  H   UNK N   1      28.964  41.007  50.366  0.00  0.00     0.210 HD
ENDBRANCH  24  31
BRANCH  25  33
HETATM   33  O   UNK N   1      30.212  42.009  53.435  0.00  0.00    -0.388 OA
HETATM   34  H   UNK N   1      30.752  41.321  52.966  0.00  0.00     0.210 HD
ENDBRANCH  25  33
ENDBRANCH  19  20
ENDBRANCH  18  19
ENDBRANCH   6  18
TORSDOF 8
ENDMDL
MODEL 5
REMARK VINA RESULT:      -5.5     16.854     19.760
REMARK  8 active torsions:
REMARK  status: ('A' for Active; 'I' for Inactive)
REMARK    1  A    between atoms: C_6  and  C_7 
REMARK    2  A    between atoms: C_7  and  O_8 
REMARK    3  A    between atoms: O_8  and  C_9 
REMARK    4  A    between atoms: C_11  and  C_21 
REMARK    5  A    between atoms: C_12  and  O_13 
REMARK    6  A    between atoms: C_15  and  O_16 
REMARK    7  A    between atoms: C_18  and  O_19 
REMARK    8  A    between atoms: C_21  and  O_22 
ROOT
HETATM    1  O   UNK N   1      28.370  50.140  60.540  0.00  0.00    -0.265 OA
HETATM    2  C   UNK N   1      28.397  49.584  59.451  0.00  0.00     0.264 C 
HETATM    3  O   UNK N   1      27.459  48.640  59.170  0.00  0.00    -0.300 OA
HETATM    4  C   UNK N   1      27.252  48.043  57.929  0.00  0.00     0.125 A 
HETATM    5  C   UNK N   1      27.520  46.549  58.027  0.00  0.00     0.036 A 
HETATM    6  C   UNK N   1      28.714  45.981  58.353  0.00  0.00    -0.043 C 
HETATM    7  C   UNK N   1      29.928  46.837  58.659  0.00  0.00     0.037 C 
HETATM    8  C   UNK N   1      30.342  47.746  57.490  0.00  0.00     0.010 C 
HETATM    9  C   UNK N   1      29.483  49.012  57.224  0.00  0.00     0.002 C 
HETATM   10  C   UNK N   1      29.453  49.986  58.440  0.00  0.00     0.085 C 
HETATM   11  C   UNK N   1      29.184  51.442  58.021  0.00  0.00     0.021 C 
HETATM   12  C   UNK N   1      28.053  48.705  56.784  0.00  0.00     0.054 C 
HETATM   13  C   UNK N   1      26.266  45.852  57.729  0.00  0.00     0.182 A 
HETATM   14  O   UNK N   1      26.087  44.647  57.700  0.00  0.00    -0.288 OA
HETATM   15  C   UNK N   1      25.238  46.831  57.492  0.00  0.00     0.061 A 
HETATM   16  C   UNK N   1      25.758  48.053  57.602  0.00  0.00    -0.040 A 
HETATM   17  C   UNK N   1      24.944  49.308  57.435  0.00  0.00     0.047 C 
ENDROOT
BRANCH   6  18
HETATM   18  C   UNK N   1      28.877  44.473  58.428  0.00  0.00     0.206 C 
BRANCH  18  19
HETATM   19  O   UNK N   1      29.765  44.065  57.411  0.00  0.00    -0.354 OA
BRANCH  19  20
HETATM   20  C   UNK N   1      30.714  43.117  57.867  0.00  0.00     0.291 C 
HETATM   21  O   UNK N   1      30.336  42.555  59.122  0.00  0.00    -0.348 OA
HETATM   22  C   UNK N   1      31.248  41.531  59.498  0.00  0.00     0.179 C 
HETATM   23  C   UNK N   1      32.641  42.142  59.773  0.00  0.00     0.180 C 
HETATM   24  C   UNK N   1      33.125  42.859  58.502  0.00  0.00     0.183 C 
HETATM   25  C   UNK N   1      32.057  43.855  58.034  0.00  0.00     0.204 C 
BRANCH  22  26
HETATM   26  C   UNK N   1      30.707  40.813  60.745  0.00  0.00     0.198 C 
BRANCH  26  27
HETATM   27  O   UNK N   1      31.163  41.442  61.911  0.00  0.00    -0.398 OA
HETATM   28  H   UNK N   1      31.821  42.129  61.628  0.00  0.00     0.209 HD
ENDBRANCH  26  27
ENDBRANCH  22  26
BRANCH  23  29
HETATM   29  O   UNK N   1      33.547  41.127  60.127  0.00  0.00    -0.390 OA
HETATM   30  H   UNK N   1      33.032  40.279  60.170  0.00  0.00     0.210 HD
ENDBRANCH  23  29
BRANCH  24  31
HETATM   31  O   UNK N   1      34.327  43.545  58.747  0.00  0.00    -0.390 OA
HETATM   32  H   UNK N   1      34.083  44.454  59.061  0.00  0.00     0.210 HD
ENDBRANCH  24  31
BRANCH  25  33
HETATM   33  O   UNK N   1      32.460  44.430  56.818  0.00  0.00    -0.388 OA
HETATM   34  H   UNK N   1      32.633  45.391  56.996  0.00  0.00     0.210 HD
ENDBRANCH  25  33
ENDBRANCH  19  20
ENDBRANCH  18  19
ENDBRANCH   6  18
TORSDOF 8
ENDMDL
MODEL 6
REMARK VINA RESULT:      -5.3     22.936     25.375
REMARK  8 active torsions:
REMARK  status: ('A' for Active; 'I' for Inactive)
REMARK    1  A    between atoms: C_6  and  C_7 
REMARK    2  A    between atoms: C_7  and  O_8 
REMARK    3  A    between atoms: O_8  and  C_9 
REMARK    4  A    between atoms: C_11  and  C_21 
REMARK    5  A    between atoms: C_12  and  O_13 
REMARK    6  A    between atoms: C_15  and  O_16 
REMARK    7  A    between atoms: C_18  and  O_19 
REMARK    8  A    between atoms: C_21  and  O_22 
ROOT
HETATM    1  O   UNK N   1      48.166  48.909  60.382  0.00  0.00    -0.265 OA
HETATM    2  C   UNK N   1      48.290  50.022  60.874  0.00  0.00     0.264 C 
HETATM    3  O   UNK N   1      47.569  51.054  60.360  0.00  0.00    -0.300 OA
HETATM    4  C   UNK N   1      47.470  52.330  60.907  0.00  0.00     0.125 A 
HETATM    5  C   UNK N   1      48.049  53.350  59.940  0.00  0.00     0.036 A 
HETATM    6  C   UNK N   1      49.341  53.388  59.513  0.00  0.00    -0.043 C 
HETATM    7  C   UNK N   1      50.353  52.365  59.994  0.00  0.00     0.037 C 
HETATM    8  C   UNK N   1      50.544  52.370  61.520  0.00  0.00     0.010 C 
HETATM    9  C   UNK N   1      49.432  51.718  62.386  0.00  0.00     0.002 C 
HETATM   10  C   UNK N   1      49.219  50.209  62.058  0.00  0.00     0.085 C 
HETATM   11  C   UNK N   1      48.641  49.424  63.248  0.00  0.00     0.021 C 
HETATM   12  C   UNK N   1      48.091  52.446  62.318  0.00  0.00     0.054 C 
HETATM   13  C   UNK N   1      46.965  54.254  59.545  0.00  0.00     0.182 A 
HETATM   14  O   UNK N   1      47.045  55.206  58.788  0.00  0.00    -0.288 OA
HETATM   15  C   UNK N   1      45.749  53.826  60.184  0.00  0.00     0.061 A 
HETATM   16  C   UNK N   1      46.002  52.758  60.941  0.00  0.00    -0.040 A 
HETATM   17  C   UNK N   1      44.938  52.044  61.731  0.00  0.00     0.047 C 
ENDROOT
BRANCH   6  18
HETATM   18  C   UNK N   1      49.821  54.449  58.538  0.00  0.00     0.206 C 
BRANCH  18  19
HETATM   19  O   UNK N   1      50.492  53.813  57.474  0.00  0.00    -0.354 OA
BRANCH  19  20
HETATM   20  C   UNK N   1      50.635  54.653  56.342  0.00  0.00     0.291 C 
HETATM   21  O   UNK N   1      49.617  55.649  56.293  0.00  0.00    -0.348 OA
HETATM   22  C   UNK N   1      49.852  56.542  55.211  0.00  0.00     0.179 C 
HETATM   23  C   UNK N   1      49.697  55.792  53.868  0.00  0.00     0.180 C 
HETATM   24  C   UNK N   1      50.699  54.625  53.836  0.00  0.00     0.183 C 
HETATM   25  C   UNK N   1      50.522  53.760  55.090  0.00  0.00     0.204 C 
BRANCH  22  26
HETATM   26  C   UNK N   1      48.860  57.712  55.304  0.00  0.00     0.198 C 
BRANCH  26  27
HETATM   27  O   UNK N   1      47.656  57.388  54.663  0.00  0.00    -0.398 OA
HETATM   28  H   UNK N   1      46.994  57.195  55.377  0.00  0.00     0.209 HD
ENDBRANCH  26  27
ENDBRANCH  22  26
BRANCH  23  29
HETATM   29  O   UNK N   1      49.947  56.670  52.799  0.00  0.00    -0.390 OA
HETATM   30  H   UNK N   1      49.857  56.143  51.963  0.00  0.00     0.210 HD
ENDBRANCH  23  29
BRANCH  24  31
HETATM   31  O   UNK N   1      50.501  53.834  52.692  0.00  0.00    -0.390 OA
HETATM   32  H   UNK N   1      50.485  52.888  52.992  0.00  0.00     0.210 HD
ENDBRANCH  24  31
BRANCH  25  33
HETATM   33  O   UNK N   1      51.506  52.759  55.106  0.00  0.00    -0.388 OA
HETATM   34  H   UNK N   1      52.383  53.214  55.009  0.00  0.00     0.210 HD
ENDBRANCH  25  33
ENDBRANCH  19  20
ENDBRANCH  18  19
ENDBRANCH   6  18
TORSDOF 8
ENDMDL
MODEL 7
REMARK VINA RESULT:      -5.3     18.836     22.596
REMARK  8 active torsions:
REMARK  status: ('A' for Active; 'I' for Inactive)
REMARK    1  A    between atoms: C_6  and  C_7 
REMARK    2  A    between atoms: C_7  and  O_8 
REMARK    3  A    between atoms: O_8  and  C_9 
REMARK    4  A    between atoms: C_11  and  C_21 
REMARK    5  A    between atoms: C_12  and  O_13 
REMARK    6  A    between atoms: C_15  and  O_16 
REMARK    7  A    between atoms: C_18  and  O_19 
REMARK    8  A    between atoms: C_21  and  O_22 
ROOT
HETATM    1  O   UNK N   1      32.224  44.198  56.732  0.00  0.00    -0.265 OA
HETATM    2  C   UNK N   1      31.677  43.818  57.757  0.00  0.00     0.264 C 
HETATM    3  O   UNK N   1      31.474  44.709  58.764  0.00  0.00    -0.300 OA
HETATM    4  C   UNK N   1      30.725  44.479  59.915  0.00  0.00     0.125 A 
HETATM    5  C   UNK N   1      31.622  44.570  61.139  0.00  0.00     0.036 A 
HETATM    6  C   UNK N   1      32.686  43.762  61.400  0.00  0.00    -0.043 C 
HETATM    7  C   UNK N   1      33.078  42.654  60.441  0.00  0.00     0.037 C 
HETATM    8  C   UNK N   1      31.964  41.616  60.223  0.00  0.00     0.010 C 
HETATM    9  C   UNK N   1      30.773  42.020  59.312  0.00  0.00     0.002 C 
HETATM   10  C   UNK N   1      31.217  42.376  57.861  0.00  0.00     0.085 C 
HETATM   11  C   UNK N   1      30.095  42.157  56.832  0.00  0.00     0.021 C 
HETATM   12  C   UNK N   1      29.923  43.157  59.876  0.00  0.00     0.054 C 
HETATM   13  C   UNK N   1      31.144  45.686  61.959  0.00  0.00     0.182 A 
HETATM   14  O   UNK N   1      31.604  46.064  63.023  0.00  0.00    -0.288 OA
HETATM   15  C   UNK N   1      30.031  46.308  61.291  0.00  0.00     0.061 A 
HETATM   16  C   UNK N   1      29.782  45.660  60.153  0.00  0.00    -0.040 A 
HETATM   17  C   UNK N   1      28.691  46.068  59.200  0.00  0.00     0.047 C 
ENDROOT
BRANCH   6  18
HETATM   18  C   UNK N   1      33.525  43.938  62.654  0.00  0.00     0.206 C 
BRANCH  18  19
HETATM   19  O   UNK N   1      34.877  44.072  62.276  0.00  0.00    -0.354 OA
BRANCH  19  20
HETATM   20  C   UNK N   1      35.562  45.044  63.045  0.00  0.00     0.291 C 
HETATM   21  O   UNK N   1      34.730  46.163  63.342  0.00  0.00    -0.348 OA
HETATM   22  C   UNK N   1      35.408  47.067  64.205  0.00  0.00     0.179 C 
HETATM   23  C   UNK N   1      36.615  47.692  63.468  0.00  0.00     0.180 C 
HETATM   24  C   UNK N   1      37.557  46.563  63.017  0.00  0.00     0.183 C 
HETATM   25  C   UNK N   1      36.767  45.525  62.211  0.00  0.00     0.204 C 
BRANCH  22  26
HETATM   26  C   UNK N   1      34.423  48.154  64.665  0.00  0.00     0.198 C 
BRANCH  26  27
HETATM   27  O   UNK N   1      33.367  48.279  63.752  0.00  0.00    -0.398 OA
HETATM   28  H   UNK N   1      32.724  48.925  64.144  0.00  0.00     0.209 HD
ENDBRANCH  26  27
ENDBRANCH  22  26
BRANCH  23  29
HETATM   29  O   UNK N   1      37.297  48.572  64.327  0.00  0.00    -0.390 OA
HETATM   30  H   UNK N   1      37.394  48.109  65.199  0.00  0.00     0.210 HD
ENDBRANCH  23  29
BRANCH  24  31
HETATM   31  O   UNK N   1      38.599  47.073  62.225  0.00  0.00    -0.390 OA
HETATM   32  H   UNK N   1      39.141  46.298  61.924  0.00  0.00     0.210 HD
ENDBRANCH  24  31
BRANCH  25  33
HETATM   33  O   UNK N   1      37.608  44.447  61.891  0.00  0.00    -0.388 OA
HETATM   34  H   UNK N   1      38.540  44.753  62.041  0.00  0.00     0.210 HD
ENDBRANCH  25  33
ENDBRANCH  19  20
ENDBRANCH  18  19
ENDBRANCH   6  18
TORSDOF 8
ENDMDL
MODEL 8
REMARK VINA RESULT:      -5.2     16.791     19.705
REMARK  8 active torsions:
REMARK  status: ('A' for Active; 'I' for Inactive)
REMARK    1  A    between atoms: C_6  and  C_7 
REMARK    2  A    between atoms: C_7  and  O_8 
REMARK    3  A    between atoms: O_8  and  C_9 
REMARK    4  A    between atoms: C_11  and  C_21 
REMARK    5  A    between atoms: C_12  and  O_13 
REMARK    6  A    between atoms: C_15  and  O_16 
REMARK    7  A    between atoms: C_18  and  O_19 
REMARK    8  A    between atoms: C_21  and  O_22 
ROOT
HETATM    1  O   UNK N   1      28.427  42.994  61.752  0.00  0.00    -0.265 OA
HETATM    2  C   UNK N   1      29.138  42.282  61.057  0.00  0.00     0.264 C 
HETATM    3  O   UNK N   1      30.114  42.860  60.305  0.00  0.00    -0.300 OA
HETATM    4  C   UNK N   1      31.104  42.183  59.599  0.00  0.00     0.125 A 
HETATM    5  C   UNK N   1      30.955  42.460  58.111  0.00  0.00     0.036 A 
HETATM    6  C   UNK N   1      29.874  42.132  57.351  0.00  0.00    -0.043 C 
HETATM    7  C   UNK N   1      28.676  41.430  57.962  0.00  0.00     0.037 C 
HETATM    8  C   UNK N   1      29.022  40.068  58.587  0.00  0.00     0.010 C 
HETATM    9  C   UNK N   1      29.752  40.073  59.958  0.00  0.00     0.002 C 
HETATM   10  C   UNK N   1      28.930  40.780  61.077  0.00  0.00     0.085 C 
HETATM   11  C   UNK N   1      29.286  40.268  62.483  0.00  0.00     0.021 C 
HETATM   12  C   UNK N   1      31.158  40.669  59.907  0.00  0.00     0.054 C 
HETATM   13  C   UNK N   1      32.166  43.154  57.664  0.00  0.00     0.182 A 
HETATM   14  O   UNK N   1      32.418  43.533  56.533  0.00  0.00    -0.288 OA
HETATM   15  C   UNK N   1      33.031  43.352  58.798  0.00  0.00     0.061 A 
HETATM   16  C   UNK N   1      32.463  42.826  59.883  0.00  0.00    -0.040 A 
HETATM   17  C   UNK N   1      33.096  42.881  61.247  0.00  0.00     0.047 C 
ENDROOT
BRANCH   6  18
HETATM   18  C   UNK N   1      29.821  42.459  55.870  0.00  0.00     0.206 C 
BRANCH  18  19
HETATM   19  O   UNK N   1      30.366  41.375  55.150  0.00  0.00    -0.354 OA
BRANCH  19  20
HETATM   20  C   UNK N   1      29.579  41.017  54.028  0.00  0.00     0.291 C 
HETATM   21  O   UNK N   1      28.840  42.128  53.527  0.00  0.00    -0.348 OA
HETATM   22  C   UNK N   1      28.149  41.765  52.338  0.00  0.00     0.179 C 
HETATM   23  C   UNK N   1      27.061  40.716  52.663  0.00  0.00     0.180 C 
HETATM   24  C   UNK N   1      27.734  39.486  53.297  0.00  0.00     0.183 C 
HETATM   25  C   UNK N   1      28.592  39.926  54.488  0.00  0.00     0.204 C 
BRANCH  22  26
HETATM   26  C   UNK N   1      27.527  43.025  51.716  0.00  0.00     0.198 C 
BRANCH  26  27
HETATM   27  O   UNK N   1      27.281  42.829  50.350  0.00  0.00    -0.398 OA
HETATM   28  H   UNK N   1      27.386  43.713  49.910  0.00  0.00     0.209 HD
ENDBRANCH  26  27
ENDBRANCH  22  26
BRANCH  23  29
HETATM   29  O   UNK N   1      26.390  40.343  51.486  0.00  0.00    -0.390 OA
HETATM   30  H   UNK N   1      25.454  40.128  51.739  0.00  0.00     0.210 HD
ENDBRANCH  23  29
BRANCH  24  31
HETATM   31  O   UNK N   1      26.769  38.562  53.732  0.00  0.00    -0.390 OA
HETATM   32  H   UNK N   1      26.527  38.812  54.662  0.00  0.00     0.210 HD
ENDBRANCH  24  31
BRANCH  25  33
HETATM   33  O   UNK N   1      29.284  38.816  54.998  0.00  0.00    -0.388 OA
HETATM   34  H   UNK N   1      29.509  38.236  54.224  0.00  0.00     0.210 HD
ENDBRANCH  25  33
ENDBRANCH  19  20
ENDBRANCH  18  19
ENDBRANCH   6  18
TORSDOF 8
ENDMDL
MODEL 9
REMARK VINA RESULT:      -5.2     16.702     19.514
REMARK  8 active torsions:
REMARK  status: ('A' for Active; 'I' for Inactive)
REMARK    1  A    between atoms: C_6  and  C_7 
REMARK    2  A    between atoms: C_7  and  O_8 
REMARK    3  A    between atoms: O_8  and  C_9 
REMARK    4  A    between atoms: C_11  and  C_21 
REMARK    5  A    between atoms: C_12  and  O_13 
REMARK    6  A    between atoms: C_15  and  O_16 
REMARK    7  A    between atoms: C_18  and  O_19 
REMARK    8  A    between atoms: C_21  and  O_22 
ROOT
HETATM    1  O   UNK N   1      34.069  41.291  59.926  0.00  0.00    -0.265 OA
HETATM    2  C   UNK N   1      32.978  41.844  59.952  0.00  0.00     0.264 C 
HETATM    3  O   UNK N   1      31.871  41.131  59.613  0.00  0.00    -0.300 OA
HETATM    4  C   UNK N   1      30.553  41.560  59.751  0.00  0.00     0.125 A 
HETATM    5  C   UNK N   1      29.895  41.645  58.383  0.00  0.00     0.036 A 
HETATM    6  C   UNK N   1      30.290  42.458  57.366  0.00  0.00    -0.043 C 
HETATM    7  C   UNK N   1      31.477  43.389  57.527  0.00  0.00     0.037 C 
HETATM    8  C   UNK N   1      31.304  44.405  58.668  0.00  0.00     0.010 C 
HETATM    9  C   UNK N   1      31.476  43.888  60.123  0.00  0.00     0.002 C 
HETATM   10  C   UNK N   1      32.892  43.294  60.387  0.00  0.00     0.085 C 
HETATM   11  C   UNK N   1      33.296  43.372  61.870  0.00  0.00     0.021 C 
HETATM   12  C   UNK N   1      30.414  42.878  60.548  0.00  0.00     0.054 C 
HETATM   13  C   UNK N   1      28.787  40.686  58.363  0.00  0.00     0.182 A 
HETATM   14  O   UNK N   1      28.019  40.473  57.440  0.00  0.00    -0.288 OA
HETATM   15  C   UNK N   1      28.752  39.992  59.623  0.00  0.00     0.061 A 
HETATM   16  C   UNK N   1      29.724  40.456  60.409  0.00  0.00    -0.040 A 
HETATM   17  C   UNK N   1      29.980  39.926  61.794  0.00  0.00     0.047 C 
ENDROOT
BRANCH   6  18
HETATM   18  C   UNK N   1      29.565  42.465  56.031  0.00  0.00     0.206 C 
BRANCH  18  19
HETATM   19  O   UNK N   1      30.370  41.806  55.079  0.00  0.00    -0.354 OA
BRANCH  19  20
HETATM   20  C   UNK N   1      29.627  41.356  53.959  0.00  0.00     0.291 C 
HETATM   21  O   UNK N   1      28.812  42.392  53.417  0.00  0.00    -0.348 OA
HETATM   22  C   UNK N   1      28.166  41.942  52.232  0.00  0.00     0.179 C 
HETATM   23  C   UNK N   1      27.157  40.823  52.577  0.00  0.00     0.180 C 
HETATM   24  C   UNK N   1      27.913  39.668  53.255  0.00  0.00     0.183 C 
HETATM   25  C   UNK N   1      28.720  40.207  54.442  0.00  0.00     0.204 C 
BRANCH  22  26
HETATM   26  C   UNK N   1      27.459  43.132  51.565  0.00  0.00     0.198 C 
BRANCH  26  27
HETATM   27  O   UNK N   1      27.164  42.841  50.226  0.00  0.00    -0.398 OA
HETATM   28  H   UNK N   1      26.214  43.091  50.081  0.00  0.00     0.209 HD
ENDBRANCH  26  27
ENDBRANCH  22  26
BRANCH  23  29
HETATM   29  O   UNK N   1      26.532  40.365  51.404  0.00  0.00    -0.390 OA
HETATM   30  H   UNK N   1      27.252  40.124  50.765  0.00  0.00     0.210 HD
ENDBRANCH  23  29
BRANCH  24  31
HETATM   31  O   UNK N   1      27.016  38.686  53.708  0.00  0.00    -0.390 OA
HETATM   32  H   UNK N   1      26.689  38.979  54.598  0.00  0.00     0.210 HD
ENDBRANCH  24  31
BRANCH  25  33
HETATM   33  O   UNK N   1      29.488  39.168  54.992  0.00  0.00    -0.388 OA
HETATM   34  H   UNK N   1      30.432  39.473  54.985  0.00  0.00     0.210 HD
ENDBRANCH  25  33
ENDBRANCH  19  20
ENDBRANCH  18  19
ENDBRANCH   6  18
TORSDOF 8
ENDMDL
