MODEL 1
REMARK VINA RESULT:      -7.3      0.000      0.000
REMARK  2 active torsions:
REMARK  status: ('A' for Active; 'I' for Inactive)
REMARK    1  A    between atoms: C_4  and  C_18 
REMARK    2  A    between atoms: C_18  and  O_19 
ROOT
HETATM    1  O   UNK N   1      42.042  46.162  45.257  0.00  0.00    -0.288 OA
HETATM    2  C   UNK N   1      41.951  46.416  46.447  0.00  0.00     0.179 C 
HETATM    3  C   UNK N   1      41.230  45.639  47.466  0.00  0.00     0.007 C 
HETATM    4  C   UNK N   1      40.723  44.364  47.272  0.00  0.00    -0.046 C 
HETATM    5  C   UNK N   1      40.168  43.459  48.384  0.00  0.00     0.037 C 
HETATM    6  C   UNK N   1      39.487  44.155  49.550  0.00  0.00     0.012 C 
HETATM    7  C   UNK N   1      40.438  44.882  50.504  0.00  0.00     0.030 C 
HETATM    8  C   UNK N   1      41.720  45.493  49.918  0.00  0.00     0.149 C 
HETATM    9  O   UNK N   1      42.282  46.034  51.052  0.00  0.00    -0.314 OA
HETATM   10  C   UNK N   1      41.973  45.267  52.119  0.00  0.00     0.263 C 
HETATM   11  O   UNK N   1      42.552  45.360  53.186  0.00  0.00    -0.265 OA
HETATM   12  C   UNK N   1      40.921  44.242  51.815  0.00  0.00     0.088 C 
HETATM   13  C   UNK N   1      41.523  42.843  51.683  0.00  0.00     0.021 C 
HETATM   14  C   UNK N   1      41.339  46.431  48.779  0.00  0.00     0.081 C 
HETATM   15  C   UNK N   1      42.356  47.501  48.392  0.00  0.00    -0.069 C 
HETATM   16  C   UNK N   1      42.648  47.496  47.093  0.00  0.00     0.058 C 
HETATM   17  C   UNK N   1      42.930  48.508  49.350  0.00  0.00     0.044 C 
ENDROOT
BRANCH   4  18
HETATM   18  C   UNK N   1      40.795  43.711  45.903  0.00  0.00     0.199 C 
BRANCH  18  19
HETATM   19  O   UNK N   1      39.630  43.982  45.173  0.00  0.00    -0.397 OA
HETATM   20  H   UNK N   1      39.910  44.532  44.394  0.00  0.00     0.209 HD
ENDBRANCH  18  19
ENDBRANCH   4  18
TORSDOF 2
ENDMDL
MODEL 2
REMARK VINA RESULT:      -6.8      2.182      4.978
REMARK  2 active torsions:
REMARK  status: ('A' for Active; 'I' for Inactive)
REMARK    1  A    between atoms: C_4  and  C_18 
REMARK    2  A    between atoms: C_18  and  O_19 
ROOT
HETATM    1  O   UNK N   1      42.172  48.006  49.483  0.00  0.00    -0.288 OA
HETATM    2  C   UNK N   1      41.954  46.826  49.257  0.00  0.00     0.179 C 
HETATM    3  C   UNK N   1      41.734  46.200  47.946  0.00  0.00     0.007 C 
HETATM    4  C   UNK N   1      41.963  46.821  46.728  0.00  0.00    -0.046 C 
HETATM    5  C   UNK N   1      41.950  46.113  45.363  0.00  0.00     0.037 C 
HETATM    6  C   UNK N   1      41.000  44.937  45.217  0.00  0.00     0.012 C 
HETATM    7  C   UNK N   1      41.430  43.670  45.961  0.00  0.00     0.030 C 
HETATM    8  C   UNK N   1      42.214  43.835  47.273  0.00  0.00     0.149 C 
HETATM    9  O   UNK N   1      42.406  42.517  47.618  0.00  0.00    -0.314 OA
HETATM   10  C   UNK N   1      42.532  41.770  46.500  0.00  0.00     0.263 C 
HETATM   11  O   UNK N   1      42.973  40.636  46.512  0.00  0.00    -0.265 OA
HETATM   12  C   UNK N   1      42.166  42.522  45.254  0.00  0.00     0.088 C 
HETATM   13  C   UNK N   1      43.408  42.926  44.458  0.00  0.00     0.021 C 
HETATM   14  C   UNK N   1      41.409  44.721  48.215  0.00  0.00     0.081 C 
HETATM   15  C   UNK N   1      41.726  44.618  49.704  0.00  0.00    -0.069 C 
HETATM   16  C   UNK N   1      41.987  45.798  50.264  0.00  0.00     0.058 C 
HETATM   17  C   UNK N   1      41.689  43.337  50.490  0.00  0.00     0.044 C 
ENDROOT
BRANCH   4  18
HETATM   18  C   UNK N   1      42.372  48.282  46.678  0.00  0.00     0.199 C 
BRANCH  18  19
HETATM   19  O   UNK N   1      43.752  48.408  46.883  0.00  0.00    -0.397 OA
HETATM   20  H   UNK N   1      43.875  49.190  47.485  0.00  0.00     0.209 HD
ENDBRANCH  18  19
ENDBRANCH   4  18
TORSDOF 2
ENDMDL
MODEL 3
REMARK VINA RESULT:      -6.4     12.946     14.894
REMARK  2 active torsions:
REMARK  status: ('A' for Active; 'I' for Inactive)
REMARK    1  A    between atoms: C_4  and  C_18 
REMARK    2  A    between atoms: C_18  and  O_19 
ROOT
HETATM    1  O   UNK N   1      34.365  51.939  45.294  0.00  0.00    -0.288 OA
HETATM    2  C   UNK N   1      33.462  51.806  44.484  0.00  0.00     0.179 C 
HETATM    3  C   UNK N   1      32.514  52.836  44.036  0.00  0.00     0.007 C 
HETATM    4  C   UNK N   1      32.640  54.191  44.301  0.00  0.00    -0.046 C 
HETATM    5  C   UNK N   1      31.786  55.296  43.658  0.00  0.00     0.037 C 
HETATM    6  C   UNK N   1      30.355  54.930  43.306  0.00  0.00     0.012 C 
HETATM    7  C   UNK N   1      30.211  54.002  42.096  0.00  0.00     0.030 C 
HETATM    8  C   UNK N   1      31.326  52.978  41.835  0.00  0.00     0.149 C 
HETATM    9  O   UNK N   1      30.843  52.363  40.704  0.00  0.00    -0.314 OA
HETATM   10  C   UNK N   1      30.153  53.256  39.962  0.00  0.00     0.263 C 
HETATM   11  O   UNK N   1      29.853  53.054  38.800  0.00  0.00    -0.265 OA
HETATM   12  C   UNK N   1      29.892  54.540  40.693  0.00  0.00     0.088 C 
HETATM   13  C   UNK N   1      30.802  55.664  40.195  0.00  0.00     0.021 C 
HETATM   14  C   UNK N   1      31.522  52.138  43.091  0.00  0.00     0.081 C 
HETATM   15  C   UNK N   1      32.191  50.777  42.917  0.00  0.00    -0.069 C 
HETATM   16  C   UNK N   1      33.237  50.605  43.725  0.00  0.00     0.058 C 
HETATM   17  C   UNK N   1      31.698  49.705  41.986  0.00  0.00     0.044 C 
ENDROOT
BRANCH   4  18
HETATM   18  C   UNK N   1      33.757  54.696  45.197  0.00  0.00     0.199 C 
BRANCH  18  19
HETATM   19  O   UNK N   1      34.557  55.614  44.504  0.00  0.00    -0.397 OA
HETATM   20  H   UNK N   1      34.473  55.386  43.540  0.00  0.00     0.209 HD
ENDBRANCH  18  19
ENDBRANCH   4  18
TORSDOF 2
ENDMDL
MODEL 4
REMARK VINA RESULT:      -6.3      2.312      5.285
REMARK  2 active torsions:
REMARK  status: ('A' for Active; 'I' for Inactive)
REMARK    1  A    between atoms: C_4  and  C_18 
REMARK    2  A    between atoms: C_18  and  O_19 
ROOT
HETATM    1  O   UNK N   1      42.717  42.037  47.574  0.00  0.00    -0.288 OA
HETATM    2  C   UNK N   1      42.196  42.846  46.823  0.00  0.00     0.179 C 
HETATM    3  C   UNK N   1      41.131  43.804  47.154  0.00  0.00     0.007 C 
HETATM    4  C   UNK N   1      40.703  44.094  48.440  0.00  0.00    -0.046 C 
HETATM    5  C   UNK N   1      39.755  45.245  48.814  0.00  0.00     0.037 C 
HETATM    6  C   UNK N   1      38.706  45.623  47.782  0.00  0.00     0.012 C 
HETATM    7  C   UNK N   1      39.251  46.362  46.557  0.00  0.00     0.030 C 
HETATM    8  C   UNK N   1      40.673  46.022  46.083  0.00  0.00     0.149 C 
HETATM    9  O   UNK N   1      40.786  46.865  45.002  0.00  0.00    -0.314 OA
HETATM   10  C   UNK N   1      40.085  47.996  45.236  0.00  0.00     0.263 C 
HETATM   11  O   UNK N   1      40.229  49.008  44.575  0.00  0.00    -0.265 OA
HETATM   12  C   UNK N   1      39.199  47.893  46.441  0.00  0.00     0.088 C 
HETATM   13  C   UNK N   1      39.775  48.664  47.629  0.00  0.00     0.021 C 
HETATM   14  C   UNK N   1      40.763  44.520  45.844  0.00  0.00     0.081 C 
HETATM   15  C   UNK N   1      41.875  44.030  44.920  0.00  0.00    -0.069 C 
HETATM   16  C   UNK N   1      42.628  43.080  45.471  0.00  0.00     0.058 C 
HETATM   17  C   UNK N   1      42.075  44.510  43.509  0.00  0.00     0.044 C 
ENDROOT
BRANCH   4  18
HETATM   18  C   UNK N   1      41.263  43.327  49.625  0.00  0.00     0.199 C 
BRANCH  18  19
HETATM   19  O   UNK N   1      42.453  43.919  50.069  0.00  0.00    -0.397 OA
HETATM   20  H   UNK N   1      42.187  44.639  50.701  0.00  0.00     0.209 HD
ENDBRANCH  18  19
ENDBRANCH   4  18
TORSDOF 2
ENDMDL
MODEL 5
REMARK VINA RESULT:      -6.3     14.435     15.751
REMARK  2 active torsions:
REMARK  status: ('A' for Active; 'I' for Inactive)
REMARK    1  A    between atoms: C_4  and  C_18 
REMARK    2  A    between atoms: C_18  and  O_19 
ROOT
HETATM    1  O   UNK N   1      27.363  52.897  39.800  0.00  0.00    -0.288 OA
HETATM    2  C   UNK N   1      28.497  52.752  40.226  0.00  0.00     0.179 C 
HETATM    3  C   UNK N   1      29.248  53.682  41.083  0.00  0.00     0.007 C 
HETATM    4  C   UNK N   1      28.697  54.777  41.729  0.00  0.00    -0.046 C 
HETATM    5  C   UNK N   1      29.413  55.621  42.796  0.00  0.00     0.037 C 
HETATM    6  C   UNK N   1      30.919  55.761  42.653  0.00  0.00     0.012 C 
HETATM    7  C   UNK N   1      31.714  54.500  43.001  0.00  0.00     0.030 C 
HETATM    8  C   UNK N   1      31.063  53.136  42.721  0.00  0.00     0.149 C 
HETATM    9  O   UNK N   1      32.056  52.289  43.155  0.00  0.00    -0.314 OA
HETATM   10  C   UNK N   1      32.714  52.856  44.190  0.00  0.00     0.263 C 
HETATM   11  O   UNK N   1      33.448  52.226  44.927  0.00  0.00    -0.265 OA
HETATM   12  C   UNK N   1      32.363  54.302  44.379  0.00  0.00     0.088 C 
HETATM   13  C   UNK N   1      31.437  54.502  45.580  0.00  0.00     0.021 C 
HETATM   14  C   UNK N   1      30.653  53.082  41.255  0.00  0.00     0.081 C 
HETATM   15  C   UNK N   1      30.458  51.699  40.640  0.00  0.00    -0.069 C 
HETATM   16  C   UNK N   1      29.275  51.556  40.046  0.00  0.00     0.058 C 
HETATM   17  C   UNK N   1      31.505  50.620  40.636  0.00  0.00     0.044 C 
ENDROOT
BRANCH   4  18
HETATM   18  C   UNK N   1      27.245  55.155  41.494  0.00  0.00     0.199 C 
BRANCH  18  19
HETATM   19  O   UNK N   1      26.412  54.455  42.376  0.00  0.00    -0.397 OA
HETATM   20  H   UNK N   1      26.933  53.667  42.687  0.00  0.00     0.209 HD
ENDBRANCH  18  19
ENDBRANCH   4  18
TORSDOF 2
ENDMDL
MODEL 6
REMARK VINA RESULT:      -5.9     12.902     14.385
REMARK  2 active torsions:
REMARK  status: ('A' for Active; 'I' for Inactive)
REMARK    1  A    between atoms: C_4  and  C_18 
REMARK    2  A    between atoms: C_18  and  O_19 
ROOT
HETATM    1  O   UNK N   1      33.136  49.005  43.700  0.00  0.00    -0.288 OA
HETATM    2  C   UNK N   1      32.947  50.202  43.558  0.00  0.00     0.179 C 
HETATM    3  C   UNK N   1      32.206  50.860  42.473  0.00  0.00     0.007 C 
HETATM    4  C   UNK N   1      31.409  50.201  41.550  0.00  0.00    -0.046 C 
HETATM    5  C   UNK N   1      30.459  50.889  40.556  0.00  0.00     0.037 C 
HETATM    6  C   UNK N   1      30.885  52.255  40.046  0.00  0.00     0.012 C 
HETATM    7  C   UNK N   1      30.764  53.387  41.069  0.00  0.00     0.030 C 
HETATM    8  C   UNK N   1      30.983  53.045  42.552  0.00  0.00     0.149 C 
HETATM    9  O   UNK N   1      30.795  54.281  43.125  0.00  0.00    -0.314 OA
HETATM   10  C   UNK N   1      29.881  54.976  42.414  0.00  0.00     0.263 C 
HETATM   11  O   UNK N   1      29.334  55.975  42.843  0.00  0.00    -0.265 OA
HETATM   12  C   UNK N   1      29.552  54.329  41.101  0.00  0.00     0.088 C 
HETATM   13  C   UNK N   1      28.185  53.643  41.141  0.00  0.00     0.021 C 
HETATM   14  C   UNK N   1      32.343  52.374  42.704  0.00  0.00     0.081 C 
HETATM   15  C   UNK N   1      32.979  52.403  44.090  0.00  0.00    -0.069 C 
HETATM   16  C   UNK N   1      33.337  51.195  44.523  0.00  0.00     0.058 C 
HETATM   17  C   UNK N   1      33.242  53.658  44.874  0.00  0.00     0.044 C 
ENDROOT
BRANCH   4  18
HETATM   18  C   UNK N   1      31.336  48.684  41.546  0.00  0.00     0.199 C 
BRANCH  18  19
HETATM   19  O   UNK N   1      30.656  48.233  40.407  0.00  0.00    -0.397 OA
HETATM   20  H   UNK N   1      30.576  49.018  39.801  0.00  0.00     0.209 HD
ENDBRANCH  18  19
ENDBRANCH   4  18
TORSDOF 2
ENDMDL
MODEL 7
REMARK VINA RESULT:      -5.7      2.064      3.611
REMARK  2 active torsions:
REMARK  status: ('A' for Active; 'I' for Inactive)
REMARK    1  A    between atoms: C_4  and  C_18 
REMARK    2  A    between atoms: C_18  and  O_19 
ROOT
HETATM    1  O   UNK N   1      40.611  47.978  46.508  0.00  0.00    -0.288 OA
HETATM    2  C   UNK N   1      40.403  46.960  47.149  0.00  0.00     0.179 C 
HETATM    3  C   UNK N   1      41.245  46.396  48.214  0.00  0.00     0.007 C 
HETATM    4  C   UNK N   1      42.304  47.058  48.815  0.00  0.00    -0.046 C 
HETATM    5  C   UNK N   1      43.046  46.572  50.071  0.00  0.00     0.037 C 
HETATM    6  C   UNK N   1      43.154  45.068  50.257  0.00  0.00     0.012 C 
HETATM    7  C   UNK N   1      41.849  44.378  50.662  0.00  0.00     0.030 C 
HETATM    8  C   UNK N   1      40.529  44.971  50.146  0.00  0.00     0.149 C 
HETATM    9  O   UNK N   1      39.625  44.101  50.709  0.00  0.00    -0.314 OA
HETATM   10  C   UNK N   1      40.094  43.669  51.899  0.00  0.00     0.263 C 
HETATM   11  O   UNK N   1      39.391  43.113  52.722  0.00  0.00    -0.265 OA
HETATM   12  C   UNK N   1      41.531  44.035  52.125  0.00  0.00     0.088 C 
HETATM   13  C   UNK N   1      41.666  45.191  53.118  0.00  0.00     0.021 C 
HETATM   14  C   UNK N   1      40.595  45.065  48.627  0.00  0.00     0.081 C 
HETATM   15  C   UNK N   1      39.268  45.142  47.877  0.00  0.00    -0.069 C 
HETATM   16  C   UNK N   1      39.203  46.176  47.040  0.00  0.00     0.058 C 
HETATM   17  C   UNK N   1      38.164  44.129  48.007  0.00  0.00     0.044 C 
ENDROOT
BRANCH   4  18
HETATM   18  C   UNK N   1      42.738  48.423  48.313  0.00  0.00     0.199 C 
BRANCH  18  19
HETATM   19  O   UNK N   1      43.502  48.292  47.146  0.00  0.00    -0.397 OA
HETATM   20  H   UNK N   1      42.884  48.465  46.387  0.00  0.00     0.209 HD
ENDBRANCH  18  19
ENDBRANCH   4  18
TORSDOF 2
ENDMDL
MODEL 8
REMARK VINA RESULT:      -5.6     13.990     15.612
REMARK  2 active torsions:
REMARK  status: ('A' for Active; 'I' for Inactive)
REMARK    1  A    between atoms: C_4  and  C_18 
REMARK    2  A    between atoms: C_18  and  O_19 
ROOT
HETATM    1  O   UNK N   1      32.737  53.408  45.142  0.00  0.00    -0.288 OA
HETATM    2  C   UNK N   1      32.088  53.792  44.183  0.00  0.00     0.179 C 
HETATM    3  C   UNK N   1      31.759  53.027  42.971  0.00  0.00     0.007 C 
HETATM    4  C   UNK N   1      31.951  51.662  42.826  0.00  0.00    -0.046 C 
HETATM    5  C   UNK N   1      31.412  50.818  41.659  0.00  0.00     0.037 C 
HETATM    6  C   UNK N   1      31.307  51.510  40.311  0.00  0.00     0.012 C 
HETATM    7  C   UNK N   1      30.171  52.531  40.203  0.00  0.00     0.030 C 
HETATM    8  C   UNK N   1      29.773  53.304  41.470  0.00  0.00     0.149 C 
HETATM    9  O   UNK N   1      28.757  54.089  40.977  0.00  0.00    -0.314 OA
HETATM   10  C   UNK N   1      28.103  53.422  40.002  0.00  0.00     0.263 C 
HETATM   11  O   UNK N   1      27.012  53.767  39.587  0.00  0.00    -0.265 OA
HETATM   12  C   UNK N   1      28.818  52.177  39.568  0.00  0.00     0.088 C 
HETATM   13  C   UNK N   1      28.140  50.921  40.117  0.00  0.00     0.021 C 
HETATM   14  C   UNK N   1      31.011  53.989  42.034  0.00  0.00     0.081 C 
HETATM   15  C   UNK N   1      30.783  55.181  42.960  0.00  0.00    -0.069 C 
HETATM   16  C   UNK N   1      31.418  55.064  44.125  0.00  0.00     0.058 C 
HETATM   17  C   UNK N   1      29.982  56.399  42.590  0.00  0.00     0.044 C 
ENDROOT
BRANCH   4  18
HETATM   18  C   UNK N   1      32.637  50.863  43.919  0.00  0.00     0.199 C 
BRANCH  18  19
HETATM   19  O   UNK N   1      34.029  50.964  43.794  0.00  0.00    -0.397 OA
HETATM   20  H   UNK N   1      34.226  51.927  43.640  0.00  0.00     0.209 HD
ENDBRANCH  18  19
ENDBRANCH   4  18
TORSDOF 2
ENDMDL
MODEL 9
REMARK VINA RESULT:      -5.5     13.633     15.710
REMARK  2 active torsions:
REMARK  status: ('A' for Active; 'I' for Inactive)
REMARK    1  A    between atoms: C_4  and  C_18 
REMARK    2  A    between atoms: C_18  and  O_19 
ROOT
HETATM    1  O   UNK N   1      49.470  59.029  47.044  0.00  0.00    -0.288 OA
HETATM    2  C   UNK N   1      50.217  58.315  46.394  0.00  0.00     0.179 C 
HETATM    3  C   UNK N   1      49.849  57.125  45.614  0.00  0.00     0.007 C 
HETATM    4  C   UNK N   1      48.550  56.753  45.310  0.00  0.00    -0.046 C 
HETATM    5  C   UNK N   1      48.161  55.645  44.317  0.00  0.00     0.037 C 
HETATM    6  C   UNK N   1      49.115  54.469  44.203  0.00  0.00     0.012 C 
HETATM    7  C   UNK N   1      50.425  54.777  43.472  0.00  0.00     0.030 C 
HETATM    8  C   UNK N   1      51.003  56.196  43.593  0.00  0.00     0.149 C 
HETATM    9  O   UNK N   1      52.137  56.072  42.825  0.00  0.00    -0.314 OA
HETATM   10  C   UNK N   1      51.909  55.200  41.819  0.00  0.00     0.263 C 
HETATM   11  O   UNK N   1      52.638  55.109  40.849  0.00  0.00    -0.265 OA
HETATM   12  C   UNK N   1      50.625  54.442  41.986  0.00  0.00     0.088 C 
HETATM   13  C   UNK N   1      49.540  54.961  41.042  0.00  0.00     0.021 C 
HETATM   14  C   UNK N   1      51.161  56.535  45.070  0.00  0.00     0.081 C 
HETATM   15  C   UNK N   1      52.150  57.642  45.426  0.00  0.00    -0.069 C 
HETATM   16  C   UNK N   1      51.613  58.593  46.188  0.00  0.00     0.058 C 
HETATM   17  C   UNK N   1      53.598  57.644  45.023  0.00  0.00     0.044 C 
ENDROOT
BRANCH   4  18
HETATM   18  C   UNK N   1      47.377  57.531  45.879  0.00  0.00     0.199 C 
BRANCH  18  19
HETATM   19  O   UNK N   1      47.108  58.654  45.086  0.00  0.00    -0.397 OA
HETATM   20  H   UNK N   1      47.951  59.180  45.052  0.00  0.00     0.209 HD
ENDBRANCH  18  19
ENDBRANCH   4  18
TORSDOF 2
ENDMDL
