MODEL 1
REMARK VINA RESULT:      -6.1      0.000      0.000
REMARK  11 active torsions:
REMARK  status: ('A' for Active; 'I' for Inactive)
REMARK    1  A    between atoms: C_2  and  O_3 
REMARK    2  A    between atoms: O_3  and  C_4 
REMARK    3  A    between atoms: C_5  and  O_6 
REMARK    4  A    between atoms: O_6  and  C_7 
REMARK    5  A    between atoms: C_7  and  C_8 
REMARK    6  A    between atoms: C_11  and  C_19 
REMARK    7  A    between atoms: C_19  and  O_20 
REMARK    8  A    between atoms: C_26  and  O_27 
REMARK    9  A    between atoms: O_27  and  C_28 
REMARK   10  A    between atoms: C_31  and  O_32 
REMARK   11  A    between atoms: O_32  and  C_33 
ROOT
HETATM    1  C   UNK N   1      26.693  54.293  39.539  0.00  0.00     0.219 C 
HETATM    2  C   UNK N   1      27.341  53.945  40.905  0.00  0.00     0.292 C 
HETATM    3  O   UNK N   1      27.188  52.567  41.223  0.00  0.00    -0.356 OA
HETATM    4  C   UNK N   1      27.799  51.739  40.249  0.00  0.00     0.206 C 
HETATM    5  C   UNK N   1      27.100  51.883  38.890  0.00  0.00     0.188 C 
HETATM    6  C   UNK N   1      27.201  53.348  38.434  0.00  0.00     0.198 C 
ENDROOT
BRANCH   2   7
HETATM    7  O   UNK N   1      28.710  54.345  40.916  0.00  0.00    -0.348 OA
BRANCH   7   8
HETATM    8  C   UNK N   1      29.153  55.071  42.072  0.00  0.00     0.061 C 
HETATM    9  C   UNK N   1      29.772  56.429  41.653  0.00  0.00     0.046 C 
HETATM   10  C   UNK N   1      27.860  55.398  42.855  0.00  0.00     0.046 C 
BRANCH   8  11
HETATM   11  C   UNK N   1      30.155  54.223  42.973  0.00  0.00     0.024 C 
HETATM   12  C   UNK N   1      31.326  53.556  42.207  0.00  0.00     0.043 C 
HETATM   13  C   UNK N   1      32.170  52.719  43.173  0.00  0.00    -0.067 C 
HETATM   14  C   UNK N   1      32.383  51.371  42.991  0.00  0.00    -0.053 C 
HETATM   15  C   UNK N   1      32.729  53.468  44.397  0.00  0.00    -0.020 C 
HETATM   16  C   UNK N   1      33.270  50.573  43.931  0.00  0.00     0.036 C 
HETATM   17  C   UNK N   1      34.185  51.440  44.797  0.00  0.00     0.005 C 
HETATM   18  C   UNK N   1      33.342  52.507  45.459  0.00  0.00     0.014 C 
HETATM   19  C   UNK N   1      31.548  54.195  45.102  0.00  0.00     0.014 C 
HETATM   20  C   UNK N   1      33.800  54.485  43.928  0.00  0.00     0.020 C 
HETATM   21  C   UNK N   1      30.712  55.063  44.153  0.00  0.00     0.009 C 
BRANCH  14  22
HETATM   22  C   UNK N   1      31.743  50.590  41.861  0.00  0.00     0.198 C 
BRANCH  22  23
HETATM   23  O   UNK N   1      31.335  49.330  42.317  0.00  0.00    -0.397 OA
HETATM   24  H   UNK N   1      30.354  49.284  42.176  0.00  0.00     0.209 HD
ENDBRANCH  22  23
ENDBRANCH  14  22
ENDBRANCH   8  11
ENDBRANCH   7   8
ENDBRANCH   2   7
BRANCH   1  25
HETATM   25  O   UNK N   1      25.311  54.222  39.633  0.00  0.00    -0.309 OA
BRANCH  25  26
HETATM   26  C   UNK N   1      24.539  55.317  39.901  0.00  0.00     0.255 C 
HETATM   27  O   UNK N   1      24.318  55.663  41.051  0.00  0.00    -0.266 OA
HETATM   28  C   UNK N   1      23.974  56.115  38.774  0.00  0.00     0.126 C 
ENDBRANCH  25  26
ENDBRANCH   1  25
BRANCH   6  29
HETATM   29  O   UNK N   1      28.528  53.649  38.159  0.00  0.00    -0.311 OA
BRANCH  29  30
HETATM   30  C   UNK N   1      28.924  54.739  37.444  0.00  0.00     0.255 C 
HETATM   31  O   UNK N   1      28.331  55.079  36.434  0.00  0.00    -0.266 OA
HETATM   32  C   UNK N   1      30.090  55.542  37.923  0.00  0.00     0.126 C 
ENDBRANCH  29  30
ENDBRANCH   6  29
BRANCH   5  33
HETATM   33  O   UNK N   1      25.771  51.504  39.021  0.00  0.00    -0.311 OA
BRANCH  33  34
HETATM   34  C   UNK N   1      25.366  50.220  39.237  0.00  0.00     0.255 C 
HETATM   35  O   UNK N   1      25.641  49.332  38.447  0.00  0.00    -0.266 OA
HETATM   36  C   UNK N   1      24.592  49.894  40.476  0.00  0.00     0.126 C 
ENDBRANCH  33  34
ENDBRANCH   5  33
TORSDOF 11
ENDMDL
MODEL 2
REMARK VINA RESULT:      -5.8      1.539      3.186
REMARK  11 active torsions:
REMARK  status: ('A' for Active; 'I' for Inactive)
REMARK    1  A    between atoms: C_2  and  O_3 
REMARK    2  A    between atoms: O_3  and  C_4 
REMARK    3  A    between atoms: C_5  and  O_6 
REMARK    4  A    between atoms: O_6  and  C_7 
REMARK    5  A    between atoms: C_7  and  C_8 
REMARK    6  A    between atoms: C_11  and  C_19 
REMARK    7  A    between atoms: C_19  and  O_20 
REMARK    8  A    between atoms: C_26  and  O_27 
REMARK    9  A    between atoms: O_27  and  C_28 
REMARK   10  A    between atoms: C_31  and  O_32 
REMARK   11  A    between atoms: O_32  and  C_33 
ROOT
HETATM    1  C   UNK N   1      27.410  52.672  40.516  0.00  0.00     0.219 C 
HETATM    2  C   UNK N   1      28.898  53.099  40.430  0.00  0.00     0.292 C 
HETATM    3  O   UNK N   1      29.405  52.978  39.106  0.00  0.00    -0.356 OA
HETATM    4  C   UNK N   1      28.685  53.794  38.199  0.00  0.00     0.206 C 
HETATM    5  C   UNK N   1      27.227  53.327  38.080  0.00  0.00     0.188 C 
HETATM    6  C   UNK N   1      26.565  53.416  39.464  0.00  0.00     0.198 C 
ENDROOT
BRANCH   2   7
HETATM    7  O   UNK N   1      29.062  54.420  40.944  0.00  0.00    -0.348 OA
BRANCH   7   8
HETATM    8  C   UNK N   1      30.235  54.655  41.737  0.00  0.00     0.061 C 
HETATM    9  C   UNK N   1      31.347  55.305  40.877  0.00  0.00     0.046 C 
HETATM   10  C   UNK N   1      29.805  55.715  42.778  0.00  0.00     0.046 C 
BRANCH   8  11
HETATM   11  C   UNK N   1      30.750  53.334  42.462  0.00  0.00     0.024 C 
HETATM   12  C   UNK N   1      31.673  52.430  41.606  0.00  0.00     0.043 C 
HETATM   13  C   UNK N   1      32.039  51.167  42.393  0.00  0.00    -0.067 C 
HETATM   14  C   UNK N   1      31.762  49.901  41.928  0.00  0.00    -0.053 C 
HETATM   15  C   UNK N   1      32.694  51.399  43.767  0.00  0.00    -0.020 C 
HETATM   16  C   UNK N   1      32.185  48.662  42.699  0.00  0.00     0.036 C 
HETATM   17  C   UNK N   1      33.252  48.934  43.760  0.00  0.00     0.005 C 
HETATM   18  C   UNK N   1      32.791  50.095  44.612  0.00  0.00     0.014 C 
HETATM   19  C   UNK N   1      31.791  52.374  44.576  0.00  0.00     0.014 C 
HETATM   20  C   UNK N   1      34.108  52.000  43.563  0.00  0.00     0.020 C 
HETATM   21  C   UNK N   1      31.441  53.659  43.813  0.00  0.00     0.009 C 
BRANCH  14  22
HETATM   22  C   UNK N   1      31.010  49.653  40.636  0.00  0.00     0.198 C 
BRANCH  22  23
HETATM   23  O   UNK N   1      29.637  49.537  40.893  0.00  0.00    -0.397 OA
HETATM   24  H   UNK N   1      29.171  49.960  40.126  0.00  0.00     0.209 HD
ENDBRANCH  22  23
ENDBRANCH  14  22
ENDBRANCH   8  11
ENDBRANCH   7   8
ENDBRANCH   2   7
BRANCH   1  25
HETATM   25  O   UNK N   1      27.293  51.301  40.341  0.00  0.00    -0.309 OA
BRANCH  25  26
HETATM   26  C   UNK N   1      26.218  50.594  40.799  0.00  0.00     0.255 C 
HETATM   27  O   UNK N   1      25.831  50.714  41.951  0.00  0.00    -0.266 OA
HETATM   28  C   UNK N   1      25.491  49.675  39.874  0.00  0.00     0.126 C 
ENDBRANCH  25  26
ENDBRANCH   1  25
BRANCH   6  29
HETATM   29  O   UNK N   1      26.458  54.750  39.835  0.00  0.00    -0.311 OA
BRANCH  29  30
HETATM   30  C   UNK N   1      25.372  55.275  40.468  0.00  0.00     0.255 C 
HETATM   31  O   UNK N   1      25.452  55.699  41.609  0.00  0.00    -0.266 OA
HETATM   32  C   UNK N   1      24.069  55.350  39.740  0.00  0.00     0.126 C 
ENDBRANCH  29  30
ENDBRANCH   6  29
BRANCH   5  33
HETATM   33  O   UNK N   1      27.205  52.021  37.611  0.00  0.00    -0.311 OA
BRANCH  33  34
HETATM   34  C   UNK N   1      26.226  51.521  36.804  0.00  0.00     0.255 C 
HETATM   35  O   UNK N   1      26.229  50.349  36.465  0.00  0.00    -0.266 OA
HETATM   36  C   UNK N   1      25.120  52.421  36.350  0.00  0.00     0.126 C 
ENDBRANCH  33  34
ENDBRANCH   5  33
TORSDOF 11
ENDMDL
MODEL 3
REMARK VINA RESULT:      -5.4      2.199      7.114
REMARK  11 active torsions:
REMARK  status: ('A' for Active; 'I' for Inactive)
REMARK    1  A    between atoms: C_2  and  O_3 
REMARK    2  A    between atoms: O_3  and  C_4 
REMARK    3  A    between atoms: C_5  and  O_6 
REMARK    4  A    between atoms: O_6  and  C_7 
REMARK    5  A    between atoms: C_7  and  C_8 
REMARK    6  A    between atoms: C_11  and  C_19 
REMARK    7  A    between atoms: C_19  and  O_20 
REMARK    8  A    between atoms: C_26  and  O_27 
REMARK    9  A    between atoms: O_27  and  C_28 
REMARK   10  A    between atoms: C_31  and  O_32 
REMARK   11  A    between atoms: O_32  and  C_33 
ROOT
HETATM    1  C   UNK N   1      29.357  53.846  40.535  0.00  0.00     0.219 C 
HETATM    2  C   UNK N   1      28.247  54.680  41.228  0.00  0.00     0.292 C 
HETATM    3  O   UNK N   1      28.709  55.266  42.439  0.00  0.00    -0.356 OA
HETATM    4  C   UNK N   1      29.802  56.137  42.209  0.00  0.00     0.206 C 
HETATM    5  C   UNK N   1      31.020  55.363  41.687  0.00  0.00     0.188 C 
HETATM    6  C   UNK N   1      30.641  54.678  40.363  0.00  0.00     0.198 C 
ENDROOT
BRANCH   2   7
HETATM    7  O   UNK N   1      27.730  55.657  40.326  0.00  0.00    -0.348 OA
BRANCH   7   8
HETATM    8  C   UNK N   1      26.447  55.376  39.747  0.00  0.00     0.061 C 
HETATM    9  C   UNK N   1      25.326  55.576  40.797  0.00  0.00     0.046 C 
HETATM   10  C   UNK N   1      26.247  56.471  38.674  0.00  0.00     0.046 C 
BRANCH   8  11
HETATM   11  C   UNK N   1      26.385  53.927  39.090  0.00  0.00     0.024 C 
HETATM   12  C   UNK N   1      25.193  53.047  39.547  0.00  0.00     0.043 C 
HETATM   13  C   UNK N   1      25.288  51.664  38.896  0.00  0.00    -0.067 C 
HETATM   14  C   UNK N   1      25.348  50.503  39.634  0.00  0.00    -0.053 C 
HETATM   15  C   UNK N   1      25.365  51.649  37.358  0.00  0.00    -0.020 C 
HETATM   16  C   UNK N   1      25.385  49.139  38.967  0.00  0.00     0.036 C 
HETATM   17  C   UNK N   1      24.950  49.160  37.501  0.00  0.00     0.005 C 
HETATM   18  C   UNK N   1      25.726  50.245  36.790  0.00  0.00     0.014 C 
HETATM   19  C   UNK N   1      26.515  52.602  36.922  0.00  0.00     0.014 C 
HETATM   20  C   UNK N   1      24.008  52.120  36.775  0.00  0.00     0.020 C 
HETATM   21  C   UNK N   1      26.416  54.003  37.540  0.00  0.00     0.009 C 
BRANCH  14  22
HETATM   22  C   UNK N   1      25.396  50.501  41.149  0.00  0.00     0.198 C 
BRANCH  22  23
HETATM   23  O   UNK N   1      26.474  49.726  41.595  0.00  0.00    -0.397 OA
HETATM   24  H   UNK N   1      27.298  50.206  41.317  0.00  0.00     0.209 HD
ENDBRANCH  22  23
ENDBRANCH  14  22
ENDBRANCH   8  11
ENDBRANCH   7   8
ENDBRANCH   2   7
BRANCH   1  25
HETATM   25  O   UNK N   1      29.623  52.699  41.268  0.00  0.00    -0.309 OA
BRANCH  25  26
HETATM   26  C   UNK N   1      29.812  51.482  40.678  0.00  0.00     0.255 C 
HETATM   27  O   UNK N   1      28.893  50.905  40.118  0.00  0.00    -0.266 OA
HETATM   28  C   UNK N   1      31.166  50.854  40.700  0.00  0.00     0.126 C 
ENDBRANCH  25  26
ENDBRANCH   1  25
BRANCH   6  29
HETATM   29  O   UNK N   1      30.423  55.649  39.394  0.00  0.00    -0.311 OA
BRANCH  29  30
HETATM   30  C   UNK N   1      30.161  55.367  38.087  0.00  0.00     0.255 C 
HETATM   31  O   UNK N   1      30.320  54.243  37.641  0.00  0.00    -0.266 OA
HETATM   32  C   UNK N   1      29.648  56.452  37.196  0.00  0.00     0.126 C 
ENDBRANCH  29  30
ENDBRANCH   6  29
BRANCH   5  33
HETATM   33  O   UNK N   1      31.399  54.420  42.632  0.00  0.00    -0.311 OA
BRANCH  33  34
HETATM   34  C   UNK N   1      31.918  54.735  43.854  0.00  0.00     0.255 C 
HETATM   35  O   UNK N   1      32.932  55.405  43.952  0.00  0.00    -0.266 OA
HETATM   36  C   UNK N   1      31.213  54.272  45.091  0.00  0.00     0.126 C 
ENDBRANCH  33  34
ENDBRANCH   5  33
TORSDOF 11
ENDMDL
MODEL 4
REMARK VINA RESULT:      -5.4      1.751      4.194
REMARK  11 active torsions:
REMARK  status: ('A' for Active; 'I' for Inactive)
REMARK    1  A    between atoms: C_2  and  O_3 
REMARK    2  A    between atoms: O_3  and  C_4 
REMARK    3  A    between atoms: C_5  and  O_6 
REMARK    4  A    between atoms: O_6  and  C_7 
REMARK    5  A    between atoms: C_7  and  C_8 
REMARK    6  A    between atoms: C_11  and  C_19 
REMARK    7  A    between atoms: C_19  and  O_20 
REMARK    8  A    between atoms: C_26  and  O_27 
REMARK    9  A    between atoms: O_27  and  C_28 
REMARK   10  A    between atoms: C_31  and  O_32 
REMARK   11  A    between atoms: O_32  and  C_33 
ROOT
HETATM    1  C   UNK N   1      27.896  54.985  39.854  0.00  0.00     0.219 C 
HETATM    2  C   UNK N   1      28.643  55.745  40.982  0.00  0.00     0.292 C 
HETATM    3  O   UNK N   1      27.851  56.796  41.522  0.00  0.00    -0.356 OA
HETATM    4  C   UNK N   1      26.646  56.302  42.080  0.00  0.00     0.206 C 
HETATM    5  C   UNK N   1      25.751  55.686  40.995  0.00  0.00     0.188 C 
HETATM    6  C   UNK N   1      26.507  54.523  40.332  0.00  0.00     0.198 C 
ENDROOT
BRANCH   2   7
HETATM    7  O   UNK N   1      29.074  54.831  41.989  0.00  0.00    -0.348 OA
BRANCH   7   8
HETATM    8  C   UNK N   1      30.486  54.776  42.239  0.00  0.00     0.061 C 
HETATM    9  C   UNK N   1      31.275  55.173  40.965  0.00  0.00     0.046 C 
HETATM   10  C   UNK N   1      30.748  55.886  43.283  0.00  0.00     0.046 C 
BRANCH   8  11
HETATM   11  C   UNK N   1      30.948  53.359  42.798  0.00  0.00     0.024 C 
HETATM   12  C   UNK N   1      31.709  52.467  41.784  0.00  0.00     0.043 C 
HETATM   13  C   UNK N   1      32.034  51.113  42.424  0.00  0.00    -0.067 C 
HETATM   14  C   UNK N   1      31.608  49.920  41.884  0.00  0.00    -0.053 C 
HETATM   15  C   UNK N   1      32.826  51.167  43.743  0.00  0.00    -0.020 C 
HETATM   16  C   UNK N   1      31.990  48.587  42.505  0.00  0.00     0.036 C 
HETATM   17  C   UNK N   1      33.166  48.676  43.477  0.00  0.00     0.005 C 
HETATM   18  C   UNK N   1      32.884  49.787  44.464  0.00  0.00     0.014 C 
HETATM   19  C   UNK N   1      32.086  52.131  44.714  0.00  0.00     0.014 C 
HETATM   20  C   UNK N   1      34.263  51.672  43.455  0.00  0.00     0.020 C 
HETATM   21  C   UNK N   1      31.782  53.504  44.099  0.00  0.00     0.009 C 
BRANCH  14  22
HETATM   22  C   UNK N   1      30.726  49.850  40.654  0.00  0.00     0.198 C 
BRANCH  22  23
HETATM   23  O   UNK N   1      29.774  48.833  40.802  0.00  0.00    -0.397 OA
HETATM   24  H   UNK N   1      28.989  49.246  41.249  0.00  0.00     0.209 HD
ENDBRANCH  22  23
ENDBRANCH  14  22
ENDBRANCH   8  11
ENDBRANCH   7   8
ENDBRANCH   2   7
BRANCH   1  25
HETATM   25  O   UNK N   1      27.773  55.792  38.732  0.00  0.00    -0.309 OA
BRANCH  25  26
HETATM   26  C   UNK N   1      28.858  56.244  38.035  0.00  0.00     0.255 C 
HETATM   27  O   UNK N   1      29.138  57.432  38.009  0.00  0.00    -0.266 OA
HETATM   28  C   UNK N   1      29.727  55.270  37.310  0.00  0.00     0.126 C 
ENDBRANCH  25  26
ENDBRANCH   1  25
BRANCH   6  29
HETATM   29  O   UNK N   1      26.665  53.497  41.254  0.00  0.00    -0.311 OA
BRANCH  29  30
HETATM   30  C   UNK N   1      26.729  52.179  40.916  0.00  0.00     0.255 C 
HETATM   31  O   UNK N   1      25.995  51.358  41.440  0.00  0.00    -0.266 OA
HETATM   32  C   UNK N   1      27.700  51.742  39.867  0.00  0.00     0.126 C 
ENDBRANCH  29  30
ENDBRANCH   6  29
BRANCH   5  33
HETATM   33  O   UNK N   1      25.437  56.661  40.058  0.00  0.00    -0.311 OA
BRANCH  33  34
HETATM   34  C   UNK N   1      24.544  57.668  40.281  0.00  0.00     0.255 C 
HETATM   35  O   UNK N   1      23.979  57.781  41.356  0.00  0.00    -0.266 OA
HETATM   36  C   UNK N   1      24.276  58.663  39.195  0.00  0.00     0.126 C 
ENDBRANCH  33  34
ENDBRANCH   5  33
TORSDOF 11
ENDMDL
MODEL 5
REMARK VINA RESULT:      -5.3     15.012     18.129
REMARK  11 active torsions:
REMARK  status: ('A' for Active; 'I' for Inactive)
REMARK    1  A    between atoms: C_2  and  O_3 
REMARK    2  A    between atoms: O_3  and  C_4 
REMARK    3  A    between atoms: C_5  and  O_6 
REMARK    4  A    between atoms: O_6  and  C_7 
REMARK    5  A    between atoms: C_7  and  C_8 
REMARK    6  A    between atoms: C_11  and  C_19 
REMARK    7  A    between atoms: C_19  and  O_20 
REMARK    8  A    between atoms: C_26  and  O_27 
REMARK    9  A    between atoms: O_27  and  C_28 
REMARK   10  A    between atoms: C_31  and  O_32 
REMARK   11  A    between atoms: O_32  and  C_33 
ROOT
HETATM    1  C   UNK N   1      27.270  41.056  53.193  0.00  0.00     0.219 C 
HETATM    2  C   UNK N   1      28.789  41.371  53.192  0.00  0.00     0.292 C 
HETATM    3  O   UNK N   1      29.189  42.031  51.997  0.00  0.00    -0.356 OA
HETATM    4  C   UNK N   1      28.508  43.262  51.832  0.00  0.00     0.206 C 
HETATM    5  C   UNK N   1      27.002  43.035  51.641  0.00  0.00     0.188 C 
HETATM    6  C   UNK N   1      26.448  42.321  52.885  0.00  0.00     0.198 C 
ENDROOT
BRANCH   2   7
HETATM    7  O   UNK N   1      29.137  42.121  54.356  0.00  0.00    -0.348 OA
BRANCH   7   8
HETATM    8  C   UNK N   1      30.122  41.536  55.220  0.00  0.00     0.061 C 
HETATM    9  C   UNK N   1      29.959  39.995  55.259  0.00  0.00     0.046 C 
HETATM   10  C   UNK N   1      31.476  41.819  54.529  0.00  0.00     0.046 C 
BRANCH   8  11
HETATM   11  C   UNK N   1      30.096  42.166  56.682  0.00  0.00     0.024 C 
HETATM   12  C   UNK N   1      31.356  42.980  57.071  0.00  0.00     0.043 C 
HETATM   13  C   UNK N   1      31.233  43.471  58.517  0.00  0.00    -0.067 C 
HETATM   14  C   UNK N   1      32.158  43.155  59.486  0.00  0.00    -0.053 C 
HETATM   15  C   UNK N   1      29.977  44.302  58.839  0.00  0.00    -0.020 C 
HETATM   16  C   UNK N   1      32.045  43.699  60.900  0.00  0.00     0.036 C 
HETATM   17  C   UNK N   1      31.101  44.895  61.024  0.00  0.00     0.005 C 
HETATM   18  C   UNK N   1      29.788  44.534  60.367  0.00  0.00     0.014 C 
HETATM   19  C   UNK N   1      28.731  43.500  58.364  0.00  0.00     0.014 C 
HETATM   20  C   UNK N   1      30.066  45.665  58.106  0.00  0.00     0.020 C 
HETATM   21  C   UNK N   1      28.825  43.029  56.907  0.00  0.00     0.009 C 
BRANCH  14  22
HETATM   22  C   UNK N   1      33.336  42.239  59.221  0.00  0.00     0.198 C 
BRANCH  22  23
HETATM   23  O   UNK N   1      34.459  42.993  58.856  0.00  0.00    -0.397 OA
HETATM   24  H   UNK N   1      35.235  42.374  58.887  0.00  0.00     0.209 HD
ENDBRANCH  22  23
ENDBRANCH  14  22
ENDBRANCH   8  11
ENDBRANCH   7   8
ENDBRANCH   2   7
BRANCH   1  25
HETATM   25  O   UNK N   1      26.986  40.064  52.266  0.00  0.00    -0.309 OA
BRANCH  25  26
HETATM   26  C   UNK N   1      26.093  39.061  52.519  0.00  0.00     0.255 C 
HETATM   27  O   UNK N   1      25.373  38.623  51.635  0.00  0.00    -0.266 OA
HETATM   28  C   UNK N   1      26.009  38.477  53.890  0.00  0.00     0.126 C 
ENDBRANCH  25  26
ENDBRANCH   1  25
BRANCH   6  29
HETATM   29  O   UNK N   1      26.519  43.181  53.974  0.00  0.00    -0.311 OA
BRANCH  29  30
HETATM   30  C   UNK N   1      25.427  43.701  54.600  0.00  0.00     0.255 C 
HETATM   31  O   UNK N   1      25.535  44.321  55.645  0.00  0.00    -0.266 OA
HETATM   32  C   UNK N   1      24.079  43.528  53.978  0.00  0.00     0.126 C 
ENDBRANCH  29  30
ENDBRANCH   6  29
BRANCH   5  33
HETATM   33  O   UNK N   1      26.799  42.263  50.506  0.00  0.00    -0.311 OA
BRANCH  33  34
HETATM   34  C   UNK N   1      25.614  42.199  49.834  0.00  0.00     0.255 C 
HETATM   35  O   UNK N   1      25.167  41.132  49.448  0.00  0.00    -0.266 OA
HETATM   36  C   UNK N   1      24.841  43.457  49.590  0.00  0.00     0.126 C 
ENDBRANCH  33  34
ENDBRANCH   5  33
TORSDOF 11
ENDMDL
MODEL 6
REMARK VINA RESULT:      -5.2      1.923      4.108
REMARK  11 active torsions:
REMARK  status: ('A' for Active; 'I' for Inactive)
REMARK    1  A    between atoms: C_2  and  O_3 
REMARK    2  A    between atoms: O_3  and  C_4 
REMARK    3  A    between atoms: C_5  and  O_6 
REMARK    4  A    between atoms: O_6  and  C_7 
REMARK    5  A    between atoms: C_7  and  C_8 
REMARK    6  A    between atoms: C_11  and  C_19 
REMARK    7  A    between atoms: C_19  and  O_20 
REMARK    8  A    between atoms: C_26  and  O_27 
REMARK    9  A    between atoms: O_27  and  C_28 
REMARK   10  A    between atoms: C_31  and  O_32 
REMARK   11  A    between atoms: O_32  and  C_33 
ROOT
HETATM    1  C   UNK N   1      26.852  53.999  41.079  0.00  0.00     0.219 C 
HETATM    2  C   UNK N   1      28.312  54.452  40.817  0.00  0.00     0.292 C 
HETATM    3  O   UNK N   1      28.395  55.343  39.711  0.00  0.00    -0.356 OA
HETATM    4  C   UNK N   1      27.628  56.514  39.930  0.00  0.00     0.206 C 
HETATM    5  C   UNK N   1      26.133  56.181  40.023  0.00  0.00     0.188 C 
HETATM    6  C   UNK N   1      25.913  55.214  41.198  0.00  0.00     0.198 C 
ENDROOT
BRANCH   2   7
HETATM    7  O   UNK N   1      28.871  55.019  42.000  0.00  0.00    -0.348 OA
BRANCH   7   8
HETATM    8  C   UNK N   1      30.297  54.927  42.139  0.00  0.00     0.061 C 
HETATM    9  C   UNK N   1      30.992  55.259  40.795  0.00  0.00     0.046 C 
HETATM   10  C   UNK N   1      30.674  56.059  43.123  0.00  0.00     0.046 C 
BRANCH   8  11
HETATM   11  C   UNK N   1      30.760  53.513  42.706  0.00  0.00     0.024 C 
HETATM   12  C   UNK N   1      31.581  52.645  41.720  0.00  0.00     0.043 C 
HETATM   13  C   UNK N   1      31.903  51.291  42.362  0.00  0.00    -0.067 C 
HETATM   14  C   UNK N   1      31.524  50.095  41.794  0.00  0.00    -0.053 C 
HETATM   15  C   UNK N   1      32.636  51.348  43.715  0.00  0.00    -0.020 C 
HETATM   16  C   UNK N   1      31.903  48.764  42.419  0.00  0.00     0.036 C 
HETATM   17  C   UNK N   1      33.034  48.866  43.443  0.00  0.00     0.005 C 
HETATM   18  C   UNK N   1      32.689  49.963  44.425  0.00  0.00     0.014 C 
HETATM   19  C   UNK N   1      31.837  52.290  44.660  0.00  0.00     0.014 C 
HETATM   20  C   UNK N   1      34.074  51.881  43.494  0.00  0.00     0.020 C 
HETATM   21  C   UNK N   1      31.534  53.661  44.043  0.00  0.00     0.009 C 
BRANCH  14  22
HETATM   22  C   UNK N   1      30.697  50.021  40.526  0.00  0.00     0.198 C 
BRANCH  22  23
HETATM   23  O   UNK N   1      29.516  49.306  40.764  0.00  0.00    -0.397 OA
HETATM   24  H   UNK N   1      29.467  49.163  41.745  0.00  0.00     0.209 HD
ENDBRANCH  22  23
ENDBRANCH  14  22
ENDBRANCH   8  11
ENDBRANCH   7   8
ENDBRANCH   2   7
BRANCH   1  25
HETATM   25  O   UNK N   1      26.421  53.158  40.063  0.00  0.00    -0.309 OA
BRANCH  25  26
HETATM   26  C   UNK N   1      27.126  52.053  39.680  0.00  0.00     0.255 C 
HETATM   27  O   UNK N   1      27.322  51.131  40.458  0.00  0.00    -0.266 OA
HETATM   28  C   UNK N   1      27.649  51.957  38.285  0.00  0.00     0.126 C 
ENDBRANCH  25  26
ENDBRANCH   1  25
BRANCH   6  29
HETATM   29  O   UNK N   1      26.181  55.875  42.389  0.00  0.00    -0.311 OA
BRANCH  29  30
HETATM   30  C   UNK N   1      25.464  56.942  42.840  0.00  0.00     0.255 C 
HETATM   31  O   UNK N   1      24.306  56.815  43.202  0.00  0.00    -0.266 OA
HETATM   32  C   UNK N   1      26.119  58.283  42.913  0.00  0.00     0.126 C 
ENDBRANCH  29  30
ENDBRANCH   6  29
BRANCH   5  33
HETATM   33  O   UNK N   1      25.722  55.601  38.831  0.00  0.00    -0.311 OA
BRANCH  33  34
HETATM   34  C   UNK N   1      25.505  56.301  37.681  0.00  0.00     0.255 C 
HETATM   35  O   UNK N   1      25.181  57.477  37.712  0.00  0.00    -0.266 OA
HETATM   36  C   UNK N   1      25.693  55.620  36.361  0.00  0.00     0.126 C 
ENDBRANCH  33  34
ENDBRANCH   5  33
TORSDOF 11
ENDMDL
MODEL 7
REMARK VINA RESULT:      -5.2     16.986     20.402
REMARK  11 active torsions:
REMARK  status: ('A' for Active; 'I' for Inactive)
REMARK    1  A    between atoms: C_2  and  O_3 
REMARK    2  A    between atoms: O_3  and  C_4 
REMARK    3  A    between atoms: C_5  and  O_6 
REMARK    4  A    between atoms: O_6  and  C_7 
REMARK    5  A    between atoms: C_7  and  C_8 
REMARK    6  A    between atoms: C_11  and  C_19 
REMARK    7  A    between atoms: C_19  and  O_20 
REMARK    8  A    between atoms: C_26  and  O_27 
REMARK    9  A    between atoms: O_27  and  C_28 
REMARK   10  A    between atoms: C_31  and  O_32 
REMARK   11  A    between atoms: O_32  and  C_33 
ROOT
HETATM    1  C   UNK N   1      28.279  41.967  56.753  0.00  0.00     0.219 C 
HETATM    2  C   UNK N   1      28.394  40.420  56.754  0.00  0.00     0.292 C 
HETATM    3  O   UNK N   1      28.415  39.894  55.433  0.00  0.00    -0.356 OA
HETATM    4  C   UNK N   1      29.515  40.393  54.693  0.00  0.00     0.206 C 
HETATM    5  C   UNK N   1      29.393  41.909  54.484  0.00  0.00     0.188 C 
HETATM    6  C   UNK N   1      29.362  42.597  55.858  0.00  0.00     0.198 C 
ENDROOT
BRANCH   2   7
HETATM    7  O   UNK N   1      29.535  40.012  57.507  0.00  0.00    -0.348 OA
BRANCH   7   8
HETATM    8  C   UNK N   1      29.282  39.522  58.833  0.00  0.00     0.061 C 
HETATM    9  C   UNK N   1      27.758  39.464  59.105  0.00  0.00     0.046 C 
HETATM   10  C   UNK N   1      29.784  38.059  58.818  0.00  0.00     0.046 C 
BRANCH   8  11
HETATM   11  C   UNK N   1      30.046  40.366  59.946  0.00  0.00     0.024 C 
HETATM   12  C   UNK N   1      30.783  41.627  59.427  0.00  0.00     0.043 C 
HETATM   13  C   UNK N   1      31.528  42.305  60.581  0.00  0.00    -0.067 C 
HETATM   14  C   UNK N   1      32.888  42.522  60.555  0.00  0.00    -0.053 C 
HETATM   15  C   UNK N   1      30.671  42.688  61.801  0.00  0.00    -0.020 C 
HETATM   16  C   UNK N   1      33.598  43.247  61.686  0.00  0.00     0.036 C 
HETATM   17  C   UNK N   1      32.657  44.037  62.596  0.00  0.00     0.005 C 
HETATM   18  C   UNK N   1      31.531  43.122  63.025  0.00  0.00     0.014 C 
HETATM   19  C   UNK N   1      29.880  41.427  62.252  0.00  0.00     0.014 C 
HETATM   20  C   UNK N   1      29.704  43.833  61.406  0.00  0.00     0.020 C 
HETATM   21  C   UNK N   1      29.101  40.754  61.115  0.00  0.00     0.009 C 
BRANCH  14  22
HETATM   22  C   UNK N   1      33.769  42.044  59.418  0.00  0.00     0.198 C 
BRANCH  22  23
HETATM   23  O   UNK N   1      34.196  43.135  58.650  0.00  0.00    -0.397 OA
HETATM   24  H   UNK N   1      34.079  43.941  59.218  0.00  0.00     0.209 HD
ENDBRANCH  22  23
ENDBRANCH  14  22
ENDBRANCH   8  11
ENDBRANCH   7   8
ENDBRANCH   2   7
BRANCH   1  25
HETATM   25  O   UNK N   1      27.018  42.353  56.323  0.00  0.00    -0.309 OA
BRANCH  25  26
HETATM   26  C   UNK N   1      26.524  43.609  56.539  0.00  0.00     0.255 C 
HETATM   27  O   UNK N   1      25.929  44.210  55.658  0.00  0.00    -0.266 OA
HETATM   28  C   UNK N   1      26.696  44.249  57.876  0.00  0.00     0.126 C 
ENDBRANCH  25  26
ENDBRANCH   1  25
BRANCH   6  29
HETATM   29  O   UNK N   1      30.598  42.445  56.472  0.00  0.00    -0.311 OA
BRANCH  29  30
HETATM   30  C   UNK N   1      31.517  43.446  56.582  0.00  0.00     0.255 C 
HETATM   31  O   UNK N   1      32.570  43.404  55.969  0.00  0.00    -0.266 OA
HETATM   32  C   UNK N   1      31.212  44.622  57.453  0.00  0.00     0.126 C 
ENDBRANCH  29  30
ENDBRANCH   6  29
BRANCH   5  33
HETATM   33  O   UNK N   1      28.228  42.178  53.778  0.00  0.00    -0.311 OA
BRANCH  33  34
HETATM   34  C   UNK N   1      28.186  42.929  52.640  0.00  0.00     0.255 C 
HETATM   35  O   UNK N   1      29.111  42.918  51.845  0.00  0.00    -0.266 OA
HETATM   36  C   UNK N   1      26.974  43.759  52.355  0.00  0.00     0.126 C 
ENDBRANCH  33  34
ENDBRANCH   5  33
TORSDOF 11
ENDMDL
MODEL 8
REMARK VINA RESULT:      -5.2     18.581     22.280
REMARK  11 active torsions:
REMARK  status: ('A' for Active; 'I' for Inactive)
REMARK    1  A    between atoms: C_2  and  O_3 
REMARK    2  A    between atoms: O_3  and  C_4 
REMARK    3  A    between atoms: C_5  and  O_6 
REMARK    4  A    between atoms: O_6  and  C_7 
REMARK    5  A    between atoms: C_7  and  C_8 
REMARK    6  A    between atoms: C_11  and  C_19 
REMARK    7  A    between atoms: C_19  and  O_20 
REMARK    8  A    between atoms: C_26  and  O_27 
REMARK    9  A    between atoms: O_27  and  C_28 
REMARK   10  A    between atoms: C_31  and  O_32 
REMARK   11  A    between atoms: O_32  and  C_33 
ROOT
HETATM    1  C   UNK N   1      30.516  44.930  60.144  0.00  0.00     0.219 C 
HETATM    2  C   UNK N   1      30.009  44.707  61.593  0.00  0.00     0.292 C 
HETATM    3  O   UNK N   1      28.890  43.829  61.629  0.00  0.00    -0.356 OA
HETATM    4  C   UNK N   1      29.212  42.555  61.099  0.00  0.00     0.206 C 
HETATM    5  C   UNK N   1      29.557  42.653  59.606  0.00  0.00     0.188 C 
HETATM    6  C   UNK N   1      30.768  43.585  59.438  0.00  0.00     0.198 C 
ENDROOT
BRANCH   2   7
HETATM    7  O   UNK N   1      31.074  44.244  62.422  0.00  0.00    -0.348 OA
BRANCH   7   8
HETATM    8  C   UNK N   1      31.721  45.231  63.240  0.00  0.00     0.061 C 
HETATM    9  C   UNK N   1      30.921  46.557  63.218  0.00  0.00     0.046 C 
HETATM   10  C   UNK N   1      31.622  44.679  64.681  0.00  0.00     0.046 C 
BRANCH   8  11
HETATM   11  C   UNK N   1      33.242  45.456  62.828  0.00  0.00     0.024 C 
HETATM   12  C   UNK N   1      34.049  46.386  63.770  0.00  0.00     0.043 C 
HETATM   13  C   UNK N   1      35.469  46.572  63.226  0.00  0.00    -0.067 C 
HETATM   14  C   UNK N   1      35.989  47.811  62.924  0.00  0.00    -0.053 C 
HETATM   15  C   UNK N   1      36.271  45.279  62.986  0.00  0.00    -0.020 C 
HETATM   16  C   UNK N   1      37.419  47.976  62.440  0.00  0.00     0.036 C 
HETATM   17  C   UNK N   1      38.302  46.757  62.707  0.00  0.00     0.005 C 
HETATM   18  C   UNK N   1      37.586  45.528  62.192  0.00  0.00     0.014 C 
HETATM   19  C   UNK N   1      35.407  44.329  62.107  0.00  0.00     0.014 C 
HETATM   20  C   UNK N   1      36.596  44.621  64.351  0.00  0.00     0.020 C 
HETATM   21  C   UNK N   1      33.991  44.108  62.656  0.00  0.00     0.009 C 
BRANCH  14  22
HETATM   22  C   UNK N   1      35.176  49.085  63.038  0.00  0.00     0.198 C 
BRANCH  22  23
HETATM   23  O   UNK N   1      35.403  49.692  64.280  0.00  0.00    -0.397 OA
HETATM   24  H   UNK N   1      34.914  49.149  64.951  0.00  0.00     0.209 HD
ENDBRANCH  22  23
ENDBRANCH  14  22
ENDBRANCH   8  11
ENDBRANCH   7   8
ENDBRANCH   2   7
BRANCH   1  25
HETATM   25  O   UNK N   1      29.600  45.684  59.427  0.00  0.00    -0.309 OA
BRANCH  25  26
HETATM   26  C   UNK N   1      29.883  46.941  58.971  0.00  0.00     0.255 C 
HETATM   27  O   UNK N   1      29.695  47.922  59.674  0.00  0.00    -0.266 OA
HETATM   28  C   UNK N   1      30.453  47.118  57.603  0.00  0.00     0.126 C 
ENDBRANCH  25  26
ENDBRANCH   1  25
BRANCH   6  29
HETATM   29  O   UNK N   1      31.887  42.984  59.998  0.00  0.00    -0.311 OA
BRANCH  29  30
HETATM   30  C   UNK N   1      33.011  42.671  59.294  0.00  0.00     0.255 C 
HETATM   31  O   UNK N   1      33.275  43.236  58.246  0.00  0.00    -0.266 OA
HETATM   32  C   UNK N   1      33.943  41.634  59.831  0.00  0.00     0.126 C 
ENDBRANCH  29  30
ENDBRANCH   6  29
BRANCH   5  33
HETATM   33  O   UNK N   1      28.459  43.152  58.919  0.00  0.00    -0.311 OA
BRANCH  33  34
HETATM   34  C   UNK N   1      27.274  42.487  58.797  0.00  0.00     0.255 C 
HETATM   35  O   UNK N   1      26.242  42.954  59.249  0.00  0.00    -0.266 OA
HETATM   36  C   UNK N   1      27.240  41.177  58.075  0.00  0.00     0.126 C 
ENDBRANCH  33  34
ENDBRANCH   5  33
TORSDOF 11
ENDMDL
MODEL 9
REMARK VINA RESULT:      -5.1     25.529     28.407
REMARK  11 active torsions:
REMARK  status: ('A' for Active; 'I' for Inactive)
REMARK    1  A    between atoms: C_2  and  O_3 
REMARK    2  A    between atoms: O_3  and  C_4 
REMARK    3  A    between atoms: C_5  and  O_6 
REMARK    4  A    between atoms: O_6  and  C_7 
REMARK    5  A    between atoms: C_7  and  C_8 
REMARK    6  A    between atoms: C_11  and  C_19 
REMARK    7  A    between atoms: C_19  and  O_20 
REMARK    8  A    between atoms: C_26  and  O_27 
REMARK    9  A    between atoms: O_27  and  C_28 
REMARK   10  A    between atoms: C_31  and  O_32 
REMARK   11  A    between atoms: O_32  and  C_33 
ROOT
HETATM    1  C   UNK N   1      48.129  50.331  60.859  0.00  0.00     0.219 C 
HETATM    2  C   UNK N   1      48.442  49.981  62.337  0.00  0.00     0.292 C 
HETATM    3  O   UNK N   1      49.403  48.938  62.439  0.00  0.00    -0.356 OA
HETATM    4  C   UNK N   1      50.629  49.301  61.829  0.00  0.00     0.206 C 
HETATM    5  C   UNK N   1      50.453  49.494  60.317  0.00  0.00     0.188 C 
HETATM    6  C   UNK N   1      49.426  50.613  60.077  0.00  0.00     0.198 C 
ENDROOT
BRANCH   2   7
HETATM    7  O   UNK N   1      48.849  51.151  63.045  0.00  0.00    -0.348 OA
BRANCH   7   8
HETATM    8  C   UNK N   1      47.946  51.636  64.049  0.00  0.00     0.061 C 
HETATM    9  C   UNK N   1      46.884  50.560  64.385  0.00  0.00     0.046 C 
HETATM   10  C   UNK N   1      48.816  51.809  65.316  0.00  0.00     0.046 C 
BRANCH   8  11
HETATM   11  C   UNK N   1      47.271  53.019  63.639  0.00  0.00     0.024 C 
HETATM   12  C   UNK N   1      46.035  52.899  62.711  0.00  0.00     0.043 C 
HETATM   13  C   UNK N   1      45.526  54.296  62.340  0.00  0.00    -0.067 C 
HETATM   14  C   UNK N   1      45.424  54.722  61.034  0.00  0.00    -0.053 C 
HETATM   15  C   UNK N   1      45.182  55.221  63.521  0.00  0.00    -0.020 C 
HETATM   16  C   UNK N   1      44.863  56.090  60.687  0.00  0.00     0.036 C 
HETATM   17  C   UNK N   1      44.081  56.741  61.828  0.00  0.00     0.005 C 
HETATM   18  C   UNK N   1      44.932  56.693  63.077  0.00  0.00     0.014 C 
HETATM   19  C   UNK N   1      46.407  55.260  64.479  0.00  0.00     0.014 C 
HETATM   20  C   UNK N   1      43.930  54.672  64.251  0.00  0.00     0.020 C 
HETATM   21  C   UNK N   1      46.909  53.868  64.887  0.00  0.00     0.009 C 
BRANCH  14  22
HETATM   22  C   UNK N   1      45.871  53.871  59.862  0.00  0.00     0.198 C 
BRANCH  22  23
HETATM   23  O   UNK N   1      46.558  54.661  58.930  0.00  0.00    -0.397 OA
HETATM   24  H   UNK N   1      46.159  54.460  58.044  0.00  0.00     0.209 HD
ENDBRANCH  22  23
ENDBRANCH  14  22
ENDBRANCH   8  11
ENDBRANCH   7   8
ENDBRANCH   2   7
BRANCH   1  25
HETATM   25  O   UNK N   1      47.424  49.298  60.260  0.00  0.00    -0.309 OA
BRANCH  25  26
HETATM   26  C   UNK N   1      46.239  48.836  60.760  0.00  0.00     0.255 C 
HETATM   27  O   UNK N   1      46.104  47.664  61.076  0.00  0.00    -0.266 OA
HETATM   28  C   UNK N   1      45.098  49.781  60.945  0.00  0.00     0.126 C 
ENDBRANCH  25  26
ENDBRANCH   1  25
BRANCH   6  29
HETATM   29  O   UNK N   1      49.958  51.821  60.506  0.00  0.00    -0.311 OA
BRANCH  29  30
HETATM   30  C   UNK N   1      49.532  53.036  60.062  0.00  0.00     0.255 C 
HETATM   31  O   UNK N   1      49.209  53.204  58.898  0.00  0.00    -0.266 OA
HETATM   32  C   UNK N   1      49.438  54.174  61.027  0.00  0.00     0.126 C 
ENDBRANCH  29  30
ENDBRANCH   6  29
BRANCH   5  33
HETATM   33  O   UNK N   1      50.017  48.303  59.754  0.00  0.00    -0.311 OA
BRANCH  33  34
HETATM   34  C   UNK N   1      50.843  47.404  59.145  0.00  0.00     0.255 C 
HETATM   35  O   UNK N   1      51.218  46.400  59.726  0.00  0.00    -0.266 OA
HETATM   36  C   UNK N   1      51.273  47.646  57.731  0.00  0.00     0.126 C 
ENDBRANCH  33  34
ENDBRANCH   5  33
TORSDOF 11
ENDMDL
