MODEL 1
REMARK VINA RESULT:      -5.6      0.000      0.000
REMARK  2 active torsions:
REMARK  status: ('A' for Active; 'I' for Inactive)
REMARK    1  A    between atoms: C_5  and  C_7 
REMARK    2  A    between atoms: C_7  and  O_27 
ROOT
HETATM    1  C   UNK N   1      30.360  54.882  41.936  0.00  0.00     0.187 C 
HETATM    2  O   UNK N   1      29.987  53.657  41.295  0.00  0.00    -0.348 OA
HETATM    3  C   UNK N   1      29.473  53.825  39.976  0.00  0.00     0.127 C 
HETATM    4  C   UNK N   1      30.546  54.469  39.077  0.00  0.00     0.065 C 
HETATM    5  C   UNK N   1      30.910  55.859  39.635  0.00  0.00     0.140 C 
HETATM    6  O   UNK N   1      29.798  56.683  39.644  0.00  0.00    -0.312 OA
HETATM    7  C   UNK N   1      29.096  56.940  38.520  0.00  0.00     0.283 C 
HETATM    8  O   UNK N   1      29.664  56.997  37.439  0.00  0.00    -0.260 OA
HETATM    9  C   UNK N   1      27.628  56.939  38.629  0.00  0.00     0.084 C 
HETATM   10  C   UNK N   1      26.774  56.443  37.702  0.00  0.00    -0.078 C 
HETATM   11  C   UNK N   1      25.295  56.445  38.008  0.00  0.00     0.038 C 
HETATM   12  C   UNK N   1      24.942  55.567  39.223  0.00  0.00     0.031 C 
HETATM   13  C   UNK N   1      25.376  54.136  39.010  0.00  0.00    -0.030 C 
HETATM   14  C   UNK N   1      26.088  53.454  39.939  0.00  0.00    -0.026 C 
HETATM   15  C   UNK N   1      26.509  51.995  39.786  0.00  0.00     0.004 C 
HETATM   16  C   UNK N   1      27.985  51.712  40.193  0.00  0.00     0.010 C 
HETATM   17  C   UNK N   1      29.109  52.434  39.415  0.00  0.00     0.033 C 
HETATM   18  C   UNK N   1      26.200  51.387  38.401  0.00  0.00     0.014 C 
HETATM   19  C   UNK N   1      27.203  55.790  36.402  0.00  0.00     0.043 C 
HETATM   20  C   UNK N   1      31.407  55.654  41.062  0.00  0.00     0.103 C 
ENDROOT
BRANCH   1  21
HETATM   21  C   UNK N   1      31.030  54.503  43.304  0.00  0.00     0.157 C 
HETATM   22  N   UNK N   1      31.438  53.127  43.362  0.00  0.00    -0.341 N 
HETATM   23  C   UNK N   1      32.517  52.902  44.124  0.00  0.00     0.280 C 
HETATM   24  H   UNK N   1      30.896  52.357  42.936  0.00  0.00     0.163 HD
HETATM   25  S   UNK N   1      33.229  54.341  44.904  0.00  0.00    -0.067 SA
HETATM   26  O   UNK N   1      32.962  51.781  44.294  0.00  0.00    -0.260 OA
HETATM   27  C   UNK N   1      32.291  55.318  43.674  0.00  0.00     0.114 C 
ENDBRANCH   1  21
BRANCH   1  28
HETATM   28  O   UNK N   1      29.225  55.725  42.135  0.00  0.00    -0.358 OA
HETATM   29  C   UNK N   1      28.131  55.059  42.740  0.00  0.00     0.205 C 
ENDBRANCH   1  28
TORSDOF 2
ENDMDL
MODEL 2
REMARK VINA RESULT:      -5.5      1.736      3.012
REMARK  2 active torsions:
REMARK  status: ('A' for Active; 'I' for Inactive)
REMARK    1  A    between atoms: C_5  and  C_7 
REMARK    2  A    between atoms: C_7  and  O_27 
ROOT
HETATM    1  C   UNK N   1      30.525  54.085  41.901  0.00  0.00     0.187 C 
HETATM    2  O   UNK N   1      29.123  54.242  42.144  0.00  0.00    -0.348 OA
HETATM    3  C   UNK N   1      28.324  54.232  40.965  0.00  0.00     0.127 C 
HETATM    4  C   UNK N   1      28.483  52.883  40.238  0.00  0.00     0.065 C 
HETATM    5  C   UNK N   1      29.957  52.698  39.826  0.00  0.00     0.140 C 
HETATM    6  O   UNK N   1      30.347  53.706  38.961  0.00  0.00    -0.312 OA
HETATM    7  C   UNK N   1      29.695  53.939  37.803  0.00  0.00     0.283 C 
HETATM    8  O   UNK N   1      29.190  53.014  37.183  0.00  0.00    -0.260 OA
HETATM    9  C   UNK N   1      29.448  55.345  37.441  0.00  0.00     0.084 C 
HETATM   10  C   UNK N   1      28.317  55.819  36.867  0.00  0.00    -0.078 C 
HETATM   11  C   UNK N   1      28.191  57.306  36.637  0.00  0.00     0.038 C 
HETATM   12  C   UNK N   1      28.204  58.110  37.951  0.00  0.00     0.031 C 
HETATM   13  C   UNK N   1      27.084  57.679  38.869  0.00  0.00    -0.030 C 
HETATM   14  C   UNK N   1      27.296  57.381  40.172  0.00  0.00    -0.026 C 
HETATM   15  C   UNK N   1      26.189  56.985  41.146  0.00  0.00     0.004 C 
HETATM   16  C   UNK N   1      26.543  55.771  42.054  0.00  0.00     0.010 C 
HETATM   17  C   UNK N   1      26.847  54.416  41.376  0.00  0.00     0.033 C 
HETATM   18  C   UNK N   1      24.806  56.789  40.488  0.00  0.00     0.014 C 
HETATM   19  C   UNK N   1      27.110  54.968  36.518  0.00  0.00     0.043 C 
HETATM   20  C   UNK N   1      30.791  52.764  41.100  0.00  0.00     0.103 C 
ENDROOT
BRANCH   1  21
HETATM   21  C   UNK N   1      31.229  53.975  43.299  0.00  0.00     0.157 C 
HETATM   22  N   UNK N   1      31.883  52.712  43.496  0.00  0.00    -0.341 N 
HETATM   23  C   UNK N   1      32.972  52.768  44.275  0.00  0.00     0.280 C 
HETATM   24  H   UNK N   1      31.501  51.816  43.151  0.00  0.00     0.163 HD
HETATM   25  S   UNK N   1      33.392  54.385  44.904  0.00  0.00    -0.067 SA
HETATM   26  O   UNK N   1      33.613  51.772  44.558  0.00  0.00    -0.260 OA
HETATM   27  C   UNK N   1      32.311  55.043  43.583  0.00  0.00     0.114 C 
ENDBRANCH   1  21
BRANCH   1  28
HETATM   28  O   UNK N   1      31.043  55.183  41.149  0.00  0.00    -0.358 OA
HETATM   29  C   UNK N   1      30.375  56.404  41.409  0.00  0.00     0.205 C 
ENDBRANCH   1  28
TORSDOF 2
ENDMDL
MODEL 3
REMARK VINA RESULT:      -5.4      2.356      4.348
REMARK  2 active torsions:
REMARK  status: ('A' for Active; 'I' for Inactive)
REMARK    1  A    between atoms: C_5  and  C_7 
REMARK    2  A    between atoms: C_7  and  O_27 
ROOT
HETATM    1  C   UNK N   1      29.745  52.264  40.216  0.00  0.00     0.187 C 
HETATM    2  O   UNK N   1      29.474  53.251  41.216  0.00  0.00    -0.348 OA
HETATM    3  C   UNK N   1      28.319  54.044  40.952  0.00  0.00     0.127 C 
HETATM    4  C   UNK N   1      27.071  53.144  40.890  0.00  0.00     0.065 C 
HETATM    5  C   UNK N   1      27.233  52.128  39.742  0.00  0.00     0.140 C 
HETATM    6  O   UNK N   1      27.357  52.784  38.530  0.00  0.00    -0.312 OA
HETATM    7  C   UNK N   1      26.416  53.647  38.091  0.00  0.00     0.283 C 
HETATM    8  O   UNK N   1      25.238  53.465  38.363  0.00  0.00    -0.260 OA
HETATM    9  C   UNK N   1      26.888  54.895  37.468  0.00  0.00     0.084 C 
HETATM   10  C   UNK N   1      26.322  56.114  37.630  0.00  0.00    -0.078 C 
HETATM   11  C   UNK N   1      26.982  57.309  36.984  0.00  0.00     0.038 C 
HETATM   12  C   UNK N   1      28.395  57.573  37.535  0.00  0.00     0.031 C 
HETATM   13  C   UNK N   1      28.369  57.801  39.028  0.00  0.00    -0.030 C 
HETATM   14  C   UNK N   1      29.206  57.150  39.870  0.00  0.00    -0.026 C 
HETATM   15  C   UNK N   1      29.244  57.381  41.379  0.00  0.00     0.004 C 
HETATM   16  C   UNK N   1      29.317  56.074  42.222  0.00  0.00     0.010 C 
HETATM   17  C   UNK N   1      28.155  55.062  42.101  0.00  0.00     0.033 C 
HETATM   18  C   UNK N   1      28.130  58.310  41.907  0.00  0.00     0.014 C 
HETATM   19  C   UNK N   1      25.112  56.390  38.503  0.00  0.00     0.043 C 
HETATM   20  C   UNK N   1      28.501  51.330  40.025  0.00  0.00     0.103 C 
ENDROOT
BRANCH   1  21
HETATM   21  C   UNK N   1      30.949  51.400  40.732  0.00  0.00     0.157 C 
HETATM   22  N   UNK N   1      31.505  51.897  41.959  0.00  0.00    -0.341 N 
HETATM   23  C   UNK N   1      32.020  50.951  42.757  0.00  0.00     0.280 C 
HETATM   24  H   UNK N   1      31.593  52.904  42.174  0.00  0.00     0.163 HD
HETATM   25  S   UNK N   1      31.910  49.278  42.145  0.00  0.00    -0.067 SA
HETATM   26  O   UNK N   1      32.555  51.224  43.816  0.00  0.00    -0.260 OA
HETATM   27  C   UNK N   1      30.628  49.911  41.004  0.00  0.00     0.114 C 
ENDBRANCH   1  21
BRANCH   1  28
HETATM   28  O   UNK N   1      30.051  52.875  38.961  0.00  0.00    -0.358 OA
HETATM   29  C   UNK N   1      31.007  53.914  39.062  0.00  0.00     0.205 C 
ENDBRANCH   1  28
TORSDOF 2
ENDMDL
MODEL 4
REMARK VINA RESULT:      -5.1     17.582     21.893
REMARK  2 active torsions:
REMARK  status: ('A' for Active; 'I' for Inactive)
REMARK    1  A    between atoms: C_5  and  C_7 
REMARK    2  A    between atoms: C_7  and  O_27 
ROOT
HETATM    1  C   UNK N   1      29.811  42.351  56.252  0.00  0.00     0.187 C 
HETATM    2  O   UNK N   1      29.232  43.588  56.679  0.00  0.00    -0.348 OA
HETATM    3  C   UNK N   1      29.852  44.152  57.832  0.00  0.00     0.127 C 
HETATM    4  C   UNK N   1      31.332  44.455  57.532  0.00  0.00     0.065 C 
HETATM    5  C   UNK N   1      32.060  43.141  57.186  0.00  0.00     0.140 C 
HETATM    6  O   UNK N   1      32.003  42.261  58.253  0.00  0.00    -0.312 OA
HETATM    7  C   UNK N   1      32.468  42.596  59.475  0.00  0.00     0.283 C 
HETATM    8  O   UNK N   1      33.430  43.342  59.584  0.00  0.00    -0.260 OA
HETATM    9  C   UNK N   1      31.653  42.201  60.636  0.00  0.00     0.084 C 
HETATM   10  C   UNK N   1      31.453  42.952  61.744  0.00  0.00    -0.078 C 
HETATM   11  C   UNK N   1      30.519  42.432  62.811  0.00  0.00     0.038 C 
HETATM   12  C   UNK N   1      29.073  42.275  62.305  0.00  0.00     0.031 C 
HETATM   13  C   UNK N   1      28.523  43.588  61.799  0.00  0.00    -0.030 C 
HETATM   14  C   UNK N   1      27.912  43.697  60.595  0.00  0.00    -0.026 C 
HETATM   15  C   UNK N   1      27.304  44.992  60.063  0.00  0.00     0.004 C 
HETATM   16  C   UNK N   1      27.640  45.289  58.572  0.00  0.00     0.010 C 
HETATM   17  C   UNK N   1      29.125  45.469  58.180  0.00  0.00     0.033 C 
HETATM   18  C   UNK N   1      27.582  46.231  60.941  0.00  0.00     0.014 C 
HETATM   19  C   UNK N   1      32.028  44.339  61.957  0.00  0.00     0.043 C 
HETATM   20  C   UNK N   1      31.345  42.535  55.984  0.00  0.00     0.103 C 
ENDROOT
BRANCH   1  21
HETATM   21  C   UNK N   1      29.110  41.952  54.906  0.00  0.00     0.157 C 
HETATM   22  N   UNK N   1      28.034  42.836  54.555  0.00  0.00    -0.341 N 
HETATM   23  C   UNK N   1      27.845  42.981  53.236  0.00  0.00     0.280 C 
HETATM   24  H   UNK N   1      27.393  43.253  55.251  0.00  0.00     0.163 HD
HETATM   25  S   UNK N   1      28.957  42.061  52.188  0.00  0.00    -0.067 SA
HETATM   26  O   UNK N   1      26.949  43.675  52.787  0.00  0.00    -0.260 OA
HETATM   27  C   UNK N   1      30.030  41.917  53.663  0.00  0.00     0.114 C 
ENDBRANCH   1  21
BRANCH   1  28
HETATM   28  O   UNK N   1      29.643  41.335  57.241  0.00  0.00    -0.358 OA
HETATM   29  C   UNK N   1      29.249  40.087  56.701  0.00  0.00     0.205 C 
ENDBRANCH   1  28
TORSDOF 2
ENDMDL
MODEL 5
REMARK VINA RESULT:      -5.0     16.958     20.462
REMARK  2 active torsions:
REMARK  status: ('A' for Active; 'I' for Inactive)
REMARK    1  A    between atoms: C_5  and  C_7 
REMARK    2  A    between atoms: C_7  and  O_27 
ROOT
HETATM    1  C   UNK N   1      26.995  41.740  52.261  0.00  0.00     0.187 C 
HETATM    2  O   UNK N   1      26.058  40.673  52.448  0.00  0.00    -0.348 OA
HETATM    3  C   UNK N   1      26.202  39.985  53.688  0.00  0.00     0.127 C 
HETATM    4  C   UNK N   1      25.976  40.963  54.857  0.00  0.00     0.065 C 
HETATM    5  C   UNK N   1      27.037  42.079  54.798  0.00  0.00     0.140 C 
HETATM    6  O   UNK N   1      28.308  41.545  54.917  0.00  0.00    -0.312 OA
HETATM    7  C   UNK N   1      28.664  40.791  55.979  0.00  0.00     0.283 C 
HETATM    8  O   UNK N   1      28.189  41.018  57.082  0.00  0.00    -0.260 OA
HETATM    9  C   UNK N   1      29.469  39.588  55.709  0.00  0.00     0.084 C 
HETATM   10  C   UNK N   1      29.328  38.396  56.335  0.00  0.00    -0.078 C 
HETATM   11  C   UNK N   1      30.180  37.235  55.880  0.00  0.00     0.038 C 
HETATM   12  C   UNK N   1      29.895  36.829  54.422  0.00  0.00     0.031 C 
HETATM   13  C   UNK N   1      28.444  36.450  54.232  0.00  0.00    -0.030 C 
HETATM   14  C   UNK N   1      27.694  36.958  53.225  0.00  0.00    -0.026 C 
HETATM   15  C   UNK N   1      26.239  36.571  52.969  0.00  0.00     0.004 C 
HETATM   16  C   UNK N   1      25.303  37.777  52.665  0.00  0.00     0.010 C 
HETATM   17  C   UNK N   1      25.140  38.866  53.749  0.00  0.00     0.033 C 
HETATM   18  C   UNK N   1      25.623  35.664  54.056  0.00  0.00     0.014 C 
HETATM   19  C   UNK N   1      28.298  38.107  57.411  0.00  0.00     0.043 C 
HETATM   20  C   UNK N   1      26.893  42.763  53.444  0.00  0.00     0.103 C 
ENDROOT
BRANCH   1  21
HETATM   21  C   UNK N   1      26.605  42.470  50.928  0.00  0.00     0.157 C 
HETATM   22  N   UNK N   1      26.360  41.559  49.845  0.00  0.00    -0.341 N 
HETATM   23  C   UNK N   1      25.452  41.986  48.958  0.00  0.00     0.280 C 
HETATM   24  H   UNK N   1      26.903  40.692  49.701  0.00  0.00     0.163 HD
HETATM   25  S   UNK N   1      24.729  43.583  49.295  0.00  0.00    -0.067 SA
HETATM   26  O   UNK N   1      25.163  41.335  47.969  0.00  0.00    -0.260 OA
HETATM   27  C   UNK N   1      25.342  43.360  51.004  0.00  0.00     0.114 C 
ENDBRANCH   1  21
BRANCH   1  28
HETATM   28  O   UNK N   1      28.333  41.244  52.204  0.00  0.00    -0.358 OA
HETATM   29  C   UNK N   1      29.273  42.216  51.785  0.00  0.00     0.205 C 
ENDBRANCH   1  28
TORSDOF 2
ENDMDL
MODEL 6
REMARK VINA RESULT:      -4.7     19.722     22.533
REMARK  2 active torsions:
REMARK  status: ('A' for Active; 'I' for Inactive)
REMARK    1  A    between atoms: C_5  and  C_7 
REMARK    2  A    between atoms: C_7  and  O_27 
ROOT
HETATM    1  C   UNK N   1      28.911  41.128  55.725  0.00  0.00     0.187 C 
HETATM    2  O   UNK N   1      28.440  40.492  56.918  0.00  0.00    -0.348 OA
HETATM    3  C   UNK N   1      28.659  41.249  58.105  0.00  0.00     0.127 C 
HETATM    4  C   UNK N   1      27.910  42.592  58.013  0.00  0.00     0.065 C 
HETATM    5  C   UNK N   1      28.457  43.398  56.818  0.00  0.00     0.140 C 
HETATM    6  O   UNK N   1      29.805  43.662  56.989  0.00  0.00    -0.312 OA
HETATM    7  C   UNK N   1      30.268  44.310  58.078  0.00  0.00     0.283 C 
HETATM    8  O   UNK N   1      29.590  45.174  58.616  0.00  0.00    -0.260 OA
HETATM    9  C   UNK N   1      31.503  43.795  58.693  0.00  0.00     0.084 C 
HETATM   10  C   UNK N   1      31.744  43.721  60.023  0.00  0.00    -0.078 C 
HETATM   11  C   UNK N   1      33.033  43.087  60.490  0.00  0.00     0.038 C 
HETATM   12  C   UNK N   1      33.136  41.601  60.097  0.00  0.00     0.031 C 
HETATM   13  C   UNK N   1      31.986  40.803  60.664  0.00  0.00    -0.030 C 
HETATM   14  C   UNK N   1      31.250  39.960  59.902  0.00  0.00    -0.026 C 
HETATM   15  C   UNK N   1      30.109  39.100  60.441  0.00  0.00     0.004 C 
HETATM   16  C   UNK N   1      28.835  39.099  59.546  0.00  0.00     0.010 C 
HETATM   17  C   UNK N   1      28.112  40.444  59.303  0.00  0.00     0.033 C 
HETATM   18  C   UNK N   1      29.741  39.386  61.913  0.00  0.00     0.014 C 
HETATM   19  C   UNK N   1      30.763  44.148  61.098  0.00  0.00     0.043 C 
HETATM   20  C   UNK N   1      28.256  42.544  55.572  0.00  0.00     0.103 C 
ENDROOT
BRANCH   1  21
HETATM   21  C   UNK N   1      28.464  40.233  54.516  0.00  0.00     0.157 C 
HETATM   22  N   UNK N   1      28.838  38.856  54.674  0.00  0.00    -0.341 N 
HETATM   23  C   UNK N   1      27.996  37.985  54.100  0.00  0.00     0.280 C 
HETATM   24  H   UNK N   1      29.726  38.556  55.108  0.00  0.00     0.163 HD
HETATM   25  S   UNK N   1      26.591  38.701  53.264  0.00  0.00    -0.067 SA
HETATM   26  O   UNK N   1      28.199  36.784  54.124  0.00  0.00    -0.260 OA
HETATM   27  C   UNK N   1      26.944  40.213  54.231  0.00  0.00     0.114 C 
ENDBRANCH   1  21
BRANCH   1  28
HETATM   28  O   UNK N   1      30.330  41.286  55.752  0.00  0.00    -0.358 OA
HETATM   29  C   UNK N   1      30.877  41.660  54.501  0.00  0.00     0.205 C 
ENDBRANCH   1  28
TORSDOF 2
ENDMDL
MODEL 7
REMARK VINA RESULT:      -4.6     20.299     23.554
REMARK  2 active torsions:
REMARK  status: ('A' for Active; 'I' for Inactive)
REMARK    1  A    between atoms: C_5  and  C_7 
REMARK    2  A    between atoms: C_7  and  O_27 
ROOT
HETATM    1  C   UNK N   1      29.785  40.495  59.338  0.00  0.00     0.187 C 
HETATM    2  O   UNK N   1      30.295  41.540  58.502  0.00  0.00    -0.348 OA
HETATM    3  C   UNK N   1      30.920  42.603  59.217  0.00  0.00     0.127 C 
HETATM    4  C   UNK N   1      32.125  42.060  60.008  0.00  0.00     0.065 C 
HETATM    5  C   UNK N   1      31.636  41.014  61.028  0.00  0.00     0.140 C 
HETATM    6  O   UNK N   1      30.751  41.589  61.924  0.00  0.00    -0.312 OA
HETATM    7  C   UNK N   1      31.094  42.659  62.671  0.00  0.00     0.283 C 
HETATM    8  O   UNK N   1      32.245  42.799  63.056  0.00  0.00    -0.260 OA
HETATM    9  C   UNK N   1      30.089  43.726  62.817  0.00  0.00     0.084 C 
HETATM   10  C   UNK N   1      30.351  45.054  62.819  0.00  0.00    -0.078 C 
HETATM   11  C   UNK N   1      29.192  46.020  62.896  0.00  0.00     0.038 C 
HETATM   12  C   UNK N   1      28.254  45.914  61.680  0.00  0.00     0.031 C 
HETATM   13  C   UNK N   1      28.997  46.172  60.389  0.00  0.00    -0.030 C 
HETATM   14  C   UNK N   1      28.899  45.342  59.324  0.00  0.00    -0.026 C 
HETATM   15  C   UNK N   1      29.595  45.587  57.988  0.00  0.00     0.004 C 
HETATM   16  C   UNK N   1      30.281  44.325  57.386  0.00  0.00     0.010 C 
HETATM   17  C   UNK N   1      31.411  43.652  58.197  0.00  0.00     0.033 C 
HETATM   18  C   UNK N   1      30.567  46.787  57.989  0.00  0.00     0.014 C 
HETATM   19  C   UNK N   1      31.733  45.656  62.652  0.00  0.00     0.043 C 
HETATM   20  C   UNK N   1      30.929  39.917  60.241  0.00  0.00     0.103 C 
ENDROOT
BRANCH   1  21
HETATM   21  C   UNK N   1      29.267  39.356  58.391  0.00  0.00     0.157 C 
HETATM   22  N   UNK N   1      29.280  39.734  57.006  0.00  0.00    -0.341 N 
HETATM   23  C   UNK N   1      29.493  38.719  56.157  0.00  0.00     0.280 C 
HETATM   24  H   UNK N   1      29.050  40.686  56.676  0.00  0.00     0.163 HD
HETATM   25  S   UNK N   1      29.721  37.115  56.908  0.00  0.00    -0.067 SA
HETATM   26  O   UNK N   1      29.501  38.880  54.950  0.00  0.00    -0.260 OA
HETATM   27  C   UNK N   1      30.056  38.027  58.458  0.00  0.00     0.114 C 
ENDBRANCH   1  21
BRANCH   1  28
HETATM   28  O   UNK N   1      28.739  40.977  60.183  0.00  0.00    -0.358 OA
HETATM   29  C   UNK N   1      27.659  40.071  60.310  0.00  0.00     0.205 C 
ENDBRANCH   1  28
TORSDOF 2
ENDMDL
MODEL 8
REMARK VINA RESULT:      -4.5      2.269      3.988
REMARK  2 active torsions:
REMARK  status: ('A' for Active; 'I' for Inactive)
REMARK    1  A    between atoms: C_5  and  C_7 
REMARK    2  A    between atoms: C_7  and  O_27 
ROOT
HETATM    1  C   UNK N   1      29.511  54.371  41.094  0.00  0.00     0.187 C 
HETATM    2  O   UNK N   1      28.524  55.090  41.840  0.00  0.00    -0.348 OA
HETATM    3  C   UNK N   1      27.279  55.242  41.162  0.00  0.00     0.127 C 
HETATM    4  C   UNK N   1      26.671  53.856  40.873  0.00  0.00     0.065 C 
HETATM    5  C   UNK N   1      27.626  53.062  39.960  0.00  0.00     0.140 C 
HETATM    6  O   UNK N   1      27.802  53.720  38.755  0.00  0.00    -0.312 OA
HETATM    7  C   UNK N   1      26.757  54.039  37.962  0.00  0.00     0.283 C 
HETATM    8  O   UNK N   1      25.775  53.312  37.915  0.00  0.00    -0.260 OA
HETATM    9  C   UNK N   1      26.770  55.372  37.336  0.00  0.00     0.084 C 
HETATM   10  C   UNK N   1      25.689  56.171  37.173  0.00  0.00    -0.078 C 
HETATM   11  C   UNK N   1      25.890  57.548  36.585  0.00  0.00     0.038 C 
HETATM   12  C   UNK N   1      26.778  58.443  37.470  0.00  0.00     0.031 C 
HETATM   13  C   UNK N   1      26.191  58.603  38.853  0.00  0.00    -0.030 C 
HETATM   14  C   UNK N   1      26.927  58.414  39.973  0.00  0.00    -0.026 C 
HETATM   15  C   UNK N   1      26.388  58.607  41.389  0.00  0.00     0.004 C 
HETATM   16  C   UNK N   1      26.788  57.477  42.383  0.00  0.00     0.010 C 
HETATM   17  C   UNK N   1      26.321  56.036  42.075  0.00  0.00     0.033 C 
HETATM   18  C   UNK N   1      24.871  58.882  41.458  0.00  0.00     0.014 C 
HETATM   19  C   UNK N   1      24.285  55.820  37.629  0.00  0.00     0.043 C 
HETATM   20  C   UNK N   1      28.961  52.960  40.688  0.00  0.00     0.103 C 
ENDROOT
BRANCH   1  21
HETATM   21  C   UNK N   1      30.751  54.175  42.035  0.00  0.00     0.157 C 
HETATM   22  N   UNK N   1      30.552  54.736  43.342  0.00  0.00    -0.341 N 
HETATM   23  C   UNK N   1      31.196  54.091  44.325  0.00  0.00     0.280 C 
HETATM   24  H   UNK N   1      30.039  55.616  43.509  0.00  0.00     0.163 HD
HETATM   25  S   UNK N   1      32.160  52.675  43.821  0.00  0.00    -0.067 SA
HETATM   26  O   UNK N   1      31.148  54.468  45.482  0.00  0.00    -0.260 OA
HETATM   27  C   UNK N   1      31.173  52.707  42.281  0.00  0.00     0.114 C 
ENDBRANCH   1  21
BRANCH   1  28
HETATM   28  O   UNK N   1      29.873  55.076  39.906  0.00  0.00    -0.358 OA
HETATM   29  C   UNK N   1      31.032  54.560  39.279  0.00  0.00     0.205 C 
ENDBRANCH   1  28
TORSDOF 2
ENDMDL
MODEL 9
REMARK VINA RESULT:      -4.5     18.763     22.058
REMARK  2 active torsions:
REMARK  status: ('A' for Active; 'I' for Inactive)
REMARK    1  A    between atoms: C_5  and  C_7 
REMARK    2  A    between atoms: C_7  and  O_27 
ROOT
HETATM    1  C   UNK N   1      29.345  42.809  57.861  0.00  0.00     0.187 C 
HETATM    2  O   UNK N   1      29.603  44.164  57.480  0.00  0.00    -0.348 OA
HETATM    3  C   UNK N   1      30.357  44.904  58.436  0.00  0.00     0.127 C 
HETATM    4  C   UNK N   1      31.736  44.245  58.634  0.00  0.00     0.065 C 
HETATM    5  C   UNK N   1      31.543  42.814  59.172  0.00  0.00     0.140 C 
HETATM    6  O   UNK N   1      30.895  42.840  60.394  0.00  0.00    -0.312 OA
HETATM    7  C   UNK N   1      31.384  43.535  61.442  0.00  0.00     0.283 C 
HETATM    8  O   UNK N   1      32.591  43.652  61.595  0.00  0.00    -0.260 OA
HETATM    9  C   UNK N   1      30.419  44.300  62.250  0.00  0.00     0.084 C 
HETATM   10  C   UNK N   1      30.638  45.528  62.777  0.00  0.00    -0.078 C 
HETATM   11  C   UNK N   1      29.509  46.211  63.512  0.00  0.00     0.038 C 
HETATM   12  C   UNK N   1      28.301  46.500  62.603  0.00  0.00     0.031 C 
HETATM   13  C   UNK N   1      28.692  47.369  61.430  0.00  0.00    -0.030 C 
HETATM   14  C   UNK N   1      28.354  47.055  60.157  0.00  0.00    -0.026 C 
HETATM   15  C   UNK N   1      28.690  47.925  58.948  0.00  0.00     0.004 C 
HETATM   16  C   UNK N   1      29.237  47.133  57.725  0.00  0.00     0.010 C 
HETATM   17  C   UNK N   1      30.552  46.338  57.899  0.00  0.00     0.033 C 
HETATM   18  C   UNK N   1      29.599  49.132  59.267  0.00  0.00     0.014 C 
HETATM   19  C   UNK N   1      31.919  46.322  62.600  0.00  0.00     0.043 C 
HETATM   20  C   UNK N   1      30.692  42.063  58.155  0.00  0.00     0.103 C 
ENDROOT
BRANCH   1  21
HETATM   21  C   UNK N   1      28.638  42.112  56.646  0.00  0.00     0.157 C 
HETATM   22  N   UNK N   1      28.765  42.858  55.425  0.00  0.00    -0.341 N 
HETATM   23  C   UNK N   1      28.796  42.105  54.317  0.00  0.00     0.280 C 
HETATM   24  H   UNK N   1      28.737  43.890  55.387  0.00  0.00     0.163 HD
HETATM   25  S   UNK N   1      28.680  40.343  54.574  0.00  0.00    -0.067 SA
HETATM   26  O   UNK N   1      28.869  42.599  53.206  0.00  0.00    -0.260 OA
HETATM   27  C   UNK N   1      29.146  40.690  56.309  0.00  0.00     0.114 C 
ENDBRANCH   1  21
BRANCH   1  28
HETATM   28  O   UNK N   1      28.530  42.751  59.033  0.00  0.00    -0.358 OA
HETATM   29  C   UNK N   1      27.151  42.933  58.766  0.00  0.00     0.205 C 
ENDBRANCH   1  28
TORSDOF 2
ENDMDL
