MODEL 1
REMARK VINA RESULT:      -6.3      0.000      0.000
REMARK  4 active torsions:
REMARK  status: ('A' for Active; 'I' for Inactive)
REMARK    1  A    between atoms: C_17  and  C_18 
REMARK    2  A    between atoms: C_18  and  O_19 
REMARK    3  A    between atoms: C_18  and  C_21 
REMARK    4  A    between atoms: C_21  and  O_22 
ROOT
HETATM    1  O   UNK N   1      31.345  51.311  41.437  0.00  0.00    -0.293 OA
HETATM    2  C   UNK N   1      30.710  52.341  41.265  0.00  0.00     0.156 C 
HETATM    3  C   UNK N   1      30.880  53.482  42.180  0.00  0.00    -0.008 C 
HETATM    4  C   UNK N   1      29.994  54.523  42.144  0.00  0.00    -0.061 C 
HETATM    5  C   UNK N   1      28.723  54.499  41.224  0.00  0.00    -0.015 C 
HETATM    6  C   UNK N   1      28.434  53.060  40.577  0.00  0.00     0.013 C 
HETATM    7  C   UNK N   1      27.356  53.049  39.388  0.00  0.00    -0.043 C 
HETATM    8  C   UNK N   1      27.705  54.157  38.360  0.00  0.00     0.009 C 
HETATM    9  C   UNK N   1      27.853  55.540  39.016  0.00  0.00     0.002 C 
HETATM   10  C   UNK N   1      28.962  55.531  40.079  0.00  0.00     0.014 C 
HETATM   11  C   UNK N   1      25.887  53.213  39.873  0.00  0.00     0.015 C 
HETATM   12  C   UNK N   1      27.348  51.683  38.643  0.00  0.00     0.015 C 
HETATM   13  C   UNK N   1      29.780  52.455  40.111  0.00  0.00     0.090 C 
HETATM   14  C   UNK N   1      27.537  54.948  42.123  0.00  0.00     0.020 C 
HETATM   15  C   UNK N   1      30.239  55.757  43.019  0.00  0.00     0.036 C 
HETATM   16  C   UNK N   1      31.651  55.855  43.595  0.00  0.00     0.016 C 
HETATM   17  C   UNK N   1      32.107  54.528  44.227  0.00  0.00    -0.012 C 
HETATM   18  C   UNK N   1      32.093  53.456  43.104  0.00  0.00     0.054 C 
HETATM   19  C   UNK N   1      31.140  54.079  45.358  0.00  0.00     0.018 C 
ENDROOT
BRANCH  17  20
HETATM   20  C   UNK N   1      33.572  54.653  44.784  0.00  0.00     0.150 C 
BRANCH  20  21
HETATM   21  O   UNK N   1      34.453  54.915  43.716  0.00  0.00    -0.393 OA
HETATM   22  H   UNK N   1      34.477  55.898  43.580  0.00  0.00     0.210 HD
ENDBRANCH  20  21
BRANCH  20  23
HETATM   23  C   UNK N   1      33.769  55.743  45.862  0.00  0.00     0.196 C 
BRANCH  23  24
HETATM   24  O   UNK N   1      34.425  56.856  45.315  0.00  0.00    -0.398 OA
HETATM   25  H   UNK N   1      34.258  56.839  44.336  0.00  0.00     0.209 HD
ENDBRANCH  23  24
ENDBRANCH  20  23
ENDBRANCH  17  20
TORSDOF 4
ENDMDL
MODEL 2
REMARK VINA RESULT:      -6.3     11.660     15.360
REMARK  4 active torsions:
REMARK  status: ('A' for Active; 'I' for Inactive)
REMARK    1  A    between atoms: C_17  and  C_18 
REMARK    2  A    between atoms: C_18  and  O_19 
REMARK    3  A    between atoms: C_18  and  C_21 
REMARK    4  A    between atoms: C_21  and  O_22 
ROOT
HETATM    1  O   UNK N   1      42.833  48.485  49.144  0.00  0.00    -0.293 OA
HETATM    2  C   UNK N   1      42.206  47.455  48.945  0.00  0.00     0.156 C 
HETATM    3  C   UNK N   1      41.217  47.385  47.856  0.00  0.00    -0.008 C 
HETATM    4  C   UNK N   1      40.341  46.337  47.797  0.00  0.00    -0.061 C 
HETATM    5  C   UNK N   1      40.276  45.245  48.922  0.00  0.00    -0.015 C 
HETATM    6  C   UNK N   1      41.112  45.636  50.234  0.00  0.00     0.013 C 
HETATM    7  C   UNK N   1      41.350  44.437  51.275  0.00  0.00    -0.043 C 
HETATM    8  C   UNK N   1      41.883  43.191  50.520  0.00  0.00     0.009 C 
HETATM    9  C   UNK N   1      40.980  42.787  49.343  0.00  0.00     0.002 C 
HETATM   10  C   UNK N   1      40.859  43.928  48.322  0.00  0.00     0.014 C 
HETATM   11  C   UNK N   1      40.083  44.061  52.098  0.00  0.00     0.015 C 
HETATM   12  C   UNK N   1      42.393  44.828  52.362  0.00  0.00     0.015 C 
HETATM   13  C   UNK N   1      42.457  46.258  49.790  0.00  0.00     0.090 C 
HETATM   14  C   UNK N   1      38.769  45.069  49.259  0.00  0.00     0.020 C 
HETATM   15  C   UNK N   1      39.391  46.211  46.601  0.00  0.00     0.036 C 
HETATM   16  C   UNK N   1      39.759  47.087  45.404  0.00  0.00     0.016 C 
HETATM   17  C   UNK N   1      40.061  48.536  45.823  0.00  0.00    -0.012 C 
HETATM   18  C   UNK N   1      41.264  48.489  46.804  0.00  0.00     0.054 C 
HETATM   19  C   UNK N   1      38.847  49.177  46.554  0.00  0.00     0.018 C 
ENDROOT
BRANCH  17  20
HETATM   20  C   UNK N   1      40.463  49.403  44.576  0.00  0.00     0.150 C 
BRANCH  20  21
HETATM   21  O   UNK N   1      39.765  48.937  43.443  0.00  0.00    -0.393 OA
HETATM   22  H   UNK N   1      39.971  49.549  42.690  0.00  0.00     0.210 HD
ENDBRANCH  20  21
BRANCH  20  23
HETATM   23  C   UNK N   1      40.202  50.919  44.724  0.00  0.00     0.196 C 
BRANCH  23  24
HETATM   24  O   UNK N   1      40.191  51.537  43.464  0.00  0.00    -0.398 OA
HETATM   25  H   UNK N   1      41.124  51.514  43.122  0.00  0.00     0.209 HD
ENDBRANCH  23  24
ENDBRANCH  20  23
ENDBRANCH  17  20
TORSDOF 4
ENDMDL
MODEL 3
REMARK VINA RESULT:      -5.8      2.518      6.717
REMARK  4 active torsions:
REMARK  status: ('A' for Active; 'I' for Inactive)
REMARK    1  A    between atoms: C_17  and  C_18 
REMARK    2  A    between atoms: C_18  and  O_19 
REMARK    3  A    between atoms: C_18  and  C_21 
REMARK    4  A    between atoms: C_21  and  O_22 
ROOT
HETATM    1  O   UNK N   1      31.333  50.554  40.634  0.00  0.00    -0.293 OA
HETATM    2  C   UNK N   1      31.074  51.571  41.259  0.00  0.00     0.156 C 
HETATM    3  C   UNK N   1      30.215  52.610  40.667  0.00  0.00    -0.008 C 
HETATM    4  C   UNK N   1      30.138  53.845  41.249  0.00  0.00    -0.061 C 
HETATM    5  C   UNK N   1      31.025  54.238  42.482  0.00  0.00    -0.015 C 
HETATM    6  C   UNK N   1      32.190  53.178  42.788  0.00  0.00     0.013 C 
HETATM    7  C   UNK N   1      32.916  53.352  44.210  0.00  0.00    -0.043 C 
HETATM    8  C   UNK N   1      31.846  53.474  45.327  0.00  0.00     0.009 C 
HETATM    9  C   UNK N   1      30.822  54.584  45.042  0.00  0.00     0.002 C 
HETATM   10  C   UNK N   1      30.082  54.327  43.721  0.00  0.00     0.014 C 
HETATM   11  C   UNK N   1      33.892  54.563  44.271  0.00  0.00     0.015 C 
HETATM   12  C   UNK N   1      33.822  52.131  44.537  0.00  0.00     0.015 C 
HETATM   13  C   UNK N   1      31.608  51.753  42.634  0.00  0.00     0.090 C 
HETATM   14  C   UNK N   1      31.622  55.635  42.150  0.00  0.00     0.020 C 
HETATM   15  C   UNK N   1      29.157  54.884  40.694  0.00  0.00     0.036 C 
HETATM   16  C   UNK N   1      28.098  54.316  39.750  0.00  0.00     0.016 C 
HETATM   17  C   UNK N   1      28.714  53.392  38.685  0.00  0.00    -0.012 C 
HETATM   18  C   UNK N   1      29.403  52.221  39.435  0.00  0.00     0.054 C 
HETATM   19  C   UNK N   1      29.783  54.140  37.839  0.00  0.00     0.018 C 
ENDROOT
BRANCH  17  20
HETATM   20  C   UNK N   1      27.598  52.802  37.749  0.00  0.00     0.150 C 
BRANCH  20  21
HETATM   21  O   UNK N   1      28.194  52.310  36.570  0.00  0.00    -0.393 OA
HETATM   22  H   UNK N   1      27.731  52.733  35.800  0.00  0.00     0.210 HD
ENDBRANCH  20  21
BRANCH  20  23
HETATM   23  C   UNK N   1      26.749  51.674  38.377  0.00  0.00     0.196 C 
BRANCH  23  24
HETATM   24  O   UNK N   1      26.415  50.717  37.407  0.00  0.00    -0.398 OA
HETATM   25  H   UNK N   1      26.354  51.194  36.537  0.00  0.00     0.209 HD
ENDBRANCH  23  24
ENDBRANCH  20  23
ENDBRANCH  17  20
TORSDOF 4
ENDMDL
MODEL 4
REMARK VINA RESULT:      -5.7     13.290     16.343
REMARK  4 active torsions:
REMARK  status: ('A' for Active; 'I' for Inactive)
REMARK    1  A    between atoms: C_17  and  C_18 
REMARK    2  A    between atoms: C_18  and  O_19 
REMARK    3  A    between atoms: C_18  and  C_21 
REMARK    4  A    between atoms: C_21  and  O_22 
ROOT
HETATM    1  O   UNK N   1      43.503  47.092  50.465  0.00  0.00    -0.293 OA
HETATM    2  C   UNK N   1      42.537  46.774  49.787  0.00  0.00     0.156 C 
HETATM    3  C   UNK N   1      41.717  45.611  50.160  0.00  0.00    -0.008 C 
HETATM    4  C   UNK N   1      40.806  45.105  49.274  0.00  0.00    -0.061 C 
HETATM    5  C   UNK N   1      40.676  45.660  47.812  0.00  0.00    -0.015 C 
HETATM    6  C   UNK N   1      41.873  46.644  47.397  0.00  0.00     0.013 C 
HETATM    7  C   UNK N   1      41.630  47.488  46.053  0.00  0.00    -0.043 C 
HETATM    8  C   UNK N   1      40.233  48.161  46.108  0.00  0.00     0.009 C 
HETATM    9  C   UNK N   1      39.107  47.154  46.390  0.00  0.00     0.002 C 
HETATM   10  C   UNK N   1      39.327  46.440  47.732  0.00  0.00     0.014 C 
HETATM   11  C   UNK N   1      41.766  46.645  44.752  0.00  0.00     0.015 C 
HETATM   12  C   UNK N   1      42.700  48.604  45.883  0.00  0.00     0.015 C 
HETATM   13  C   UNK N   1      42.172  47.580  48.592  0.00  0.00     0.090 C 
HETATM   14  C   UNK N   1      40.639  44.413  46.884  0.00  0.00     0.020 C 
HETATM   15  C   UNK N   1      39.877  43.967  49.708  0.00  0.00     0.036 C 
HETATM   16  C   UNK N   1      39.819  43.737  51.218  0.00  0.00     0.016 C 
HETATM   17  C   UNK N   1      41.223  43.685  51.846  0.00  0.00    -0.012 C 
HETATM   18  C   UNK N   1      41.901  45.054  51.569  0.00  0.00     0.054 C 
HETATM   19  C   UNK N   1      42.087  42.562  51.206  0.00  0.00     0.018 C 
ENDROOT
BRANCH  17  20
HETATM   20  C   UNK N   1      41.128  43.477  53.401  0.00  0.00     0.150 C 
BRANCH  20  21
HETATM   21  O   UNK N   1      41.828  44.514  54.051  0.00  0.00    -0.393 OA
HETATM   22  H   UNK N   1      42.788  44.423  53.816  0.00  0.00     0.210 HD
ENDBRANCH  20  21
BRANCH  20  23
HETATM   23  C   UNK N   1      39.691  43.426  53.967  0.00  0.00     0.196 C 
BRANCH  23  24
HETATM   24  O   UNK N   1      39.099  42.186  53.682  0.00  0.00    -0.398 OA
HETATM   25  H   UNK N   1      38.660  42.272  52.795  0.00  0.00     0.209 HD
ENDBRANCH  23  24
ENDBRANCH  20  23
ENDBRANCH  17  20
TORSDOF 4
ENDMDL
MODEL 5
REMARK VINA RESULT:      -5.7      2.082      3.532
REMARK  4 active torsions:
REMARK  status: ('A' for Active; 'I' for Inactive)
REMARK    1  A    between atoms: C_17  and  C_18 
REMARK    2  A    between atoms: C_18  and  O_19 
REMARK    3  A    between atoms: C_18  and  C_21 
REMARK    4  A    between atoms: C_21  and  O_22 
ROOT
HETATM    1  O   UNK N   1      26.638  56.137  42.258  0.00  0.00    -0.293 OA
HETATM    2  C   UNK N   1      26.965  55.125  41.654  0.00  0.00     0.156 C 
HETATM    3  C   UNK N   1      28.347  54.625  41.735  0.00  0.00    -0.008 C 
HETATM    4  C   UNK N   1      28.774  53.659  40.867  0.00  0.00    -0.061 C 
HETATM    5  C   UNK N   1      27.867  53.131  39.701  0.00  0.00    -0.015 C 
HETATM    6  C   UNK N   1      26.549  54.017  39.471  0.00  0.00     0.013 C 
HETATM    7  C   UNK N   1      25.435  53.353  38.525  0.00  0.00    -0.043 C 
HETATM    8  C   UNK N   1      25.159  51.899  38.991  0.00  0.00     0.009 C 
HETATM    9  C   UNK N   1      26.442  51.057  39.080  0.00  0.00     0.002 C 
HETATM   10  C   UNK N   1      27.441  51.676  40.069  0.00  0.00     0.014 C 
HETATM   11  C   UNK N   1      25.806  53.368  37.014  0.00  0.00     0.015 C 
HETATM   12  C   UNK N   1      24.096  54.143  38.585  0.00  0.00     0.015 C 
HETATM   13  C   UNK N   1      25.958  54.381  40.853  0.00  0.00     0.090 C 
HETATM   14  C   UNK N   1      28.762  53.131  38.430  0.00  0.00     0.020 C 
HETATM   15  C   UNK N   1      30.177  53.063  41.028  0.00  0.00     0.036 C 
HETATM   16  C   UNK N   1      30.842  53.360  42.371  0.00  0.00     0.016 C 
HETATM   17  C   UNK N   1      30.739  54.849  42.746  0.00  0.00    -0.012 C 
HETATM   18  C   UNK N   1      29.228  55.195  42.843  0.00  0.00     0.054 C 
HETATM   19  C   UNK N   1      31.389  55.752  41.660  0.00  0.00     0.018 C 
ENDROOT
BRANCH  17  20
HETATM   20  C   UNK N   1      31.406  55.117  44.144  0.00  0.00     0.150 C 
BRANCH  20  21
HETATM   21  O   UNK N   1      30.807  54.285  45.111  0.00  0.00    -0.393 OA
HETATM   22  H   UNK N   1      30.739  53.374  44.723  0.00  0.00     0.210 HD
ENDBRANCH  20  21
BRANCH  20  23
HETATM   23  C   UNK N   1      32.935  54.900  44.190  0.00  0.00     0.196 C 
BRANCH  23  24
HETATM   24  O   UNK N   1      33.581  56.066  44.626  0.00  0.00    -0.398 OA
HETATM   25  H   UNK N   1      33.368  56.779  43.968  0.00  0.00     0.209 HD
ENDBRANCH  23  24
ENDBRANCH  20  23
ENDBRANCH  17  20
TORSDOF 4
ENDMDL
MODEL 6
REMARK VINA RESULT:      -5.4     12.793     16.407
REMARK  4 active torsions:
REMARK  status: ('A' for Active; 'I' for Inactive)
REMARK    1  A    between atoms: C_17  and  C_18 
REMARK    2  A    between atoms: C_18  and  O_19 
REMARK    3  A    between atoms: C_18  and  C_21 
REMARK    4  A    between atoms: C_21  and  O_22 
ROOT
HETATM    1  O   UNK N   1      38.076  44.482  48.628  0.00  0.00    -0.293 OA
HETATM    2  C   UNK N   1      39.105  44.819  49.195  0.00  0.00     0.156 C 
HETATM    3  C   UNK N   1      40.150  45.554  48.466  0.00  0.00    -0.008 C 
HETATM    4  C   UNK N   1      41.393  45.701  49.018  0.00  0.00    -0.061 C 
HETATM    5  C   UNK N   1      41.785  45.013  50.372  0.00  0.00    -0.015 C 
HETATM    6  C   UNK N   1      40.711  43.929  50.868  0.00  0.00     0.013 C 
HETATM    7  C   UNK N   1      40.889  43.435  52.385  0.00  0.00    -0.043 C 
HETATM    8  C   UNK N   1      41.040  44.665  53.318  0.00  0.00     0.009 C 
HETATM    9  C   UNK N   1      42.164  45.612  52.864  0.00  0.00     0.002 C 
HETATM   10  C   UNK N   1      41.903  46.138  51.445  0.00  0.00     0.014 C 
HETATM   11  C   UNK N   1      42.085  42.460  52.589  0.00  0.00     0.015 C 
HETATM   12  C   UNK N   1      39.657  42.613  52.862  0.00  0.00     0.015 C 
HETATM   13  C   UNK N   1      39.293  44.505  50.636  0.00  0.00     0.090 C 
HETATM   14  C   UNK N   1      43.168  44.347  50.127  0.00  0.00     0.020 C 
HETATM   15  C   UNK N   1      42.441  46.563  48.306  0.00  0.00     0.036 C 
HETATM   16  C   UNK N   1      41.879  47.469  47.211  0.00  0.00     0.016 C 
HETATM   17  C   UNK N   1      40.934  46.709  46.264  0.00  0.00    -0.012 C 
HETATM   18  C   UNK N   1      39.760  46.168  47.124  0.00  0.00     0.054 C 
HETATM   19  C   UNK N   1      41.655  45.507  45.592  0.00  0.00     0.018 C 
ENDROOT
BRANCH  17  20
HETATM   20  C   UNK N   1      40.351  47.674  45.169  0.00  0.00     0.150 C 
BRANCH  20  21
HETATM   21  O   UNK N   1      38.965  47.451  45.045  0.00  0.00    -0.393 OA
HETATM   22  H   UNK N   1      38.822  46.471  44.985  0.00  0.00     0.210 HD
ENDBRANCH  20  21
BRANCH  20  23
HETATM   23  C   UNK N   1      40.585  49.178  45.433  0.00  0.00     0.196 C 
BRANCH  23  24
HETATM   24  O   UNK N   1      40.469  49.907  44.239  0.00  0.00    -0.398 OA
HETATM   25  H   UNK N   1      41.280  50.475  44.167  0.00  0.00     0.209 HD
ENDBRANCH  23  24
ENDBRANCH  20  23
ENDBRANCH  17  20
TORSDOF 4
ENDMDL
MODEL 7
REMARK VINA RESULT:      -5.2     17.090     19.316
REMARK  4 active torsions:
REMARK  status: ('A' for Active; 'I' for Inactive)
REMARK    1  A    between atoms: C_17  and  C_18 
REMARK    2  A    between atoms: C_18  and  O_19 
REMARK    3  A    between atoms: C_18  and  C_21 
REMARK    4  A    between atoms: C_21  and  O_22 
ROOT
HETATM    1  O   UNK N   1      30.177  48.976  56.776  0.00  0.00    -0.293 OA
HETATM    2  C   UNK N   1      29.895  48.800  57.952  0.00  0.00     0.156 C 
HETATM    3  C   UNK N   1      29.947  47.450  58.535  0.00  0.00    -0.008 C 
HETATM    4  C   UNK N   1      29.390  47.214  59.761  0.00  0.00    -0.061 C 
HETATM    5  C   UNK N   1      28.590  48.320  60.535  0.00  0.00    -0.015 C 
HETATM    6  C   UNK N   1      28.263  49.611  59.640  0.00  0.00     0.013 C 
HETATM    7  C   UNK N   1      27.742  50.892  60.453  0.00  0.00    -0.043 C 
HETATM    8  C   UNK N   1      28.685  51.165  61.655  0.00  0.00     0.009 C 
HETATM    9  C   UNK N   1      28.870  49.927  62.548  0.00  0.00     0.002 C 
HETATM   10  C   UNK N   1      29.462  48.754  61.753  0.00  0.00     0.014 C 
HETATM   11  C   UNK N   1      26.271  50.765  60.947  0.00  0.00     0.015 C 
HETATM   12  C   UNK N   1      27.721  52.163  59.556  0.00  0.00     0.015 C 
HETATM   13  C   UNK N   1      29.520  49.957  58.806  0.00  0.00     0.090 C 
HETATM   14  C   UNK N   1      27.279  47.638  61.020  0.00  0.00     0.020 C 
HETATM   15  C   UNK N   1      29.546  45.835  60.412  0.00  0.00     0.036 C 
HETATM   16  C   UNK N   1      30.619  44.952  59.777  0.00  0.00     0.016 C 
HETATM   17  C   UNK N   1      30.503  44.920  58.243  0.00  0.00    -0.012 C 
HETATM   18  C   UNK N   1      30.684  46.377  57.738  0.00  0.00     0.054 C 
HETATM   19  C   UNK N   1      29.107  44.405  57.793  0.00  0.00     0.018 C 
ENDROOT
BRANCH  17  20
HETATM   20  C   UNK N   1      31.637  44.028  57.619  0.00  0.00     0.150 C 
BRANCH  20  21
HETATM   21  O   UNK N   1      32.559  44.854  56.946  0.00  0.00    -0.393 OA
HETATM   22  H   UNK N   1      32.623  44.534  56.009  0.00  0.00     0.210 HD
ENDBRANCH  20  21
BRANCH  20  23
HETATM   23  C   UNK N   1      32.409  43.152  58.630  0.00  0.00     0.196 C 
BRANCH  23  24
HETATM   24  O   UNK N   1      33.791  43.365  58.505  0.00  0.00    -0.398 OA
HETATM   25  H   UNK N   1      34.151  42.617  57.958  0.00  0.00     0.209 HD
ENDBRANCH  23  24
ENDBRANCH  20  23
ENDBRANCH  17  20
TORSDOF 4
ENDMDL
MODEL 8
REMARK VINA RESULT:      -5.1     15.826     18.686
REMARK  4 active torsions:
REMARK  status: ('A' for Active; 'I' for Inactive)
REMARK    1  A    between atoms: C_17  and  C_18 
REMARK    2  A    between atoms: C_18  and  O_19 
REMARK    3  A    between atoms: C_18  and  C_21 
REMARK    4  A    between atoms: C_21  and  O_22 
ROOT
HETATM    1  O   UNK N   1      32.208  45.403  57.377  0.00  0.00    -0.293 OA
HETATM    2  C   UNK N   1      31.038  45.155  57.627  0.00  0.00     0.156 C 
HETATM    3  C   UNK N   1      30.053  46.243  57.735  0.00  0.00    -0.008 C 
HETATM    4  C   UNK N   1      28.817  45.994  58.265  0.00  0.00    -0.061 C 
HETATM    5  C   UNK N   1      28.439  44.596  58.869  0.00  0.00    -0.015 C 
HETATM    6  C   UNK N   1      29.701  43.622  59.054  0.00  0.00     0.013 C 
HETATM    7  C   UNK N   1      29.342  42.088  59.356  0.00  0.00    -0.043 C 
HETATM    8  C   UNK N   1      28.289  41.589  58.331  0.00  0.00     0.009 C 
HETATM    9  C   UNK N   1      27.046  42.492  58.279  0.00  0.00     0.002 C 
HETATM   10  C   UNK N   1      27.423  43.929  57.891  0.00  0.00     0.014 C 
HETATM   11  C   UNK N   1      28.835  41.837  60.807  0.00  0.00     0.015 C 
HETATM   12  C   UNK N   1      30.599  41.178  59.242  0.00  0.00     0.015 C 
HETATM   13  C   UNK N   1      30.600  43.744  57.800  0.00  0.00     0.090 C 
HETATM   14  C   UNK N   1      27.764  44.891  60.237  0.00  0.00     0.020 C 
HETATM   15  C   UNK N   1      27.759  47.102  58.271  0.00  0.00     0.036 C 
HETATM   16  C   UNK N   1      28.076  48.287  57.360  0.00  0.00     0.016 C 
HETATM   17  C   UNK N   1      29.519  48.787  57.548  0.00  0.00    -0.012 C 
HETATM   18  C   UNK N   1      30.464  47.608  57.191  0.00  0.00     0.054 C 
HETATM   19  C   UNK N   1      29.783  49.209  59.021  0.00  0.00     0.018 C 
ENDROOT
BRANCH  17  20
HETATM   20  C   UNK N   1      29.823  49.986  56.578  0.00  0.00     0.150 C 
BRANCH  20  21
HETATM   21  O   UNK N   1      29.875  51.182  57.321  0.00  0.00    -0.393 OA
HETATM   22  H   UNK N   1      29.232  51.098  58.072  0.00  0.00     0.210 HD
ENDBRANCH  20  21
BRANCH  20  23
HETATM   23  C   UNK N   1      31.133  49.854  55.769  0.00  0.00     0.196 C 
BRANCH  23  24
HETATM   24  O   UNK N   1      32.092  50.763  56.242  0.00  0.00    -0.398 OA
HETATM   25  H   UNK N   1      31.725  51.166  57.073  0.00  0.00     0.209 HD
ENDBRANCH  23  24
ENDBRANCH  20  23
ENDBRANCH  17  20
TORSDOF 4
ENDMDL
MODEL 9
REMARK VINA RESULT:      -5.1     17.196     19.730
REMARK  4 active torsions:
REMARK  status: ('A' for Active; 'I' for Inactive)
REMARK    1  A    between atoms: C_17  and  C_18 
REMARK    2  A    between atoms: C_18  and  O_19 
REMARK    3  A    between atoms: C_18  and  C_21 
REMARK    4  A    between atoms: C_21  and  O_22 
ROOT
HETATM    1  O   UNK N   1      30.170  46.478  62.430  0.00  0.00    -0.293 OA
HETATM    2  C   UNK N   1      30.338  46.131  61.270  0.00  0.00     0.156 C 
HETATM    3  C   UNK N   1      29.752  46.911  60.168  0.00  0.00    -0.008 C 
HETATM    4  C   UNK N   1      29.719  46.388  58.905  0.00  0.00    -0.061 C 
HETATM    5  C   UNK N   1      30.190  44.923  58.600  0.00  0.00    -0.015 C 
HETATM    6  C   UNK N   1      30.432  44.047  59.923  0.00  0.00     0.013 C 
HETATM    7  C   UNK N   1      31.216  42.665  59.693  0.00  0.00    -0.043 C 
HETATM    8  C   UNK N   1      32.493  42.926  58.852  0.00  0.00     0.009 C 
HETATM    9  C   UNK N   1      32.190  43.664  57.537  0.00  0.00     0.002 C 
HETATM   10  C   UNK N   1      31.530  45.024  57.807  0.00  0.00     0.014 C 
HETATM   11  C   UNK N   1      30.351  41.558  59.021  0.00  0.00     0.015 C 
HETATM   12  C   UNK N   1      31.648  42.026  61.045  0.00  0.00     0.015 C 
HETATM   13  C   UNK N   1      31.157  44.928  60.967  0.00  0.00     0.090 C 
HETATM   14  C   UNK N   1      29.079  44.292  57.715  0.00  0.00     0.020 C 
HETATM   15  C   UNK N   1      29.211  47.248  57.742  0.00  0.00     0.036 C 
HETATM   16  C   UNK N   1      29.117  48.742  58.052  0.00  0.00     0.016 C 
HETATM   17  C   UNK N   1      28.411  49.007  59.393  0.00  0.00    -0.012 C 
HETATM   18  C   UNK N   1      29.249  48.313  60.500  0.00  0.00     0.054 C 
HETATM   19  C   UNK N   1      26.976  48.406  59.404  0.00  0.00     0.018 C 
ENDROOT
BRANCH  17  20
HETATM   20  C   UNK N   1      28.355  50.548  59.696  0.00  0.00     0.150 C 
BRANCH  20  21
HETATM   21  O   UNK N   1      29.196  50.835  60.790  0.00  0.00    -0.393 OA
HETATM   22  H   UNK N   1      28.640  50.816  61.611  0.00  0.00     0.210 HD
ENDBRANCH  20  21
BRANCH  20  23
HETATM   23  C   UNK N   1      28.757  51.460  58.516  0.00  0.00     0.196 C 
BRANCH  23  24
HETATM   24  O   UNK N   1      29.132  52.729  58.984  0.00  0.00    -0.398 OA
HETATM   25  H   UNK N   1      29.399  53.264  58.191  0.00  0.00     0.209 HD
ENDBRANCH  23  24
ENDBRANCH  20  23
ENDBRANCH  17  20
TORSDOF 4
ENDMDL
