MODEL 1
REMARK VINA RESULT:      -5.6      0.000      0.000
REMARK  3 active torsions:
REMARK  status: ('A' for Active; 'I' for Inactive)
REMARK    1  A    between atoms: C_4  and  C_5 
REMARK    2  A    between atoms: C_5  and  O_6 
REMARK    3  A    between atoms: C_15  and  O_16 
ROOT
HETATM    1  C   UNK N   1      30.276  43.332  62.632  0.00  0.00     0.093 C 
HETATM    2  C   UNK N   1      31.812  43.303  62.860  0.00  0.00     0.032 C 
HETATM    3  C   UNK N   1      32.106  44.151  64.165  0.00  0.00    -0.030 C 
HETATM    4  C   UNK N   1      33.070  45.418  63.902  0.00  0.00    -0.032 C 
HETATM    5  C   UNK N   1      34.350  45.036  63.008  0.00  0.00     0.003 C 
HETATM    6  C   UNK N   1      35.778  45.174  63.685  0.00  0.00    -0.035 C 
HETATM    7  C   UNK N   1      35.920  46.559  64.487  0.00  0.00     0.004 C 
HETATM    8  C   UNK N   1      36.837  47.645  63.808  0.00  0.00    -0.017 C 
HETATM    9  C   UNK N   1      38.254  47.012  63.516  0.00  0.00     0.126 C 
HETATM   10  C   UNK N   1      38.242  45.546  63.001  0.00  0.00     0.033 C 
HETATM   11  C   UNK N   1      36.873  45.052  62.556  0.00  0.00     0.012 C 
HETATM   12  C   UNK N   1      36.208  48.238  62.506  0.00  0.00     0.018 C 
HETATM   13  C   UNK N   1      37.029  48.868  64.751  0.00  0.00     0.018 C 
HETATM   14  C   UNK N   1      34.581  47.154  65.023  0.00  0.00     0.007 C 
HETATM   15  C   UNK N   1      33.505  46.099  65.247  0.00  0.00     0.011 C 
HETATM   16  C   UNK N   1      36.049  44.003  64.685  0.00  0.00     0.016 C 
HETATM   17  C   UNK N   1      34.167  43.739  62.156  0.00  0.00     0.007 C 
HETATM   18  C   UNK N   1      32.737  43.591  61.652  0.00  0.00     0.009 C 
HETATM   19  C   UNK N   1      32.278  46.529  63.097  0.00  0.00     0.016 C 
HETATM   20  C   UNK N   1      30.681  44.526  64.679  0.00  0.00     0.013 C 
HETATM   21  C   UNK N   1      29.775  43.452  64.095  0.00  0.00     0.042 C 
HETATM   22  C   UNK N   1      32.709  43.162  65.219  0.00  0.00     0.016 C 
ENDROOT
BRANCH   1  23
HETATM   23  C   UNK N   1      29.645  42.098  61.866  0.00  0.00     0.099 C 
HETATM   24  O   UNK N   1      30.382  40.961  62.127  0.00  0.00    -0.307 OA
HETATM   25  C   UNK N   1      29.598  39.888  62.316  0.00  0.00     0.259 C 
HETATM   26  O   UNK N   1      30.047  38.757  62.383  0.00  0.00    -0.265 OA
HETATM   27  C   UNK N   1      28.154  40.193  62.204  0.00  0.00     0.114 C 
HETATM   28  C   UNK N   1      28.233  41.709  62.386  0.00  0.00     0.051 C 
HETATM   29  C   UNK N   1      29.588  42.276  60.325  0.00  0.00     0.050 C 
ENDBRANCH   1  23
BRANCH   1  30
HETATM   30  O   UNK N   1      29.963  44.523  61.937  0.00  0.00    -0.386 OA
HETATM   31  H   UNK N   1      29.107  44.879  62.290  0.00  0.00     0.210 HD
ENDBRANCH   1  30
BRANCH   9  32
HETATM   32  O   UNK N   1      39.048  47.033  64.679  0.00  0.00    -0.395 OA
HETATM   33  H   UNK N   1      38.511  46.630  65.411  0.00  0.00     0.210 HD
ENDBRANCH   9  32
TORSDOF 3
ENDMDL
MODEL 2
REMARK VINA RESULT:      -5.4      5.217      7.163
REMARK  3 active torsions:
REMARK  status: ('A' for Active; 'I' for Inactive)
REMARK    1  A    between atoms: C_4  and  C_5 
REMARK    2  A    between atoms: C_5  and  O_6 
REMARK    3  A    between atoms: C_15  and  O_16 
ROOT
HETATM    1  C   UNK N   1      29.181  40.452  58.978  0.00  0.00     0.093 C 
HETATM    2  C   UNK N   1      29.384  41.867  58.369  0.00  0.00     0.032 C 
HETATM    3  C   UNK N   1      30.396  42.639  59.312  0.00  0.00    -0.030 C 
HETATM    4  C   UNK N   1      29.774  43.983  59.952  0.00  0.00    -0.032 C 
HETATM    5  C   UNK N   1      29.003  44.880  58.863  0.00  0.00     0.003 C 
HETATM    6  C   UNK N   1      29.593  46.320  58.557  0.00  0.00    -0.035 C 
HETATM    7  C   UNK N   1      29.974  47.102  59.907  0.00  0.00     0.004 C 
HETATM    8  C   UNK N   1      29.004  48.278  60.307  0.00  0.00    -0.017 C 
HETATM    9  C   UNK N   1      28.880  49.277  59.090  0.00  0.00     0.126 C 
HETATM   10  C   UNK N   1      28.796  48.618  57.686  0.00  0.00     0.033 C 
HETATM   11  C   UNK N   1      28.528  47.120  57.713  0.00  0.00     0.012 C 
HETATM   12  C   UNK N   1      27.598  47.772  60.764  0.00  0.00     0.018 C 
HETATM   13  C   UNK N   1      29.565  49.059  61.530  0.00  0.00     0.018 C 
HETATM   14  C   UNK N   1      30.342  46.191  61.119  0.00  0.00     0.007 C 
HETATM   15  C   UNK N   1      30.869  44.824  60.701  0.00  0.00     0.011 C 
HETATM   16  C   UNK N   1      30.877  46.232  57.668  0.00  0.00     0.016 C 
HETATM   17  C   UNK N   1      28.552  44.088  57.594  0.00  0.00     0.007 C 
HETATM   18  C   UNK N   1      28.131  42.665  57.935  0.00  0.00     0.009 C 
HETATM   19  C   UNK N   1      28.703  43.600  61.054  0.00  0.00     0.016 C 
HETATM   20  C   UNK N   1      30.806  41.560  60.360  0.00  0.00     0.013 C 
HETATM   21  C   UNK N   1      30.560  40.234  59.654  0.00  0.00     0.042 C 
HETATM   22  C   UNK N   1      31.675  42.932  58.457  0.00  0.00     0.016 C 
ENDROOT
BRANCH   1  23
HETATM   23  C   UNK N   1      28.800  39.291  57.971  0.00  0.00     0.099 C 
HETATM   24  O   UNK N   1      29.164  39.647  56.689  0.00  0.00    -0.307 OA
HETATM   25  C   UNK N   1      29.697  38.616  56.013  0.00  0.00     0.259 C 
HETATM   26  O   UNK N   1      29.920  38.666  54.817  0.00  0.00    -0.265 OA
HETATM   27  C   UNK N   1      29.765  37.370  56.810  0.00  0.00     0.114 C 
HETATM   28  C   UNK N   1      29.615  37.988  58.201  0.00  0.00     0.051 C 
HETATM   29  C   UNK N   1      27.286  38.946  57.950  0.00  0.00     0.050 C 
ENDBRANCH   1  23
BRANCH   1  30
HETATM   30  O   UNK N   1      28.186  40.549  59.977  0.00  0.00    -0.386 OA
HETATM   31  H   UNK N   1      27.296  40.540  59.538  0.00  0.00     0.210 HD
ENDBRANCH   1  30
BRANCH   9  32
HETATM   32  O   UNK N   1      29.979  50.158  59.067  0.00  0.00    -0.395 OA
HETATM   33  H   UNK N   1      30.546  49.901  58.293  0.00  0.00     0.210 HD
ENDBRANCH   9  32
TORSDOF 3
ENDMDL
MODEL 3
REMARK VINA RESULT:      -5.4      5.225      7.937
REMARK  3 active torsions:
REMARK  status: ('A' for Active; 'I' for Inactive)
REMARK    1  A    between atoms: C_4  and  C_5 
REMARK    2  A    between atoms: C_5  and  O_6 
REMARK    3  A    between atoms: C_15  and  O_16 
ROOT
HETATM    1  C   UNK N   1      30.322  43.390  60.643  0.00  0.00     0.093 C 
HETATM    2  C   UNK N   1      30.395  44.925  60.408  0.00  0.00     0.032 C 
HETATM    3  C   UNK N   1      29.234  45.582  61.261  0.00  0.00    -0.030 C 
HETATM    4  C   UNK N   1      28.167  46.399  60.367  0.00  0.00    -0.032 C 
HETATM    5  C   UNK N   1      28.879  47.358  59.291  0.00  0.00     0.003 C 
HETATM    6  C   UNK N   1      28.657  48.920  59.448  0.00  0.00    -0.035 C 
HETATM    7  C   UNK N   1      27.115  49.272  59.730  0.00  0.00     0.004 C 
HETATM    8  C   UNK N   1      26.337  49.922  58.524  0.00  0.00    -0.017 C 
HETATM    9  C   UNK N   1      27.127  51.197  58.030  0.00  0.00     0.126 C 
HETATM   10  C   UNK N   1      28.674  51.056  57.995  0.00  0.00     0.033 C 
HETATM   11  C   UNK N   1      29.175  49.627  58.137  0.00  0.00     0.012 C 
HETATM   12  C   UNK N   1      26.097  48.919  57.350  0.00  0.00     0.018 C 
HETATM   13  C   UNK N   1      24.913  50.367  58.968  0.00  0.00     0.018 C 
HETATM   14  C   UNK N   1      26.297  48.146  60.435  0.00  0.00     0.007 C 
HETATM   15  C   UNK N   1      27.164  47.207  61.264  0.00  0.00     0.011 C 
HETATM   16  C   UNK N   1      29.511  49.501  60.623  0.00  0.00     0.016 C 
HETATM   17  C   UNK N   1      30.349  46.950  58.951  0.00  0.00     0.007 C 
HETATM   18  C   UNK N   1      30.532  45.438  58.954  0.00  0.00     0.009 C 
HETATM   19  C   UNK N   1      27.279  45.382  59.541  0.00  0.00     0.016 C 
HETATM   20  C   UNK N   1      28.627  44.372  62.036  0.00  0.00     0.013 C 
HETATM   21  C   UNK N   1      29.755  43.351  62.086  0.00  0.00     0.042 C 
HETATM   22  C   UNK N   1      29.922  46.492  62.334  0.00  0.00     0.016 C 
ENDROOT
BRANCH   1  23
HETATM   23  C   UNK N   1      31.675  42.581  60.493  0.00  0.00     0.099 C 
HETATM   24  O   UNK N   1      32.133  42.674  59.194  0.00  0.00    -0.307 OA
HETATM   25  C   UNK N   1      33.464  42.841  59.143  0.00  0.00     0.259 C 
HETATM   26  O   UNK N   1      34.090  42.768  58.100  0.00  0.00    -0.265 OA
HETATM   27  C   UNK N   1      34.098  42.889  60.480  0.00  0.00     0.114 C 
HETATM   28  C   UNK N   1      32.849  43.193  61.307  0.00  0.00     0.051 C 
HETATM   29  C   UNK N   1      31.549  41.073  60.839  0.00  0.00     0.050 C 
ENDBRANCH   1  23
BRANCH   1  30
HETATM   30  O   UNK N   1      29.360  42.861  59.753  0.00  0.00    -0.386 OA
HETATM   31  H   UNK N   1      29.248  43.494  58.997  0.00  0.00     0.210 HD
ENDBRANCH   1  30
BRANCH   9  32
HETATM   32  O   UNK N   1      26.832  52.303  58.850  0.00  0.00    -0.395 OA
HETATM   33  H   UNK N   1      25.887  52.555  58.676  0.00  0.00     0.210 HD
ENDBRANCH   9  32
TORSDOF 3
ENDMDL
MODEL 4
REMARK VINA RESULT:      -5.3     24.094     26.424
REMARK  3 active torsions:
REMARK  status: ('A' for Active; 'I' for Inactive)
REMARK    1  A    between atoms: C_4  and  C_5 
REMARK    2  A    between atoms: C_5  and  O_6 
REMARK    3  A    between atoms: C_15  and  O_16 
ROOT
HETATM    1  C   UNK N   1      31.079  54.237  42.143  0.00  0.00     0.093 C 
HETATM    2  C   UNK N   1      29.718  54.984  42.079  0.00  0.00     0.032 C 
HETATM    3  C   UNK N   1      29.024  54.571  40.717  0.00  0.00    -0.030 C 
HETATM    4  C   UNK N   1      28.738  55.822  39.739  0.00  0.00    -0.032 C 
HETATM    5  C   UNK N   1      28.080  57.067  40.516  0.00  0.00     0.003 C 
HETATM    6  C   UNK N   1      26.614  57.496  40.091  0.00  0.00    -0.035 C 
HETATM    7  C   UNK N   1      26.455  57.555  38.493  0.00  0.00     0.004 C 
HETATM    8  C   UNK N   1      26.378  59.001  37.872  0.00  0.00    -0.017 C 
HETATM    9  C   UNK N   1      25.221  59.805  38.585  0.00  0.00     0.126 C 
HETATM   10  C   UNK N   1      25.101  59.591  40.119  0.00  0.00     0.033 C 
HETATM   11  C   UNK N   1      26.299  58.895  40.748  0.00  0.00     0.012 C 
HETATM   12  C   UNK N   1      27.735  59.770  37.961  0.00  0.00     0.018 C 
HETATM   13  C   UNK N   1      26.060  58.927  36.350  0.00  0.00     0.018 C 
HETATM   14  C   UNK N   1      27.409  56.611  37.698  0.00  0.00     0.007 C 
HETATM   15  C   UNK N   1      27.863  55.402  38.506  0.00  0.00     0.011 C 
HETATM   16  C   UNK N   1      25.544  56.501  40.649  0.00  0.00     0.016 C 
HETATM   17  C   UNK N   1      28.321  57.052  42.060  0.00  0.00     0.007 C 
HETATM   18  C   UNK N   1      29.695  56.495  42.412  0.00  0.00     0.009 C 
HETATM   19  C   UNK N   1      30.105  56.346  39.135  0.00  0.00     0.016 C 
HETATM   20  C   UNK N   1      29.998  53.505  40.125  0.00  0.00     0.013 C 
HETATM   21  C   UNK N   1      30.739  52.957  41.336  0.00  0.00     0.042 C 
HETATM   22  C   UNK N   1      27.709  53.807  41.093  0.00  0.00     0.016 C 
ENDROOT
BRANCH   1  23
HETATM   23  C   UNK N   1      31.651  53.921  43.585  0.00  0.00     0.099 C 
HETATM   24  O   UNK N   1      32.001  52.588  43.666  0.00  0.00    -0.307 OA
HETATM   25  C   UNK N   1      33.154  52.412  44.331  0.00  0.00     0.259 C 
HETATM   26  O   UNK N   1      33.550  51.310  44.668  0.00  0.00    -0.265 OA
HETATM   27  C   UNK N   1      33.758  53.681  44.799  0.00  0.00     0.114 C 
HETATM   28  C   UNK N   1      32.997  54.640  43.883  0.00  0.00     0.051 C 
HETATM   29  C   UNK N   1      30.653  54.214  44.737  0.00  0.00     0.050 C 
ENDBRANCH   1  23
BRANCH   1  30
HETATM   30  O   UNK N   1      32.026  55.000  41.422  0.00  0.00    -0.386 OA
HETATM   31  H   UNK N   1      32.710  55.337  42.057  0.00  0.00     0.210 HD
ENDBRANCH   1  30
BRANCH   9  32
HETATM   32  O   UNK N   1      23.974  59.471  38.023  0.00  0.00    -0.395 OA
HETATM   33  H   UNK N   1      23.568  60.311  37.684  0.00  0.00     0.210 HD
ENDBRANCH   9  32
TORSDOF 3
ENDMDL
MODEL 5
REMARK VINA RESULT:      -5.0     22.636     25.116
REMARK  3 active torsions:
REMARK  status: ('A' for Active; 'I' for Inactive)
REMARK    1  A    between atoms: C_4  and  C_5 
REMARK    2  A    between atoms: C_5  and  O_6 
REMARK    3  A    between atoms: C_15  and  O_16 
ROOT
HETATM    1  C   UNK N   1      31.773  53.766  43.838  0.00  0.00     0.093 C 
HETATM    2  C   UNK N   1      31.283  53.708  42.364  0.00  0.00     0.032 C 
HETATM    3  C   UNK N   1      30.826  55.172  41.968  0.00  0.00    -0.030 C 
HETATM    4  C   UNK N   1      29.273  55.263  41.541  0.00  0.00    -0.032 C 
HETATM    5  C   UNK N   1      28.849  54.093  40.523  0.00  0.00     0.003 C 
HETATM    6  C   UNK N   1      28.391  54.526  39.067  0.00  0.00    -0.035 C 
HETATM    7  C   UNK N   1      27.370  55.765  39.113  0.00  0.00     0.004 C 
HETATM    8  C   UNK N   1      25.866  55.417  38.796  0.00  0.00    -0.017 C 
HETATM    9  C   UNK N   1      25.793  54.675  37.404  0.00  0.00     0.126 C 
HETATM   10  C   UNK N   1      26.923  53.643  37.133  0.00  0.00     0.033 C 
HETATM   11  C   UNK N   1      27.740  53.274  38.362  0.00  0.00     0.012 C 
HETATM   12  C   UNK N   1      25.193  54.568  39.922  0.00  0.00     0.018 C 
HETATM   13  C   UNK N   1      25.010  56.714  38.708  0.00  0.00     0.018 C 
HETATM   14  C   UNK N   1      27.520  56.702  40.351  0.00  0.00     0.007 C 
HETATM   15  C   UNK N   1      28.919  56.676  40.954  0.00  0.00     0.011 C 
HETATM   16  C   UNK N   1      29.615  54.937  38.184  0.00  0.00     0.016 C 
HETATM   17  C   UNK N   1      29.795  52.850  40.554  0.00  0.00     0.007 C 
HETATM   18  C   UNK N   1      30.315  52.571  41.958  0.00  0.00     0.009 C 
HETATM   19  C   UNK N   1      28.359  55.092  42.823  0.00  0.00     0.016 C 
HETATM   20  C   UNK N   1      31.195  56.017  43.226  0.00  0.00     0.013 C 
HETATM   21  C   UNK N   1      32.302  55.222  43.904  0.00  0.00     0.042 C 
HETATM   22  C   UNK N   1      31.780  55.647  40.821  0.00  0.00     0.016 C 
ENDROOT
BRANCH   1  23
HETATM   23  C   UNK N   1      32.859  52.698  44.270  0.00  0.00     0.099 C 
HETATM   24  O   UNK N   1      32.235  51.541  44.691  0.00  0.00    -0.307 OA
HETATM   25  C   UNK N   1      32.869  50.442  44.253  0.00  0.00     0.259 C 
HETATM   26  O   UNK N   1      32.590  49.325  44.654  0.00  0.00    -0.265 OA
HETATM   27  C   UNK N   1      34.063  50.745  43.432  0.00  0.00     0.114 C 
HETATM   28  C   UNK N   1      33.732  52.197  43.086  0.00  0.00     0.051 C 
HETATM   29  C   UNK N   1      33.788  53.174  45.420  0.00  0.00     0.050 C 
ENDBRANCH   1  23
BRANCH   1  30
HETATM   30  O   UNK N   1      30.641  53.647  44.676  0.00  0.00    -0.386 OA
HETATM   31  H   UNK N   1      29.874  54.097  44.237  0.00  0.00     0.210 HD
ENDBRANCH   1  30
BRANCH   9  32
HETATM   32  O   UNK N   1      25.825  55.608  36.350  0.00  0.00    -0.395 OA
HETATM   33  H   UNK N   1      25.064  55.398  35.747  0.00  0.00     0.210 HD
ENDBRANCH   9  32
TORSDOF 3
ENDMDL
MODEL 6
REMARK VINA RESULT:      -5.0      4.574      7.339
REMARK  3 active torsions:
REMARK  status: ('A' for Active; 'I' for Inactive)
REMARK    1  A    between atoms: C_4  and  C_5 
REMARK    2  A    between atoms: C_5  and  O_6 
REMARK    3  A    between atoms: C_15  and  O_16 
ROOT
HETATM    1  C   UNK N   1      28.290  41.787  55.858  0.00  0.00     0.093 C 
HETATM    2  C   UNK N   1      29.341  41.701  56.999  0.00  0.00     0.032 C 
HETATM    3  C   UNK N   1      28.542  41.664  58.366  0.00  0.00    -0.030 C 
HETATM    4  C   UNK N   1      28.895  42.894  59.348  0.00  0.00    -0.032 C 
HETATM    5  C   UNK N   1      30.478  43.149  59.465  0.00  0.00     0.003 C 
HETATM    6  C   UNK N   1      31.146  42.937  60.887  0.00  0.00    -0.035 C 
HETATM    7  C   UNK N   1      30.279  43.621  62.054  0.00  0.00     0.004 C 
HETATM    8  C   UNK N   1      30.885  44.939  62.667  0.00  0.00    -0.017 C 
HETATM    9  C   UNK N   1      32.359  44.649  63.154  0.00  0.00     0.126 C 
HETATM   10  C   UNK N   1      33.208  43.741  62.221  0.00  0.00     0.033 C 
HETATM   11  C   UNK N   1      32.607  43.530  60.840  0.00  0.00     0.012 C 
HETATM   12  C   UNK N   1      30.850  46.141  61.669  0.00  0.00     0.018 C 
HETATM   13  C   UNK N   1      30.047  45.411  63.891  0.00  0.00     0.018 C 
HETATM   14  C   UNK N   1      28.752  43.744  61.759  0.00  0.00     0.007 C 
HETATM   15  C   UNK N   1      28.249  42.704  60.766  0.00  0.00     0.011 C 
HETATM   16  C   UNK N   1      31.302  41.418  61.224  0.00  0.00     0.016 C 
HETATM   17  C   UNK N   1      31.305  42.563  58.275  0.00  0.00     0.007 C 
HETATM   18  C   UNK N   1      30.550  42.667  56.956  0.00  0.00     0.009 C 
HETATM   19  C   UNK N   1      28.270  44.230  58.770  0.00  0.00     0.016 C 
HETATM   20  C   UNK N   1      27.051  41.615  57.911  0.00  0.00     0.013 C 
HETATM   21  C   UNK N   1      27.104  41.027  56.508  0.00  0.00     0.042 C 
HETATM   22  C   UNK N   1      28.846  40.277  59.029  0.00  0.00     0.016 C 
ENDROOT
BRANCH   1  23
HETATM   23  C   UNK N   1      28.710  41.185  54.455  0.00  0.00     0.099 C 
HETATM   24  O   UNK N   1      27.606  40.642  53.831  0.00  0.00    -0.307 OA
HETATM   25  C   UNK N   1      27.590  40.913  52.516  0.00  0.00     0.259 C 
HETATM   26  O   UNK N   1      26.804  40.383  51.751  0.00  0.00    -0.265 OA
HETATM   27  C   UNK N   1      28.746  41.726  52.073  0.00  0.00     0.114 C 
HETATM   28  C   UNK N   1      29.174  42.265  53.438  0.00  0.00     0.051 C 
HETATM   29  C   UNK N   1      29.792  40.075  54.545  0.00  0.00     0.050 C 
ENDBRANCH   1  23
BRANCH   1  30
HETATM   30  O   UNK N   1      27.936  43.146  55.697  0.00  0.00    -0.386 OA
HETATM   31  H   UNK N   1      28.742  43.651  55.415  0.00  0.00     0.210 HD
ENDBRANCH   1  30
BRANCH   9  32
HETATM   32  O   UNK N   1      32.344  44.037  64.422  0.00  0.00    -0.395 OA
HETATM   33  H   UNK N   1      32.087  44.733  65.082  0.00  0.00     0.210 HD
ENDBRANCH   9  32
TORSDOF 3
ENDMDL
MODEL 7
REMARK VINA RESULT:      -4.8      4.988      7.344
REMARK  3 active torsions:
REMARK  status: ('A' for Active; 'I' for Inactive)
REMARK    1  A    between atoms: C_4  and  C_5 
REMARK    2  A    between atoms: C_5  and  O_6 
REMARK    3  A    between atoms: C_15  and  O_16 
ROOT
HETATM    1  C   UNK N   1      30.353  40.524  61.411  0.00  0.00     0.093 C 
HETATM    2  C   UNK N   1      29.450  41.402  60.500  0.00  0.00     0.032 C 
HETATM    3  C   UNK N   1      30.387  42.042  59.395  0.00  0.00    -0.030 C 
HETATM    4  C   UNK N   1      30.396  43.656  59.420  0.00  0.00    -0.032 C 
HETATM    5  C   UNK N   1      28.916  44.273  59.533  0.00  0.00     0.003 C 
HETATM    6  C   UNK N   1      28.397  45.146  58.315  0.00  0.00    -0.035 C 
HETATM    7  C   UNK N   1      29.513  46.189  57.818  0.00  0.00     0.004 C 
HETATM    8  C   UNK N   1      29.247  47.697  58.191  0.00  0.00    -0.017 C 
HETATM    9  C   UNK N   1      27.815  48.109  57.670  0.00  0.00     0.126 C 
HETATM   10  C   UNK N   1      26.702  47.039  57.843  0.00  0.00     0.033 C 
HETATM   11  C   UNK N   1      27.080  45.889  58.765  0.00  0.00     0.012 C 
HETATM   12  C   UNK N   1      29.389  47.973  59.723  0.00  0.00     0.018 C 
HETATM   13  C   UNK N   1      30.302  48.622  57.518  0.00  0.00     0.018 C 
HETATM   14  C   UNK N   1      30.989  45.757  58.084  0.00  0.00     0.007 C 
HETATM   15  C   UNK N   1      31.160  44.247  58.184  0.00  0.00     0.011 C 
HETATM   16  C   UNK N   1      27.997  44.246  57.099  0.00  0.00     0.016 C 
HETATM   17  C   UNK N   1      27.855  43.280  60.108  0.00  0.00     0.007 C 
HETATM   18  C   UNK N   1      28.451  42.372  61.175  0.00  0.00     0.009 C 
HETATM   19  C   UNK N   1      31.188  44.162  60.694  0.00  0.00     0.016 C 
HETATM   20  C   UNK N   1      31.775  41.390  59.677  0.00  0.00     0.013 C 
HETATM   21  C   UNK N   1      31.442  40.090  60.396  0.00  0.00     0.042 C 
HETATM   22  C   UNK N   1      29.907  41.479  58.015  0.00  0.00     0.016 C 
ENDROOT
BRANCH   1  23
HETATM   23  C   UNK N   1      29.659  39.296  62.130  0.00  0.00     0.099 C 
HETATM   24  O   UNK N   1      29.547  39.548  63.482  0.00  0.00    -0.307 OA
HETATM   25  C   UNK N   1      28.366  39.140  63.972  0.00  0.00     0.259 C 
HETATM   26  O   UNK N   1      28.133  39.107  65.168  0.00  0.00    -0.265 OA
HETATM   27  C   UNK N   1      27.487  38.533  62.947  0.00  0.00     0.114 C 
HETATM   28  C   UNK N   1      28.178  39.091  61.703  0.00  0.00     0.051 C 
HETATM   29  C   UNK N   1      30.424  37.955  61.965  0.00  0.00     0.050 C 
ENDBRANCH   1  23
BRANCH   1  30
HETATM   30  O   UNK N   1      30.936  41.366  62.384  0.00  0.00    -0.386 OA
HETATM   31  H   UNK N   1      31.899  41.140  62.462  0.00  0.00     0.210 HD
ENDBRANCH   1  30
BRANCH   9  32
HETATM   32  O   UNK N   1      27.867  48.433  56.300  0.00  0.00    -0.395 OA
HETATM   33  H   UNK N   1      27.483  47.664  55.801  0.00  0.00     0.210 HD
ENDBRANCH   9  32
TORSDOF 3
ENDMDL
MODEL 8
REMARK VINA RESULT:      -4.8     19.122     21.105
REMARK  3 active torsions:
REMARK  status: ('A' for Active; 'I' for Inactive)
REMARK    1  A    between atoms: C_4  and  C_5 
REMARK    2  A    between atoms: C_5  and  O_6 
REMARK    3  A    between atoms: C_15  and  O_16 
ROOT
HETATM    1  C   UNK N   1      51.824  49.220  58.626  0.00  0.00     0.093 C 
HETATM    2  C   UNK N   1      52.070  50.533  57.833  0.00  0.00     0.032 C 
HETATM    3  C   UNK N   1      52.149  51.709  58.891  0.00  0.00    -0.030 C 
HETATM    4  C   UNK N   1      51.023  52.843  58.673  0.00  0.00    -0.032 C 
HETATM    5  C   UNK N   1      50.894  53.290  57.134  0.00  0.00     0.003 C 
HETATM    6  C   UNK N   1      51.258  54.792  56.779  0.00  0.00    -0.035 C 
HETATM    7  C   UNK N   1      50.600  55.821  57.823  0.00  0.00     0.004 C 
HETATM    8  C   UNK N   1      49.378  56.652  57.279  0.00  0.00    -0.017 C 
HETATM    9  C   UNK N   1      49.811  57.392  55.952  0.00  0.00     0.126 C 
HETATM   10  C   UNK N   1      50.707  56.569  54.986  0.00  0.00     0.033 C 
HETATM   11  C   UNK N   1      50.772  55.083  55.307  0.00  0.00     0.012 C 
HETATM   12  C   UNK N   1      48.107  55.774  57.044  0.00  0.00     0.018 C 
HETATM   13  C   UNK N   1      48.937  57.724  58.318  0.00  0.00     0.018 C 
HETATM   14  C   UNK N   1      50.344  55.244  59.250  0.00  0.00     0.007 C 
HETATM   15  C   UNK N   1      51.269  54.085  59.601  0.00  0.00     0.011 C 
HETATM   16  C   UNK N   1      52.805  55.019  56.782  0.00  0.00     0.016 C 
HETATM   17  C   UNK N   1      51.450  52.239  56.120  0.00  0.00     0.007 C 
HETATM   18  C   UNK N   1      51.195  50.812  56.587  0.00  0.00     0.009 C 
HETATM   19  C   UNK N   1      49.607  52.272  59.092  0.00  0.00     0.016 C 
HETATM   20  C   UNK N   1      52.055  50.967  60.260  0.00  0.00     0.013 C 
HETATM   21  C   UNK N   1      52.540  49.556  59.960  0.00  0.00     0.042 C 
HETATM   22  C   UNK N   1      53.599  52.296  58.806  0.00  0.00     0.016 C 
ENDROOT
BRANCH   1  23
HETATM   23  C   UNK N   1      52.350  47.880  57.967  0.00  0.00     0.099 C 
HETATM   24  O   UNK N   1      51.411  47.397  57.078  0.00  0.00    -0.307 OA
HETATM   25  C   UNK N   1      51.980  46.922  55.958  0.00  0.00     0.259 C 
HETATM   26  O   UNK N   1      51.351  46.292  55.125  0.00  0.00    -0.265 OA
HETATM   27  C   UNK N   1      53.455  47.041  55.956  0.00  0.00     0.114 C 
HETATM   28  C   UNK N   1      53.595  48.090  57.060  0.00  0.00     0.051 C 
HETATM   29  C   UNK N   1      52.652  46.751  58.989  0.00  0.00     0.050 C 
ENDBRANCH   1  23
BRANCH   1  30
HETATM   30  O   UNK N   1      50.434  49.110  58.862  0.00  0.00    -0.386 OA
HETATM   31  H   UNK N   1      50.201  48.149  58.932  0.00  0.00     0.210 HD
ENDBRANCH   1  30
BRANCH   9  32
HETATM   32  O   UNK N   1      50.511  58.575  56.257  0.00  0.00    -0.395 OA
HETATM   33  H   UNK N   1      50.347  58.776  57.215  0.00  0.00     0.210 HD
ENDBRANCH   9  32
TORSDOF 3
ENDMDL
MODEL 9
REMARK VINA RESULT:      -4.7      4.869      8.652
REMARK  3 active torsions:
REMARK  status: ('A' for Active; 'I' for Inactive)
REMARK    1  A    between atoms: C_4  and  C_5 
REMARK    2  A    between atoms: C_5  and  O_6 
REMARK    3  A    between atoms: C_15  and  O_16 
ROOT
HETATM    1  C   UNK N   1      29.355  45.983  58.239  0.00  0.00     0.093 C 
HETATM    2  C   UNK N   1      29.401  45.214  59.588  0.00  0.00     0.032 C 
HETATM    3  C   UNK N   1      30.560  44.142  59.474  0.00  0.00    -0.030 C 
HETATM    4  C   UNK N   1      30.048  42.622  59.652  0.00  0.00    -0.032 C 
HETATM    5  C   UNK N   1      29.055  42.455  60.905  0.00  0.00     0.003 C 
HETATM    6  C   UNK N   1      29.538  41.528  62.097  0.00  0.00    -0.035 C 
HETATM    7  C   UNK N   1      30.161  40.148  61.558  0.00  0.00     0.004 C 
HETATM    8  C   UNK N   1      29.263  38.871  61.766  0.00  0.00    -0.017 C 
HETATM    9  C   UNK N   1      28.877  38.758  63.293  0.00  0.00     0.126 C 
HETATM   10  C   UNK N   1      28.531  40.098  63.999  0.00  0.00     0.033 C 
HETATM   11  C   UNK N   1      28.308  41.266  63.049  0.00  0.00     0.012 C 
HETATM   12  C   UNK N   1      27.987  38.876  60.863  0.00  0.00     0.018 C 
HETATM   13  C   UNK N   1      30.037  37.584  61.357  0.00  0.00     0.018 C 
HETATM   14  C   UNK N   1      30.783  40.217  60.128  0.00  0.00     0.007 C 
HETATM   15  C   UNK N   1      31.248  41.616  59.746  0.00  0.00     0.011 C 
HETATM   16  C   UNK N   1      30.623  42.241  62.971  0.00  0.00     0.016 C 
HETATM   17  C   UNK N   1      28.379  43.787  61.363  0.00  0.00     0.007 C 
HETATM   18  C   UNK N   1      28.068  44.698  60.183  0.00  0.00     0.009 C 
HETATM   19  C   UNK N   1      29.225  42.187  58.370  0.00  0.00     0.016 C 
HETATM   20  C   UNK N   1      31.196  44.445  58.082  0.00  0.00     0.013 C 
HETATM   21  C   UNK N   1      30.845  45.902  57.817  0.00  0.00     0.042 C 
HETATM   22  C   UNK N   1      31.638  44.527  60.544  0.00  0.00     0.016 C 
ENDROOT
BRANCH   1  23
HETATM   23  C   UNK N   1      28.810  47.469  58.284  0.00  0.00     0.099 C 
HETATM   24  O   UNK N   1      29.367  48.202  57.257  0.00  0.00    -0.307 OA
HETATM   25  C   UNK N   1      28.469  49.018  56.679  0.00  0.00     0.259 C 
HETATM   26  O   UNK N   1      28.791  49.875  55.875  0.00  0.00    -0.265 OA
HETATM   27  C   UNK N   1      27.120  48.920  57.280  0.00  0.00     0.114 C 
HETATM   28  C   UNK N   1      27.288  47.573  57.985  0.00  0.00     0.051 C 
HETATM   29  C   UNK N   1      29.118  48.214  59.612  0.00  0.00     0.050 C 
ENDBRANCH   1  23
BRANCH   1  30
HETATM   30  O   UNK N   1      28.576  45.227  57.335  0.00  0.00    -0.386 OA
HETATM   31  H   UNK N   1      27.619  45.443  57.485  0.00  0.00     0.210 HD
ENDBRANCH   1  30
BRANCH   9  32
HETATM   32  O   UNK N   1      29.928  38.168  64.021  0.00  0.00    -0.395 OA
HETATM   33  H   UNK N   1      30.774  38.578  63.702  0.00  0.00     0.210 HD
ENDBRANCH   9  32
TORSDOF 3
ENDMDL
