MODEL 1
REMARK VINA RESULT:      -7.4      0.000      0.000
REMARK  8 active torsions:
REMARK  status: ('A' for Active; 'I' for Inactive)
REMARK    1  A    between atoms: C_2  and  O_3 
REMARK    2  A    between atoms: C_2  and  C_5 
REMARK    3  A    between atoms: C_5  and  C_6 
REMARK    4  A    between atoms: C_6  and  C_7 
REMARK    5  A    between atoms: C_7  and  C_8 
REMARK    6  A    between atoms: C_8  and  C_9 
REMARK    7  A    between atoms: C_12  and  C_16 
REMARK    8  A    between atoms: C_16  and  O_17 
ROOT
HETATM    1  C   UNK N   1      41.119  46.116  48.051  0.00  0.00    -0.036 C 
HETATM    2  C   UNK N   1      41.267  45.751  49.597  0.00  0.00     0.007 C 
HETATM    3  C   UNK N   1      40.756  44.315  50.061  0.00  0.00    -0.014 C 
HETATM    4  C   UNK N   1      40.788  44.248  51.607  0.00  0.00    -0.052 C 
HETATM    5  C   UNK N   1      41.658  45.000  52.324  0.00  0.00    -0.021 C 
HETATM    6  C   UNK N   1      42.610  45.998  51.718  0.00  0.00     0.028 C 
HETATM    7  C   UNK N   1      42.673  45.985  50.187  0.00  0.00     0.010 C 
HETATM    8  C   UNK N   1      39.315  44.122  49.513  0.00  0.00     0.014 C 
HETATM    9  C   UNK N   1      39.225  44.358  47.992  0.00  0.00     0.006 C 
HETATM   10  C   UNK N   1      39.627  45.804  47.613  0.00  0.00    -0.010 C 
HETATM   11  C   UNK N   1      38.567  46.799  48.154  0.00  0.00     0.011 C 
HETATM   12  C   UNK N   1      41.613  43.088  49.619  0.00  0.00     0.020 C 
HETATM   13  C   UNK N   1      41.397  47.642  47.875  0.00  0.00     0.016 C 
ENDROOT
BRANCH   1  14
HETATM   14  C   UNK N   1      42.166  45.360  47.143  0.00  0.00     0.010 C 
BRANCH  14  15
HETATM   15  C   UNK N   1      41.856  45.312  45.625  0.00  0.00     0.005 C 
BRANCH  15  16
HETATM   16  C   UNK N   1      41.756  43.873  45.046  0.00  0.00    -0.009 C 
HETATM   17  C   UNK N   1      40.298  43.456  44.786  0.00  0.00     0.010 C 
BRANCH  16  18
HETATM   18  C   UNK N   1      42.399  42.855  46.018  0.00  0.00     0.114 C 
BRANCH  18  19
HETATM   19  C   UNK N   1      43.623  42.192  45.435  0.00  0.00     0.139 C 
HETATM   20  O   UNK N   1      44.688  42.255  46.028  0.00  0.00    -0.650 OA
BRANCH  19  21
HETATM   21  O   UNK N   1      43.554  41.525  44.262  0.00  0.00    -0.776 OA
HETATM   22  H   UNK N   1      42.897  41.752  43.589  0.00  0.00     0.167 HD
ENDBRANCH  19  21
ENDBRANCH  18  19
ENDBRANCH  16  18
ENDBRANCH  15  16
ENDBRANCH  14  15
ENDBRANCH   1  14
BRANCH   4  23
HETATM   23  C   UNK N   1      39.861  43.316  52.375  0.00  0.00     0.199 C 
BRANCH  23  24
HETATM   24  O   UNK N   1      39.609  43.819  53.658  0.00  0.00    -0.397 OA
HETATM   25  H   UNK N   1      39.971  44.746  53.671  0.00  0.00     0.209 HD
ENDBRANCH  23  24
ENDBRANCH   4  23
TORSDOF 8
ENDMDL
MODEL 2
REMARK VINA RESULT:      -6.0      3.869      6.089
REMARK  8 active torsions:
REMARK  status: ('A' for Active; 'I' for Inactive)
REMARK    1  A    between atoms: C_2  and  O_3 
REMARK    2  A    between atoms: C_2  and  C_5 
REMARK    3  A    between atoms: C_5  and  C_6 
REMARK    4  A    between atoms: C_6  and  C_7 
REMARK    5  A    between atoms: C_7  and  C_8 
REMARK    6  A    between atoms: C_8  and  C_9 
REMARK    7  A    between atoms: C_12  and  C_16 
REMARK    8  A    between atoms: C_16  and  O_17 
ROOT
HETATM    1  C   UNK N   1      41.356  47.358  46.588  0.00  0.00    -0.036 C 
HETATM    2  C   UNK N   1      41.797  45.899  46.114  0.00  0.00     0.007 C 
HETATM    3  C   UNK N   1      41.216  44.659  46.929  0.00  0.00    -0.014 C 
HETATM    4  C   UNK N   1      41.928  43.370  46.453  0.00  0.00    -0.052 C 
HETATM    5  C   UNK N   1      42.435  43.270  45.200  0.00  0.00    -0.021 C 
HETATM    6  C   UNK N   1      42.420  44.390  44.191  0.00  0.00     0.028 C 
HETATM    7  C   UNK N   1      41.613  45.624  44.607  0.00  0.00     0.010 C 
HETATM    8  C   UNK N   1      41.468  44.923  48.439  0.00  0.00     0.014 C 
HETATM    9  C   UNK N   1      40.919  46.288  48.900  0.00  0.00     0.006 C 
HETATM   10  C   UNK N   1      41.598  47.460  48.152  0.00  0.00    -0.010 C 
HETATM   11  C   UNK N   1      43.088  47.554  48.576  0.00  0.00     0.011 C 
HETATM   12  C   UNK N   1      39.701  44.338  46.736  0.00  0.00     0.020 C 
HETATM   13  C   UNK N   1      42.255  48.406  45.860  0.00  0.00     0.016 C 
ENDROOT
BRANCH   1  14
HETATM   14  C   UNK N   1      39.863  47.699  46.204  0.00  0.00     0.010 C 
BRANCH  14  15
HETATM   15  C   UNK N   1      39.556  49.183  45.878  0.00  0.00     0.005 C 
BRANCH  15  16
HETATM   16  C   UNK N   1      39.386  49.475  44.362  0.00  0.00    -0.009 C 
HETATM   17  C   UNK N   1      40.183  50.714  43.920  0.00  0.00     0.010 C 
BRANCH  16  18
HETATM   18  C   UNK N   1      37.892  49.696  44.020  0.00  0.00     0.114 C 
BRANCH  18  19
HETATM   19  C   UNK N   1      37.484  49.009  42.739  0.00  0.00     0.139 C 
HETATM   20  O   UNK N   1      36.857  47.963  42.786  0.00  0.00    -0.650 OA
BRANCH  19  21
HETATM   21  O   UNK N   1      37.803  49.541  41.539  0.00  0.00    -0.776 OA
HETATM   22  H   UNK N   1      37.478  50.410  41.268  0.00  0.00     0.167 HD
ENDBRANCH  19  21
ENDBRANCH  18  19
ENDBRANCH  16  18
ENDBRANCH  15  16
ENDBRANCH  14  15
ENDBRANCH   1  14
BRANCH   4  23
HETATM   23  C   UNK N   1      42.062  42.160  47.367  0.00  0.00     0.199 C 
BRANCH  23  24
HETATM   24  O   UNK N   1      42.877  41.184  46.777  0.00  0.00    -0.397 OA
HETATM   25  H   UNK N   1      43.107  41.524  45.871  0.00  0.00     0.209 HD
ENDBRANCH  23  24
ENDBRANCH   4  23
TORSDOF 8
ENDMDL
MODEL 3
REMARK VINA RESULT:      -5.6     14.544     17.678
REMARK  8 active torsions:
REMARK  status: ('A' for Active; 'I' for Inactive)
REMARK    1  A    between atoms: C_2  and  O_3 
REMARK    2  A    between atoms: C_2  and  C_5 
REMARK    3  A    between atoms: C_5  and  C_6 
REMARK    4  A    between atoms: C_6  and  C_7 
REMARK    5  A    between atoms: C_7  and  C_8 
REMARK    6  A    between atoms: C_8  and  C_9 
REMARK    7  A    between atoms: C_12  and  C_16 
REMARK    8  A    between atoms: C_16  and  O_17 
ROOT
HETATM    1  C   UNK N   1      29.575  55.302  41.217  0.00  0.00    -0.036 C 
HETATM    2  C   UNK N   1      28.428  54.515  40.434  0.00  0.00     0.007 C 
HETATM    3  C   UNK N   1      28.887  53.405  39.388  0.00  0.00    -0.014 C 
HETATM    4  C   UNK N   1      27.649  52.924  38.593  0.00  0.00    -0.052 C 
HETATM    5  C   UNK N   1      26.406  52.977  39.130  0.00  0.00    -0.021 C 
HETATM    6  C   UNK N   1      26.097  53.552  40.488  0.00  0.00     0.028 C 
HETATM    7  C   UNK N   1      27.324  53.917  41.331  0.00  0.00     0.010 C 
HETATM    8  C   UNK N   1      29.951  54.043  38.453  0.00  0.00     0.014 C 
HETATM    9  C   UNK N   1      31.114  54.687  39.234  0.00  0.00     0.006 C 
HETATM   10  C   UNK N   1      30.622  55.832  40.151  0.00  0.00    -0.010 C 
HETATM   11  C   UNK N   1      30.125  57.018  39.282  0.00  0.00     0.011 C 
HETATM   12  C   UNK N   1      29.483  52.088  39.977  0.00  0.00     0.020 C 
HETATM   13  C   UNK N   1      28.926  56.519  41.949  0.00  0.00     0.016 C 
ENDROOT
BRANCH   1  14
HETATM   14  C   UNK N   1      30.267  54.422  42.330  0.00  0.00     0.010 C 
BRANCH  14  15
HETATM   15  C   UNK N   1      30.848  55.183  43.549  0.00  0.00     0.005 C 
BRANCH  15  16
HETATM   16  C   UNK N   1      32.008  54.437  44.265  0.00  0.00    -0.009 C 
HETATM   17  C   UNK N   1      31.516  53.184  45.008  0.00  0.00     0.010 C 
BRANCH  16  18
HETATM   18  C   UNK N   1      32.707  55.375  45.280  0.00  0.00     0.114 C 
BRANCH  18  19
HETATM   19  C   UNK N   1      34.125  55.704  44.881  0.00  0.00     0.139 C 
HETATM   20  O   UNK N   1      34.625  55.158  43.911  0.00  0.00    -0.650 OA
BRANCH  19  21
HETATM   21  O   UNK N   1      34.850  56.599  45.587  0.00  0.00    -0.776 OA
HETATM   22  H   UNK N   1      35.432  57.236  45.150  0.00  0.00     0.167 HD
ENDBRANCH  19  21
ENDBRANCH  18  19
ENDBRANCH  16  18
ENDBRANCH  15  16
ENDBRANCH  14  15
ENDBRANCH   1  14
BRANCH   4  23
HETATM   23  C   UNK N   1      27.788  52.352  37.189  0.00  0.00     0.199 C 
BRANCH  23  24
HETATM   24  O   UNK N   1      26.951  51.240  37.025  0.00  0.00    -0.397 OA
HETATM   25  H   UNK N   1      26.063  51.503  37.386  0.00  0.00     0.209 HD
ENDBRANCH  23  24
ENDBRANCH   4  23
TORSDOF 8
ENDMDL
MODEL 4
REMARK VINA RESULT:      -5.5      3.825      5.399
REMARK  8 active torsions:
REMARK  status: ('A' for Active; 'I' for Inactive)
REMARK    1  A    between atoms: C_2  and  O_3 
REMARK    2  A    between atoms: C_2  and  C_5 
REMARK    3  A    between atoms: C_5  and  C_6 
REMARK    4  A    between atoms: C_6  and  C_7 
REMARK    5  A    between atoms: C_7  and  C_8 
REMARK    6  A    between atoms: C_8  and  C_9 
REMARK    7  A    between atoms: C_12  and  C_16 
REMARK    8  A    between atoms: C_16  and  O_17 
ROOT
HETATM    1  C   UNK N   1      41.266  46.963  46.482  0.00  0.00    -0.036 C 
HETATM    2  C   UNK N   1      41.472  45.560  47.216  0.00  0.00     0.007 C 
HETATM    3  C   UNK N   1      41.144  45.496  48.774  0.00  0.00    -0.014 C 
HETATM    4  C   UNK N   1      41.612  44.128  49.327  0.00  0.00    -0.052 C 
HETATM    5  C   UNK N   1      41.676  43.034  48.530  0.00  0.00    -0.021 C 
HETATM    6  C   UNK N   1      41.373  43.045  47.054  0.00  0.00     0.028 C 
HETATM    7  C   UNK N   1      40.794  44.360  46.522  0.00  0.00     0.010 C 
HETATM    8  C   UNK N   1      41.886  46.673  49.465  0.00  0.00     0.014 C 
HETATM    9  C   UNK N   1      41.570  48.034  48.814  0.00  0.00     0.006 C 
HETATM   10  C   UNK N   1      42.011  48.075  47.331  0.00  0.00    -0.010 C 
HETATM   11  C   UNK N   1      43.559  48.032  47.246  0.00  0.00     0.011 C 
HETATM   12  C   UNK N   1      39.639  45.564  49.179  0.00  0.00     0.020 C 
HETATM   13  C   UNK N   1      41.914  46.878  45.065  0.00  0.00     0.016 C 
ENDROOT
BRANCH   1  14
HETATM   14  C   UNK N   1      39.743  47.317  46.261  0.00  0.00     0.010 C 
BRANCH  14  15
HETATM   15  C   UNK N   1      39.409  48.813  46.029  0.00  0.00     0.005 C 
BRANCH  15  16
HETATM   16  C   UNK N   1      39.413  49.237  44.534  0.00  0.00    -0.009 C 
HETATM   17  C   UNK N   1      40.381  50.402  44.267  0.00  0.00     0.010 C 
BRANCH  16  18
HETATM   18  C   UNK N   1      37.991  49.659  44.090  0.00  0.00     0.114 C 
BRANCH  18  19
HETATM   19  C   UNK N   1      37.574  49.012  42.792  0.00  0.00     0.139 C 
HETATM   20  O   UNK N   1      36.881  48.008  42.810  0.00  0.00    -0.650 OA
BRANCH  19  21
HETATM   21  O   UNK N   1      37.958  49.533  41.607  0.00  0.00    -0.776 OA
HETATM   22  H   UNK N   1      38.884  49.528  41.328  0.00  0.00     0.167 HD
ENDBRANCH  19  21
ENDBRANCH  18  19
ENDBRANCH  16  18
ENDBRANCH  15  16
ENDBRANCH  14  15
ENDBRANCH   1  14
BRANCH   4  23
HETATM   23  C   UNK N   1      41.992  43.959  50.791  0.00  0.00     0.199 C 
BRANCH  23  24
HETATM   24  O   UNK N   1      40.967  43.313  51.495  0.00  0.00    -0.397 OA
HETATM   25  H   UNK N   1      41.337  42.438  51.788  0.00  0.00     0.209 HD
ENDBRANCH  23  24
ENDBRANCH   4  23
TORSDOF 8
ENDMDL
MODEL 5
REMARK VINA RESULT:      -5.0     14.870     17.824
REMARK  8 active torsions:
REMARK  status: ('A' for Active; 'I' for Inactive)
REMARK    1  A    between atoms: C_2  and  O_3 
REMARK    2  A    between atoms: C_2  and  C_5 
REMARK    3  A    between atoms: C_5  and  C_6 
REMARK    4  A    between atoms: C_6  and  C_7 
REMARK    5  A    between atoms: C_7  and  C_8 
REMARK    6  A    between atoms: C_8  and  C_9 
REMARK    7  A    between atoms: C_12  and  C_16 
REMARK    8  A    between atoms: C_16  and  O_17 
ROOT
HETATM    1  C   UNK N   1      30.192  55.262  41.197  0.00  0.00    -0.036 C 
HETATM    2  C   UNK N   1      28.861  56.039  40.783  0.00  0.00     0.007 C 
HETATM    3  C   UNK N   1      27.472  55.312  41.068  0.00  0.00    -0.014 C 
HETATM    4  C   UNK N   1      26.336  56.125  40.403  0.00  0.00    -0.052 C 
HETATM    5  C   UNK N   1      26.454  57.460  40.201  0.00  0.00    -0.021 C 
HETATM    6  C   UNK N   1      27.689  58.258  40.531  0.00  0.00     0.028 C 
HETATM    7  C   UNK N   1      28.770  57.489  41.299  0.00  0.00     0.010 C 
HETATM    8  C   UNK N   1      27.559  53.874  40.485  0.00  0.00     0.014 C 
HETATM    9  C   UNK N   1      28.789  53.101  41.001  0.00  0.00     0.006 C 
HETATM   10  C   UNK N   1      30.112  53.795  40.599  0.00  0.00    -0.010 C 
HETATM   11  C   UNK N   1      30.300  53.708  39.062  0.00  0.00     0.011 C 
HETATM   12  C   UNK N   1      27.027  55.206  42.560  0.00  0.00     0.020 C 
HETATM   13  C   UNK N   1      31.413  56.006  40.570  0.00  0.00     0.016 C 
ENDROOT
BRANCH   1  14
HETATM   14  C   UNK N   1      30.427  55.245  42.758  0.00  0.00     0.010 C 
BRANCH  14  15
HETATM   15  C   UNK N   1      31.902  55.190  43.234  0.00  0.00     0.005 C 
BRANCH  15  16
HETATM   16  C   UNK N   1      32.067  54.867  44.744  0.00  0.00    -0.009 C 
HETATM   17  C   UNK N   1      33.472  55.223  45.260  0.00  0.00     0.010 C 
BRANCH  16  18
HETATM   18  C   UNK N   1      31.807  53.363  45.006  0.00  0.00     0.114 C 
BRANCH  18  19
HETATM   19  C   UNK N   1      32.544  52.472  44.037  0.00  0.00     0.139 C 
HETATM   20  O   UNK N   1      31.953  51.994  43.082  0.00  0.00    -0.650 OA
BRANCH  19  21
HETATM   21  O   UNK N   1      33.854  52.196  44.213  0.00  0.00    -0.776 OA
HETATM   22  H   UNK N   1      34.392  51.819  43.503  0.00  0.00     0.167 HD
ENDBRANCH  19  21
ENDBRANCH  18  19
ENDBRANCH  16  18
ENDBRANCH  15  16
ENDBRANCH  14  15
ENDBRANCH   1  14
BRANCH   4  23
HETATM   23  C   UNK N   1      25.036  55.459  39.975  0.00  0.00     0.199 C 
BRANCH  23  24
HETATM   24  O   UNK N   1      24.071  55.565  40.985  0.00  0.00    -0.397 OA
HETATM   25  H   UNK N   1      24.550  55.418  41.845  0.00  0.00     0.209 HD
ENDBRANCH  23  24
ENDBRANCH   4  23
TORSDOF 8
ENDMDL
MODEL 6
REMARK VINA RESULT:      -4.7     14.579     17.424
REMARK  8 active torsions:
REMARK  status: ('A' for Active; 'I' for Inactive)
REMARK    1  A    between atoms: C_2  and  O_3 
REMARK    2  A    between atoms: C_2  and  C_5 
REMARK    3  A    between atoms: C_5  and  C_6 
REMARK    4  A    between atoms: C_6  and  C_7 
REMARK    5  A    between atoms: C_7  and  C_8 
REMARK    6  A    between atoms: C_8  and  C_9 
REMARK    7  A    between atoms: C_12  and  C_16 
REMARK    8  A    between atoms: C_16  and  O_17 
ROOT
HETATM    1  C   UNK N   1      28.986  53.259  40.186  0.00  0.00    -0.036 C 
HETATM    2  C   UNK N   1      29.207  54.513  39.223  0.00  0.00     0.007 C 
HETATM    3  C   UNK N   1      29.696  55.873  39.895  0.00  0.00    -0.014 C 
HETATM    4  C   UNK N   1      29.639  57.002  38.838  0.00  0.00    -0.052 C 
HETATM    5  C   UNK N   1      29.766  56.732  37.516  0.00  0.00    -0.021 C 
HETATM    6  C   UNK N   1      29.907  55.344  36.947  0.00  0.00     0.028 C 
HETATM    7  C   UNK N   1      30.087  54.233  37.987  0.00  0.00     0.010 C 
HETATM    8  C   UNK N   1      28.761  56.172  41.098  0.00  0.00     0.014 C 
HETATM    9  C   UNK N   1      28.664  54.988  42.080  0.00  0.00     0.006 C 
HETATM   10  C   UNK N   1      28.079  53.727  41.400  0.00  0.00    -0.010 C 
HETATM   11  C   UNK N   1      26.589  53.970  41.044  0.00  0.00     0.011 C 
HETATM   12  C   UNK N   1      31.172  55.915  40.402  0.00  0.00     0.020 C 
HETATM   13  C   UNK N   1      28.238  52.148  39.384  0.00  0.00     0.016 C 
ENDROOT
BRANCH   1  14
HETATM   14  C   UNK N   1      30.343  52.623  40.681  0.00  0.00     0.010 C 
BRANCH  14  15
HETATM   15  C   UNK N   1      30.463  51.081  40.572  0.00  0.00     0.005 C 
BRANCH  15  16
HETATM   16  C   UNK N   1      31.666  50.484  41.354  0.00  0.00    -0.009 C 
HETATM   17  C   UNK N   1      31.422  49.020  41.759  0.00  0.00     0.010 C 
BRANCH  16  18
HETATM   18  C   UNK N   1      31.943  51.314  42.632  0.00  0.00     0.114 C 
BRANCH  18  19
HETATM   19  C   UNK N   1      33.088  50.758  43.444  0.00  0.00     0.139 C 
HETATM   20  O   UNK N   1      34.237  50.946  43.080  0.00  0.00    -0.650 OA
BRANCH  19  21
HETATM   21  O   UNK N   1      32.854  50.056  44.574  0.00  0.00    -0.776 OA
HETATM   22  H   UNK N   1      33.468  49.375  44.883  0.00  0.00     0.167 HD
ENDBRANCH  19  21
ENDBRANCH  18  19
ENDBRANCH  16  18
ENDBRANCH  15  16
ENDBRANCH  14  15
ENDBRANCH   1  14
BRANCH   4  23
HETATM   23  C   UNK N   1      29.462  58.457  39.248  0.00  0.00     0.199 C 
BRANCH  23  24
HETATM   24  O   UNK N   1      28.233  58.951  38.792  0.00  0.00    -0.397 OA
HETATM   25  H   UNK N   1      27.532  58.495  39.330  0.00  0.00     0.209 HD
ENDBRANCH  23  24
ENDBRANCH   4  23
TORSDOF 8
ENDMDL
MODEL 7
REMARK VINA RESULT:      -4.7     15.579     18.575
REMARK  8 active torsions:
REMARK  status: ('A' for Active; 'I' for Inactive)
REMARK    1  A    between atoms: C_2  and  O_3 
REMARK    2  A    between atoms: C_2  and  C_5 
REMARK    3  A    between atoms: C_5  and  C_6 
REMARK    4  A    between atoms: C_6  and  C_7 
REMARK    5  A    between atoms: C_7  and  C_8 
REMARK    6  A    between atoms: C_8  and  C_9 
REMARK    7  A    between atoms: C_12  and  C_16 
REMARK    8  A    between atoms: C_16  and  O_17 
ROOT
HETATM    1  C   UNK N   1      30.051  55.343  40.887  0.00  0.00    -0.036 C 
HETATM    2  C   UNK N   1      29.129  56.227  39.930  0.00  0.00     0.007 C 
HETATM    3  C   UNK N   1      27.561  56.216  40.211  0.00  0.00    -0.014 C 
HETATM    4  C   UNK N   1      26.840  56.951  39.056  0.00  0.00    -0.052 C 
HETATM    5  C   UNK N   1      27.465  57.917  38.341  0.00  0.00    -0.021 C 
HETATM    6  C   UNK N   1      28.903  58.322  38.544  0.00  0.00     0.028 C 
HETATM    7  C   UNK N   1      29.587  57.690  39.761  0.00  0.00     0.010 C 
HETATM    8  C   UNK N   1      27.106  54.734  40.315  0.00  0.00     0.014 C 
HETATM    9  C   UNK N   1      27.933  53.933  41.341  0.00  0.00     0.006 C 
HETATM   10  C   UNK N   1      29.431  53.885  40.956  0.00  0.00    -0.010 C 
HETATM   11  C   UNK N   1      29.611  53.038  39.668  0.00  0.00     0.011 C 
HETATM   12  C   UNK N   1      27.071  56.966  41.490  0.00  0.00     0.020 C 
HETATM   13  C   UNK N   1      31.479  55.265  40.262  0.00  0.00     0.016 C 
ENDROOT
BRANCH   1  14
HETATM   14  C   UNK N   1      30.221  55.975  42.323  0.00  0.00     0.010 C 
BRANCH  14  15
HETATM   15  C   UNK N   1      30.380  54.979  43.501  0.00  0.00     0.005 C 
BRANCH  15  16
HETATM   16  C   UNK N   1      31.828  54.450  43.691  0.00  0.00    -0.009 C 
HETATM   17  C   UNK N   1      31.870  52.917  43.814  0.00  0.00     0.010 C 
BRANCH  16  18
HETATM   18  C   UNK N   1      32.467  55.068  44.958  0.00  0.00     0.114 C 
BRANCH  18  19
HETATM   19  C   UNK N   1      33.828  55.663  44.688  0.00  0.00     0.139 C 
HETATM   20  O   UNK N   1      34.594  55.101  43.921  0.00  0.00    -0.650 OA
BRANCH  19  21
HETATM   21  O   UNK N   1      34.209  56.813  45.284  0.00  0.00    -0.776 OA
HETATM   22  H   UNK N   1      33.749  57.156  46.063  0.00  0.00     0.167 HD
ENDBRANCH  19  21
ENDBRANCH  18  19
ENDBRANCH  16  18
ENDBRANCH  15  16
ENDBRANCH  14  15
ENDBRANCH   1  14
BRANCH   4  23
HETATM   23  C   UNK N   1      25.396  56.630  38.698  0.00  0.00     0.199 C 
BRANCH  23  24
HETATM   24  O   UNK N   1      24.548  57.678  39.083  0.00  0.00    -0.397 OA
HETATM   25  H   UNK N   1      25.055  58.519  38.927  0.00  0.00     0.209 HD
ENDBRANCH  23  24
ENDBRANCH   4  23
TORSDOF 8
ENDMDL
MODEL 8
REMARK VINA RESULT:      -4.6     12.904     15.554
REMARK  8 active torsions:
REMARK  status: ('A' for Active; 'I' for Inactive)
REMARK    1  A    between atoms: C_2  and  O_3 
REMARK    2  A    between atoms: C_2  and  C_5 
REMARK    3  A    between atoms: C_5  and  C_6 
REMARK    4  A    between atoms: C_6  and  C_7 
REMARK    5  A    between atoms: C_7  and  C_8 
REMARK    6  A    between atoms: C_8  and  C_9 
REMARK    7  A    between atoms: C_12  and  C_16 
REMARK    8  A    between atoms: C_16  and  O_17 
ROOT
HETATM    1  C   UNK N   1      29.406  41.253  54.969  0.00  0.00    -0.036 C 
HETATM    2  C   UNK N   1      28.601  41.282  53.591  0.00  0.00     0.007 C 
HETATM    3  C   UNK N   1      27.078  40.816  53.625  0.00  0.00    -0.014 C 
HETATM    4  C   UNK N   1      26.554  40.713  52.172  0.00  0.00    -0.052 C 
HETATM    5  C   UNK N   1      27.083  41.469  51.180  0.00  0.00    -0.021 C 
HETATM    6  C   UNK N   1      28.243  42.412  51.365  0.00  0.00     0.028 C 
HETATM    7  C   UNK N   1      28.689  42.614  52.817  0.00  0.00     0.010 C 
HETATM    8  C   UNK N   1      27.016  39.444  54.350  0.00  0.00     0.014 C 
HETATM    9  C   UNK N   1      27.692  39.478  55.736  0.00  0.00     0.006 C 
HETATM   10  C   UNK N   1      29.195  39.827  55.631  0.00  0.00    -0.010 C 
HETATM   11  C   UNK N   1      29.952  38.667  54.933  0.00  0.00     0.011 C 
HETATM   12  C   UNK N   1      26.063  41.779  54.316  0.00  0.00     0.020 C 
HETATM   13  C   UNK N   1      30.922  41.456  54.658  0.00  0.00     0.016 C 
ENDROOT
BRANCH   1  14
HETATM   14  C   UNK N   1      28.985  42.419  55.946  0.00  0.00     0.010 C 
BRANCH  14  15
HETATM   15  C   UNK N   1      28.955  42.077  57.457  0.00  0.00     0.005 C 
BRANCH  15  16
HETATM   16  C   UNK N   1      30.339  42.177  58.155  0.00  0.00    -0.009 C 
HETATM   17  C   UNK N   1      30.332  41.525  59.548  0.00  0.00     0.010 C 
BRANCH  16  18
HETATM   18  C   UNK N   1      30.763  43.659  58.302  0.00  0.00     0.114 C 
BRANCH  18  19
HETATM   19  C   UNK N   1      32.097  43.946  57.657  0.00  0.00     0.139 C 
HETATM   20  O   UNK N   1      32.984  43.109  57.699  0.00  0.00    -0.650 OA
BRANCH  19  21
HETATM   21  O   UNK N   1      32.321  45.121  57.029  0.00  0.00    -0.776 OA
HETATM   22  H   UNK N   1      31.867  45.932  57.296  0.00  0.00     0.167 HD
ENDBRANCH  19  21
ENDBRANCH  18  19
ENDBRANCH  16  18
ENDBRANCH  15  16
ENDBRANCH  14  15
ENDBRANCH   1  14
BRANCH   4  23
HETATM   23  C   UNK N   1      25.409  39.776  51.812  0.00  0.00     0.199 C 
BRANCH  23  24
HETATM   24  O   UNK N   1      25.351  39.580  50.425  0.00  0.00    -0.397 OA
HETATM   25  H   UNK N   1      26.265  39.308  50.143  0.00  0.00     0.209 HD
ENDBRANCH  23  24
ENDBRANCH   4  23
TORSDOF 8
ENDMDL
MODEL 9
REMARK VINA RESULT:      -4.5     13.849     16.557
REMARK  8 active torsions:
REMARK  status: ('A' for Active; 'I' for Inactive)
REMARK    1  A    between atoms: C_2  and  O_3 
REMARK    2  A    between atoms: C_2  and  C_5 
REMARK    3  A    between atoms: C_5  and  C_6 
REMARK    4  A    between atoms: C_6  and  C_7 
REMARK    5  A    between atoms: C_7  and  C_8 
REMARK    6  A    between atoms: C_8  and  C_9 
REMARK    7  A    between atoms: C_12  and  C_16 
REMARK    8  A    between atoms: C_16  and  O_17 
ROOT
HETATM    1  C   UNK N   1      30.326  53.727  40.933  0.00  0.00    -0.036 C 
HETATM    2  C   UNK N   1      31.395  53.484  42.093  0.00  0.00     0.007 C 
HETATM    3  C   UNK N   1      31.384  54.499  43.321  0.00  0.00    -0.014 C 
HETATM    4  C   UNK N   1      32.619  54.220  44.211  0.00  0.00    -0.052 C 
HETATM    5  C   UNK N   1      33.184  52.990  44.263  0.00  0.00    -0.021 C 
HETATM    6  C   UNK N   1      32.725  51.815  43.438  0.00  0.00     0.028 C 
HETATM    7  C   UNK N   1      31.433  52.044  42.648  0.00  0.00     0.010 C 
HETATM    8  C   UNK N   1      31.411  55.942  42.746  0.00  0.00     0.014 C 
HETATM    9  C   UNK N   1      30.288  56.189  41.719  0.00  0.00     0.006 C 
HETATM   10  C   UNK N   1      30.414  55.249  40.496  0.00  0.00    -0.010 C 
HETATM   11  C   UNK N   1      31.681  55.621  39.681  0.00  0.00     0.011 C 
HETATM   12  C   UNK N   1      30.183  54.392  44.312  0.00  0.00     0.020 C 
HETATM   13  C   UNK N   1      30.702  52.821  39.719  0.00  0.00     0.016 C 
ENDROOT
BRANCH   1  14
HETATM   14  C   UNK N   1      28.861  53.325  41.360  0.00  0.00     0.010 C 
BRANCH  14  15
HETATM   15  C   UNK N   1      28.069  52.441  40.361  0.00  0.00     0.005 C 
BRANCH  15  16
HETATM   16  C   UNK N   1      26.768  53.102  39.827  0.00  0.00    -0.009 C 
HETATM   17  C   UNK N   1      26.212  54.153  40.803  0.00  0.00     0.010 C 
BRANCH  16  18
HETATM   18  C   UNK N   1      25.681  52.029  39.578  0.00  0.00     0.114 C 
BRANCH  18  19
HETATM   19  C   UNK N   1      25.877  50.799  40.429  0.00  0.00     0.139 C 
HETATM   20  O   UNK N   1      26.308  49.774  39.925  0.00  0.00    -0.650 OA
BRANCH  19  21
HETATM   21  O   UNK N   1      25.583  50.817  41.747  0.00  0.00    -0.776 OA
HETATM   22  H   UNK N   1      26.048  51.402  42.361  0.00  0.00     0.167 HD
ENDBRANCH  19  21
ENDBRANCH  18  19
ENDBRANCH  16  18
ENDBRANCH  15  16
ENDBRANCH  14  15
ENDBRANCH   1  14
BRANCH   4  23
HETATM   23  C   UNK N   1      33.229  55.313  45.078  0.00  0.00     0.199 C 
BRANCH  23  24
HETATM   24  O   UNK N   1      34.492  55.679  44.593  0.00  0.00    -0.397 OA
HETATM   25  H   UNK N   1      34.561  55.297  43.678  0.00  0.00     0.209 HD
ENDBRANCH  23  24
ENDBRANCH   4  23
TORSDOF 8
ENDMDL
