MODEL 1
REMARK VINA RESULT:      -7.3      0.000      0.000
REMARK  7 active torsions:
REMARK  status: ('A' for Active; 'I' for Inactive)
REMARK    1  A    between atoms: C_2  and  C_3 
REMARK    2  A    between atoms: C_5  and  O_6 
REMARK    3  A    between atoms: C_8  and  O_9 
REMARK    4  A    between atoms: C_14  and  O_15 
REMARK    5  A    between atoms: C_17  and  C_20 
REMARK    6  A    between atoms: C_22  and  O_23 
REMARK    7  A    between atoms: C_25  and  O_26 
ROOT
HETATM    1  O   UNK N   1      42.207  47.284  48.199  0.00  0.00    -0.378 OA
HETATM    2  C   UNK N   1      41.024  46.595  48.581  0.00  0.00     0.163 C 
HETATM    3  C   UNK N   1      40.370  46.066  47.282  0.00  0.00     0.082 C 
HETATM    4  C   UNK N   1      40.844  47.028  46.277  0.00  0.00     0.117 C 
HETATM    5  C   UNK N   1      39.834  48.183  46.444  0.00  0.00     0.191 C 
HETATM    6  O   UNK N   1      38.601  47.609  46.851  0.00  0.00    -0.377 OA
HETATM    7  C   UNK N   1      38.857  46.260  47.206  0.00  0.00     0.179 C 
HETATM    8  C   UNK N   1      42.248  47.301  46.786  0.00  0.00     0.210 C 
ENDROOT
BRANCH   2   9
HETATM    9  C   UNK N   1      41.337  45.478  49.577  0.00  0.00    -0.026 A 
HETATM   10  C   UNK N   1      41.690  45.770  50.912  0.00  0.00     0.049 A 
HETATM   11  C   UNK N   1      41.937  44.740  51.841  0.00  0.00     0.101 A 
HETATM   12  C   UNK N   1      41.844  43.400  51.422  0.00  0.00     0.099 A 
HETATM   13  C   UNK N   1      41.510  43.106  50.095  0.00  0.00     0.040 A 
HETATM   14  C   UNK N   1      41.258  44.131  49.181  0.00  0.00     0.012 A 
BRANCH  11  15
HETATM   15  O   UNK N   1      42.256  45.010  53.137  0.00  0.00    -0.353 OA
HETATM   16  C   UNK N   1      41.545  45.853  53.969  0.00  0.00     0.210 C 
ENDBRANCH  11  15
BRANCH  12  17
HETATM   17  O   UNK N   1      42.069  42.384  52.283  0.00  0.00    -0.358 OA
HETATM   18  H   UNK N   1      42.926  42.247  52.711  0.00  0.00     0.218 HD
ENDBRANCH  12  17
ENDBRANCH   2   9
BRANCH   4  19
HETATM   19  O   UNK N   1      40.860  46.499  44.967  0.00  0.00    -0.384 OA
HETATM   20  H   UNK N   1      39.951  46.180  44.731  0.00  0.00     0.210 HD
ENDBRANCH   4  19
BRANCH   5  21
HETATM   21  C   UNK N   1      39.682  48.994  45.170  0.00  0.00    -0.024 A 
HETATM   22  C   UNK N   1      38.638  48.710  44.270  0.00  0.00     0.049 A 
HETATM   23  C   UNK N   1      38.490  49.450  43.079  0.00  0.00     0.101 A 
HETATM   24  C   UNK N   1      39.404  50.483  42.794  0.00  0.00     0.099 A 
HETATM   25  C   UNK N   1      40.447  50.759  43.687  0.00  0.00     0.040 A 
HETATM   26  C   UNK N   1      40.588  50.018  44.865  0.00  0.00     0.013 A 
BRANCH  23  27
HETATM   27  O   UNK N   1      37.486  49.189  42.197  0.00  0.00    -0.353 OA
HETATM   28  C   UNK N   1      36.440  48.317  42.422  0.00  0.00     0.210 C 
ENDBRANCH  23  27
BRANCH  24  29
HETATM   29  O   UNK N   1      39.293  51.219  41.667  0.00  0.00    -0.358 OA
HETATM   30  H   UNK N   1      40.064  51.517  41.164  0.00  0.00     0.218 HD
ENDBRANCH  24  29
ENDBRANCH   5  21
TORSDOF 7
ENDMDL
MODEL 2
REMARK VINA RESULT:      -7.1      0.852      8.815
REMARK  7 active torsions:
REMARK  status: ('A' for Active; 'I' for Inactive)
REMARK    1  A    between atoms: C_2  and  C_3 
REMARK    2  A    between atoms: C_5  and  O_6 
REMARK    3  A    between atoms: C_8  and  O_9 
REMARK    4  A    between atoms: C_14  and  O_15 
REMARK    5  A    between atoms: C_17  and  C_20 
REMARK    6  A    between atoms: C_22  and  O_23 
REMARK    7  A    between atoms: C_25  and  O_26 
ROOT
HETATM    1  O   UNK N   1      39.404  48.631  47.190  0.00  0.00    -0.378 OA
HETATM    2  C   UNK N   1      40.312  48.371  46.127  0.00  0.00     0.163 C 
HETATM    3  C   UNK N   1      40.353  46.836  45.934  0.00  0.00     0.082 C 
HETATM    4  C   UNK N   1      40.010  46.342  47.275  0.00  0.00     0.117 C 
HETATM    5  C   UNK N   1      41.374  46.397  47.992  0.00  0.00     0.191 C 
HETATM    6  O   UNK N   1      42.376  46.169  47.011  0.00  0.00    -0.377 OA
HETATM    7  C   UNK N   1      41.753  46.256  45.740  0.00  0.00     0.179 C 
HETATM    8  C   UNK N   1      38.993  47.382  47.710  0.00  0.00     0.210 C 
ENDROOT
BRANCH   2   9
HETATM    9  C   UNK N   1      39.894  49.111  44.856  0.00  0.00    -0.026 A 
HETATM   10  C   UNK N   1      38.803  48.668  44.080  0.00  0.00     0.049 A 
HETATM   11  C   UNK N   1      38.392  49.374  42.932  0.00  0.00     0.101 A 
HETATM   12  C   UNK N   1      39.095  50.531  42.549  0.00  0.00     0.099 A 
HETATM   13  C   UNK N   1      40.189  50.965  43.306  0.00  0.00     0.040 A 
HETATM   14  C   UNK N   1      40.586  50.265  44.448  0.00  0.00     0.012 A 
BRANCH  11  15
HETATM   15  O   UNK N   1      37.325  48.968  42.189  0.00  0.00    -0.353 OA
HETATM   16  C   UNK N   1      36.392  48.030  42.587  0.00  0.00     0.210 C 
ENDBRANCH  11  15
BRANCH  12  17
HETATM   17  O   UNK N   1      38.730  51.238  41.457  0.00  0.00    -0.358 OA
HETATM   18  H   UNK N   1      38.022  51.897  41.479  0.00  0.00     0.218 HD
ENDBRANCH  12  17
ENDBRANCH   2   9
BRANCH   4  19
HETATM   19  O   UNK N   1      39.450  45.043  47.261  0.00  0.00    -0.384 OA
HETATM   20  H   UNK N   1      39.549  44.654  46.355  0.00  0.00     0.210 HD
ENDBRANCH   4  19
BRANCH   5  21
HETATM   21  C   UNK N   1      41.463  45.393  49.127  0.00  0.00    -0.024 A 
HETATM   22  C   UNK N   1      41.848  45.811  50.413  0.00  0.00     0.049 A 
HETATM   23  C   UNK N   1      41.943  44.887  51.474  0.00  0.00     0.101 A 
HETATM   24  C   UNK N   1      41.647  43.531  51.234  0.00  0.00     0.099 A 
HETATM   25  C   UNK N   1      41.272  43.116  49.950  0.00  0.00     0.040 A 
HETATM   26  C   UNK N   1      41.183  44.038  48.902  0.00  0.00     0.013 A 
BRANCH  23  27
HETATM   27  O   UNK N   1      42.313  45.273  52.727  0.00  0.00    -0.353 OA
HETATM   28  C   UNK N   1      41.442  45.596  53.747  0.00  0.00     0.210 C 
ENDBRANCH  23  27
BRANCH  24  29
HETATM   29  O   UNK N   1      41.720  42.616  52.224  0.00  0.00    -0.358 OA
HETATM   30  H   UNK N   1      42.414  41.943  52.259  0.00  0.00     0.218 HD
ENDBRANCH  24  29
ENDBRANCH   5  21
TORSDOF 7
ENDMDL
MODEL 3
REMARK VINA RESULT:      -6.5      1.265      2.177
REMARK  7 active torsions:
REMARK  status: ('A' for Active; 'I' for Inactive)
REMARK    1  A    between atoms: C_2  and  C_3 
REMARK    2  A    between atoms: C_5  and  O_6 
REMARK    3  A    between atoms: C_8  and  O_9 
REMARK    4  A    between atoms: C_14  and  O_15 
REMARK    5  A    between atoms: C_17  and  C_20 
REMARK    6  A    between atoms: C_22  and  O_23 
REMARK    7  A    between atoms: C_25  and  O_26 
ROOT
HETATM    1  O   UNK N   1      39.409  45.881  47.763  0.00  0.00    -0.378 OA
HETATM    2  C   UNK N   1      40.731  46.232  48.151  0.00  0.00     0.163 C 
HETATM    3  C   UNK N   1      40.816  47.777  48.120  0.00  0.00     0.082 C 
HETATM    4  C   UNK N   1      39.801  48.127  47.116  0.00  0.00     0.117 C 
HETATM    5  C   UNK N   1      40.585  47.950  45.799  0.00  0.00     0.191 C 
HETATM    6  O   UNK N   1      41.944  48.256  46.072  0.00  0.00    -0.377 OA
HETATM    7  C   UNK N   1      42.087  48.332  47.481  0.00  0.00     0.179 C 
HETATM    8  C   UNK N   1      38.744  47.076  47.402  0.00  0.00     0.210 C 
ENDROOT
BRANCH   2   9
HETATM    9  C   UNK N   1      41.071  45.653  49.524  0.00  0.00    -0.026 A 
HETATM   10  C   UNK N   1      40.304  44.610  50.086  0.00  0.00     0.049 A 
HETATM   11  C   UNK N   1      40.643  44.048  51.333  0.00  0.00     0.101 A 
HETATM   12  C   UNK N   1      41.756  44.548  52.032  0.00  0.00     0.099 A 
HETATM   13  C   UNK N   1      42.510  45.593  51.487  0.00  0.00     0.040 A 
HETATM   14  C   UNK N   1      42.174  46.141  50.247  0.00  0.00     0.012 A 
BRANCH  11  15
HETATM   15  O   UNK N   1      39.924  43.025  51.873  0.00  0.00    -0.353 OA
HETATM   16  C   UNK N   1      39.464  42.981  53.175  0.00  0.00     0.210 C 
ENDBRANCH  11  15
BRANCH  12  17
HETATM   17  O   UNK N   1      42.117  44.034  53.228  0.00  0.00    -0.358 OA
HETATM   18  H   UNK N   1      42.958  44.253  53.654  0.00  0.00     0.218 HD
ENDBRANCH  12  17
ENDBRANCH   2   9
BRANCH   4  19
HETATM   19  O   UNK N   1      39.290  49.435  47.278  0.00  0.00    -0.384 OA
HETATM   20  H   UNK N   1      39.630  50.012  46.547  0.00  0.00     0.210 HD
ENDBRANCH   4  19
BRANCH   5  21
HETATM   21  C   UNK N   1      40.028  48.816  44.684  0.00  0.00    -0.024 A 
HETATM   22  C   UNK N   1      38.877  48.415  43.982  0.00  0.00     0.049 A 
HETATM   23  C   UNK N   1      38.355  49.206  42.939  0.00  0.00     0.101 A 
HETATM   24  C   UNK N   1      39.001  50.411  42.601  0.00  0.00     0.099 A 
HETATM   25  C   UNK N   1      40.151  50.805  43.295  0.00  0.00     0.040 A 
HETATM   26  C   UNK N   1      40.665  50.013  44.327  0.00  0.00     0.013 A 
BRANCH  23  27
HETATM   27  O   UNK N   1      37.241  48.833  42.249  0.00  0.00    -0.353 OA
HETATM   28  C   UNK N   1      36.299  47.928  42.695  0.00  0.00     0.210 C 
ENDBRANCH  23  27
BRANCH  24  29
HETATM   29  O   UNK N   1      38.529  51.200  41.611  0.00  0.00    -0.358 OA
HETATM   30  H   UNK N   1      37.838  51.861  41.760  0.00  0.00     0.218 HD
ENDBRANCH  24  29
ENDBRANCH   5  21
TORSDOF 7
ENDMDL
MODEL 4
REMARK VINA RESULT:      -6.0      0.800      1.743
REMARK  7 active torsions:
REMARK  status: ('A' for Active; 'I' for Inactive)
REMARK    1  A    between atoms: C_2  and  C_3 
REMARK    2  A    between atoms: C_5  and  O_6 
REMARK    3  A    between atoms: C_8  and  O_9 
REMARK    4  A    between atoms: C_14  and  O_15 
REMARK    5  A    between atoms: C_17  and  C_20 
REMARK    6  A    between atoms: C_22  and  O_23 
REMARK    7  A    between atoms: C_25  and  O_26 
ROOT
HETATM    1  O   UNK N   1      41.614  47.428  48.132  0.00  0.00    -0.378 OA
HETATM    2  C   UNK N   1      40.570  46.487  48.349  0.00  0.00     0.163 C 
HETATM    3  C   UNK N   1      40.215  45.880  46.971  0.00  0.00     0.082 C 
HETATM    4  C   UNK N   1      40.589  46.959  46.047  0.00  0.00     0.117 C 
HETATM    5  C   UNK N   1      39.340  47.863  46.092  0.00  0.00     0.191 C 
HETATM    6  O   UNK N   1      38.220  47.023  46.330  0.00  0.00    -0.377 OA
HETATM    7  C   UNK N   1      38.717  45.748  46.701  0.00  0.00     0.179 C 
HETATM    8  C   UNK N   1      41.825  47.507  46.736  0.00  0.00     0.210 C 
ENDROOT
BRANCH   2   9
HETATM    9  C   UNK N   1      40.992  45.426  49.366  0.00  0.00    -0.026 A 
HETATM   10  C   UNK N   1      41.496  45.790  50.633  0.00  0.00     0.049 A 
HETATM   11  C   UNK N   1      41.846  44.812  51.585  0.00  0.00     0.101 A 
HETATM   12  C   UNK N   1      41.702  43.452  51.258  0.00  0.00     0.099 A 
HETATM   13  C   UNK N   1      41.218  43.085  49.997  0.00  0.00     0.040 A 
HETATM   14  C   UNK N   1      40.865  44.059  49.060  0.00  0.00     0.012 A 
BRANCH  11  15
HETATM   15  O   UNK N   1      42.311  45.153  52.819  0.00  0.00    -0.353 OA
HETATM   16  C   UNK N   1      41.529  45.606  53.864  0.00  0.00     0.210 C 
ENDBRANCH  11  15
BRANCH  12  17
HETATM   17  O   UNK N   1      42.021  42.484  52.144  0.00  0.00    -0.358 OA
HETATM   18  H   UNK N   1      42.658  41.784  51.940  0.00  0.00     0.218 HD
ENDBRANCH  12  17
ENDBRANCH   2   9
BRANCH   4  19
HETATM   19  O   UNK N   1      40.884  46.496  44.743  0.00  0.00    -0.384 OA
HETATM   20  H   UNK N   1      41.799  46.116  44.731  0.00  0.00     0.210 HD
ENDBRANCH   4  19
BRANCH   5  21
HETATM   21  C   UNK N   1      39.174  48.670  44.818  0.00  0.00    -0.024 A 
HETATM   22  C   UNK N   1      39.951  49.824  44.604  0.00  0.00     0.049 A 
HETATM   23  C   UNK N   1      39.801  50.587  43.428  0.00  0.00     0.101 A 
HETATM   24  C   UNK N   1      38.858  50.185  42.463  0.00  0.00     0.099 A 
HETATM   25  C   UNK N   1      38.079  49.041  42.681  0.00  0.00     0.040 A 
HETATM   26  C   UNK N   1      38.233  48.290  43.851  0.00  0.00     0.013 A 
BRANCH  23  27
HETATM   27  O   UNK N   1      40.545  51.706  43.204  0.00  0.00    -0.353 OA
HETATM   28  C   UNK N   1      40.034  52.942  42.860  0.00  0.00     0.210 C 
ENDBRANCH  23  27
BRANCH  24  29
HETATM   29  O   UNK N   1      38.687  50.886  41.321  0.00  0.00    -0.358 OA
HETATM   30  H   UNK N   1      39.413  51.060  40.706  0.00  0.00     0.218 HD
ENDBRANCH  24  29
ENDBRANCH   5  21
TORSDOF 7
ENDMDL
MODEL 5
REMARK VINA RESULT:      -6.0      0.953      8.833
REMARK  7 active torsions:
REMARK  status: ('A' for Active; 'I' for Inactive)
REMARK    1  A    between atoms: C_2  and  C_3 
REMARK    2  A    between atoms: C_5  and  O_6 
REMARK    3  A    between atoms: C_8  and  O_9 
REMARK    4  A    between atoms: C_14  and  O_15 
REMARK    5  A    between atoms: C_17  and  C_20 
REMARK    6  A    between atoms: C_22  and  O_23 
REMARK    7  A    between atoms: C_25  and  O_26 
ROOT
HETATM    1  O   UNK N   1      38.622  47.976  46.830  0.00  0.00    -0.378 OA
HETATM    2  C   UNK N   1      39.788  48.256  46.067  0.00  0.00     0.163 C 
HETATM    3  C   UNK N   1      40.515  46.908  45.842  0.00  0.00     0.082 C 
HETATM    4  C   UNK N   1      40.089  46.123  47.009  0.00  0.00     0.117 C 
HETATM    5  C   UNK N   1      41.080  46.600  48.091  0.00  0.00     0.191 C 
HETATM    6  O   UNK N   1      42.293  46.935  47.434  0.00  0.00    -0.377 OA
HETATM    7  C   UNK N   1      42.029  46.960  46.041  0.00  0.00     0.179 C 
HETATM    8  C   UNK N   1      38.658  46.602  47.167  0.00  0.00     0.210 C 
ENDROOT
BRANCH   2   9
HETATM    9  C   UNK N   1      39.430  48.955  44.755  0.00  0.00    -0.026 A 
HETATM   10  C   UNK N   1      40.103  50.125  44.346  0.00  0.00     0.049 A 
HETATM   11  C   UNK N   1      39.802  50.746  43.117  0.00  0.00     0.101 A 
HETATM   12  C   UNK N   1      38.803  50.194  42.296  0.00  0.00     0.099 A 
HETATM   13  C   UNK N   1      38.120  49.043  42.705  0.00  0.00     0.040 A 
HETATM   14  C   UNK N   1      38.429  48.428  43.921  0.00  0.00     0.012 A 
BRANCH  11  15
HETATM   15  O   UNK N   1      40.462  51.862  42.701  0.00  0.00    -0.353 OA
HETATM   16  C   UNK N   1      39.929  53.136  42.678  0.00  0.00     0.210 C 
ENDBRANCH  11  15
BRANCH  12  17
HETATM   17  O   UNK N   1      38.487  50.756  41.109  0.00  0.00    -0.358 OA
HETATM   18  H   UNK N   1      38.450  51.715  40.983  0.00  0.00     0.218 HD
ENDBRANCH  12  17
ENDBRANCH   2   9
BRANCH   4  19
HETATM   19  O   UNK N   1      40.148  44.727  46.790  0.00  0.00    -0.384 OA
HETATM   20  H   UNK N   1      40.846  44.334  47.372  0.00  0.00     0.210 HD
ENDBRANCH   4  19
BRANCH   5  21
HETATM   21  C   UNK N   1      41.295  45.554  49.168  0.00  0.00    -0.024 A 
HETATM   22  C   UNK N   1      41.750  45.933  50.444  0.00  0.00     0.049 A 
HETATM   23  C   UNK N   1      41.963  44.969  51.450  0.00  0.00     0.101 A 
HETATM   24  C   UNK N   1      41.716  43.612  51.166  0.00  0.00     0.099 A 
HETATM   25  C   UNK N   1      41.271  43.235  49.893  0.00  0.00     0.040 A 
HETATM   26  C   UNK N   1      41.065  44.197  48.899  0.00  0.00     0.013 A 
BRANCH  23  27
HETATM   27  O   UNK N   1      42.402  45.318  52.691  0.00  0.00    -0.353 OA
HETATM   28  C   UNK N   1      41.589  45.597  53.771  0.00  0.00     0.210 C 
ENDBRANCH  23  27
BRANCH  24  29
HETATM   29  O   UNK N   1      41.902  42.658  52.105  0.00  0.00    -0.358 OA
HETATM   30  H   UNK N   1      42.275  42.853  52.975  0.00  0.00     0.218 HD
ENDBRANCH  24  29
ENDBRANCH   5  21
TORSDOF 7
ENDMDL
MODEL 6
REMARK VINA RESULT:      -5.2     13.559     15.661
REMARK  7 active torsions:
REMARK  status: ('A' for Active; 'I' for Inactive)
REMARK    1  A    between atoms: C_2  and  C_3 
REMARK    2  A    between atoms: C_5  and  O_6 
REMARK    3  A    between atoms: C_8  and  O_9 
REMARK    4  A    between atoms: C_14  and  O_15 
REMARK    5  A    between atoms: C_17  and  C_20 
REMARK    6  A    between atoms: C_22  and  O_23 
REMARK    7  A    between atoms: C_25  and  O_26 
ROOT
HETATM    1  O   UNK N   1      29.033  40.624  58.234  0.00  0.00    -0.378 OA
HETATM    2  C   UNK N   1      30.257  41.347  58.264  0.00  0.00     0.163 C 
HETATM    3  C   UNK N   1      30.067  42.595  57.369  0.00  0.00     0.082 C 
HETATM    4  C   UNK N   1      29.043  42.145  56.416  0.00  0.00     0.117 C 
HETATM    5  C   UNK N   1      29.892  41.391  55.371  0.00  0.00     0.191 C 
HETATM    6  O   UNK N   1      31.165  42.019  55.329  0.00  0.00    -0.377 OA
HETATM    7  C   UNK N   1      31.242  42.897  56.440  0.00  0.00     0.179 C 
HETATM    8  C   UNK N   1      28.180  41.278  57.314  0.00  0.00     0.210 C 
ENDROOT
BRANCH   2   9
HETATM    9  C   UNK N   1      30.645  41.707  59.698  0.00  0.00    -0.026 A 
HETATM   10  C   UNK N   1      31.897  42.290  59.990  0.00  0.00     0.049 A 
HETATM   11  C   UNK N   1      32.238  42.661  61.306  0.00  0.00     0.101 A 
HETATM   12  C   UNK N   1      31.318  42.431  62.344  0.00  0.00     0.099 A 
HETATM   13  C   UNK N   1      30.082  41.837  62.063  0.00  0.00     0.040 A 
HETATM   14  C   UNK N   1      29.747  41.479  60.755  0.00  0.00     0.012 A 
BRANCH  11  15
HETATM   15  O   UNK N   1      33.433  43.246  61.595  0.00  0.00    -0.353 OA
HETATM   16  C   UNK N   1      34.518  43.296  60.741  0.00  0.00     0.210 C 
ENDBRANCH  11  15
BRANCH  12  17
HETATM   17  O   UNK N   1      31.605  42.775  63.619  0.00  0.00    -0.358 OA
HETATM   18  H   UNK N   1      31.770  42.117  64.309  0.00  0.00     0.218 HD
ENDBRANCH  12  17
ENDBRANCH   2   9
BRANCH   4  19
HETATM   19  O   UNK N   1      28.302  43.210  55.854  0.00  0.00    -0.384 OA
HETATM   20  H   UNK N   1      28.451  44.030  56.390  0.00  0.00     0.210 HD
ENDBRANCH   4  19
BRANCH   5  21
HETATM   21  C   UNK N   1      29.231  41.372  54.006  0.00  0.00    -0.024 A 
HETATM   22  C   UNK N   1      28.159  40.499  53.749  0.00  0.00     0.049 A 
HETATM   23  C   UNK N   1      27.541  40.466  52.482  0.00  0.00     0.101 A 
HETATM   24  C   UNK N   1      28.011  41.320  51.466  0.00  0.00     0.099 A 
HETATM   25  C   UNK N   1      29.084  42.184  51.720  0.00  0.00     0.040 A 
HETATM   26  C   UNK N   1      29.693  42.209  52.979  0.00  0.00     0.013 A 
BRANCH  23  27
HETATM   27  O   UNK N   1      26.502  39.627  52.216  0.00  0.00    -0.353 OA
HETATM   28  C   UNK N   1      25.193  39.841  52.598  0.00  0.00     0.210 C 
ENDBRANCH  23  27
BRANCH  24  29
HETATM   29  O   UNK N   1      27.443  41.323  50.241  0.00  0.00    -0.358 OA
HETATM   30  H   UNK N   1      26.815  42.003  49.962  0.00  0.00     0.218 HD
ENDBRANCH  24  29
ENDBRANCH   5  21
TORSDOF 7
ENDMDL
MODEL 7
REMARK VINA RESULT:      -5.2     13.301     16.884
REMARK  7 active torsions:
REMARK  status: ('A' for Active; 'I' for Inactive)
REMARK    1  A    between atoms: C_2  and  C_3 
REMARK    2  A    between atoms: C_5  and  O_6 
REMARK    3  A    between atoms: C_8  and  O_9 
REMARK    4  A    between atoms: C_14  and  O_15 
REMARK    5  A    between atoms: C_17  and  C_20 
REMARK    6  A    between atoms: C_22  and  O_23 
REMARK    7  A    between atoms: C_25  and  O_26 
ROOT
HETATM    1  O   UNK N   1      31.518  41.808  55.024  0.00  0.00    -0.378 OA
HETATM    2  C   UNK N   1      30.143  41.513  55.235  0.00  0.00     0.163 C 
HETATM    3  C   UNK N   1      29.582  42.616  56.165  0.00  0.00     0.082 C 
HETATM    4  C   UNK N   1      30.776  43.034  56.912  0.00  0.00     0.117 C 
HETATM    5  C   UNK N   1      30.839  41.973  58.030  0.00  0.00     0.191 C 
HETATM    6  O   UNK N   1      29.505  41.580  58.314  0.00  0.00    -0.377 OA
HETATM    7  C   UNK N   1      28.680  42.104  57.286  0.00  0.00     0.179 C 
HETATM    8  C   UNK N   1      31.840  42.921  55.835  0.00  0.00     0.210 C 
ENDROOT
BRANCH   2   9
HETATM    9  C   UNK N   1      29.391  41.426  53.907  0.00  0.00    -0.026 A 
HETATM   10  C   UNK N   1      28.328  40.516  53.730  0.00  0.00     0.049 A 
HETATM   11  C   UNK N   1      27.607  40.465  52.520  0.00  0.00     0.101 A 
HETATM   12  C   UNK N   1      27.967  41.329  51.470  0.00  0.00     0.099 A 
HETATM   13  C   UNK N   1      29.031  42.223  51.635  0.00  0.00     0.040 A 
HETATM   14  C   UNK N   1      29.737  42.273  52.840  0.00  0.00     0.012 A 
BRANCH  11  15
HETATM   15  O   UNK N   1      26.564  39.607  52.346  0.00  0.00    -0.353 OA
HETATM   16  C   UNK N   1      26.086  38.736  53.306  0.00  0.00     0.210 C 
ENDBRANCH  11  15
BRANCH  12  17
HETATM   17  O   UNK N   1      27.299  41.315  50.296  0.00  0.00    -0.358 OA
HETATM   18  H   UNK N   1      27.636  40.857  49.513  0.00  0.00     0.218 HD
ENDBRANCH  12  17
ENDBRANCH   2   9
BRANCH   4  19
HETATM   19  O   UNK N   1      30.683  44.353  57.413  0.00  0.00    -0.384 OA
HETATM   20  H   UNK N   1      29.735  44.640  57.404  0.00  0.00     0.210 HD
ENDBRANCH   4  19
BRANCH   5  21
HETATM   21  C   UNK N   1      31.547  42.491  59.268  0.00  0.00    -0.024 A 
HETATM   22  C   UNK N   1      30.803  42.977  60.358  0.00  0.00     0.049 A 
HETATM   23  C   UNK N   1      31.448  43.469  61.511  0.00  0.00     0.101 A 
HETATM   24  C   UNK N   1      32.855  43.472  61.563  0.00  0.00     0.099 A 
HETATM   25  C   UNK N   1      33.595  42.995  60.474  0.00  0.00     0.040 A 
HETATM   26  C   UNK N   1      32.947  42.511  59.332  0.00  0.00     0.013 A 
BRANCH  23  27
HETATM   27  O   UNK N   1      30.743  43.942  62.576  0.00  0.00    -0.353 OA
HETATM   28  C   UNK N   1      30.161  43.159  63.553  0.00  0.00     0.210 C 
ENDBRANCH  23  27
BRANCH  24  29
HETATM   29  O   UNK N   1      33.511  43.929  62.651  0.00  0.00    -0.358 OA
HETATM   30  H   UNK N   1      34.301  43.495  63.001  0.00  0.00     0.218 HD
ENDBRANCH  24  29
ENDBRANCH   5  21
TORSDOF 7
ENDMDL
MODEL 8
REMARK VINA RESULT:      -5.1     13.525     15.884
REMARK  7 active torsions:
REMARK  status: ('A' for Active; 'I' for Inactive)
REMARK    1  A    between atoms: C_2  and  C_3 
REMARK    2  A    between atoms: C_5  and  O_6 
REMARK    3  A    between atoms: C_8  and  O_9 
REMARK    4  A    between atoms: C_14  and  O_15 
REMARK    5  A    between atoms: C_17  and  C_20 
REMARK    6  A    between atoms: C_22  and  O_23 
REMARK    7  A    between atoms: C_25  and  O_26 
ROOT
HETATM    1  O   UNK N   1      29.168  40.811  58.213  0.00  0.00    -0.378 OA
HETATM    2  C   UNK N   1      30.405  41.511  58.187  0.00  0.00     0.163 C 
HETATM    3  C   UNK N   1      30.215  42.731  57.255  0.00  0.00     0.082 C 
HETATM    4  C   UNK N   1      29.159  42.269  56.344  0.00  0.00     0.117 C 
HETATM    5  C   UNK N   1      29.967  41.463  55.305  0.00  0.00     0.191 C 
HETATM    6  O   UNK N   1      31.249  42.066  55.209  0.00  0.00    -0.377 OA
HETATM    7  C   UNK N   1      31.370  42.979  56.287  0.00  0.00     0.179 C 
HETATM    8  C   UNK N   1      28.303  41.449  57.293  0.00  0.00     0.210 C 
ENDROOT
BRANCH   2   9
HETATM    9  C   UNK N   1      30.836  41.913  59.598  0.00  0.00    -0.026 A 
HETATM   10  C   UNK N   1      29.919  41.910  60.670  0.00  0.00     0.049 A 
HETATM   11  C   UNK N   1      30.326  42.239  61.978  0.00  0.00     0.101 A 
HETATM   12  C   UNK N   1      31.667  42.591  62.211  0.00  0.00     0.099 A 
HETATM   13  C   UNK N   1      32.578  42.612  61.149  0.00  0.00     0.040 A 
HETATM   14  C   UNK N   1      32.170  42.276  59.856  0.00  0.00     0.012 A 
BRANCH  11  15
HETATM   15  O   UNK N   1      29.453  42.216  63.023  0.00  0.00    -0.353 OA
HETATM   16  C   UNK N   1      28.878  41.077  63.551  0.00  0.00     0.210 C 
ENDBRANCH  11  15
BRANCH  12  17
HETATM   17  O   UNK N   1      32.099  42.909  63.451  0.00  0.00    -0.358 OA
HETATM   18  H   UNK N   1      31.793  42.443  64.242  0.00  0.00     0.218 HD
ENDBRANCH  12  17
ENDBRANCH   2   9
BRANCH   4  19
HETATM   19  O   UNK N   1      28.422  43.327  55.764  0.00  0.00    -0.384 OA
HETATM   20  H   UNK N   1      28.061  43.906  56.483  0.00  0.00     0.210 HD
ENDBRANCH   4  19
BRANCH   5  21
HETATM   21  C   UNK N   1      29.270  41.411  53.958  0.00  0.00    -0.024 A 
HETATM   22  C   UNK N   1      28.208  40.514  53.743  0.00  0.00     0.049 A 
HETATM   23  C   UNK N   1      27.558  40.450  52.494  0.00  0.00     0.101 A 
HETATM   24  C   UNK N   1      27.986  41.296  51.452  0.00  0.00     0.099 A 
HETATM   25  C   UNK N   1      29.049  42.182  51.664  0.00  0.00     0.040 A 
HETATM   26  C   UNK N   1      29.690  42.238  52.906  0.00  0.00     0.013 A 
BRANCH  23  27
HETATM   27  O   UNK N   1      26.528  39.588  52.269  0.00  0.00    -0.353 OA
HETATM   28  C   UNK N   1      26.151  38.565  53.116  0.00  0.00     0.210 C 
ENDBRANCH  23  27
BRANCH  24  29
HETATM   29  O   UNK N   1      27.386  41.269  50.242  0.00  0.00    -0.358 OA
HETATM   30  H   UNK N   1      27.793  41.652  49.453  0.00  0.00     0.218 HD
ENDBRANCH  24  29
ENDBRANCH   5  21
TORSDOF 7
ENDMDL
MODEL 9
REMARK VINA RESULT:      -4.8     13.694     15.735
REMARK  7 active torsions:
REMARK  status: ('A' for Active; 'I' for Inactive)
REMARK    1  A    between atoms: C_2  and  C_3 
REMARK    2  A    between atoms: C_5  and  O_6 
REMARK    3  A    between atoms: C_8  and  O_9 
REMARK    4  A    between atoms: C_14  and  O_15 
REMARK    5  A    between atoms: C_17  and  C_20 
REMARK    6  A    between atoms: C_22  and  O_23 
REMARK    7  A    between atoms: C_25  and  O_26 
ROOT
HETATM    1  O   UNK N   1      32.122  44.333  57.948  0.00  0.00    -0.378 OA
HETATM    2  C   UNK N   1      31.686  43.967  59.251  0.00  0.00     0.163 C 
HETATM    3  C   UNK N   1      30.152  44.170  59.287  0.00  0.00     0.082 C 
HETATM    4  C   UNK N   1      29.951  45.223  58.282  0.00  0.00     0.117 C 
HETATM    5  C   UNK N   1      30.249  46.500  59.095  0.00  0.00     0.191 C 
HETATM    6  O   UNK N   1      29.869  46.242  60.438  0.00  0.00    -0.377 OA
HETATM    7  C   UNK N   1      29.630  44.849  60.552  0.00  0.00     0.179 C 
HETATM    8  C   UNK N   1      30.999  44.837  57.253  0.00  0.00     0.210 C 
ENDROOT
BRANCH   2   9
HETATM    9  C   UNK N   1      32.095  42.532  59.583  0.00  0.00    -0.026 A 
HETATM   10  C   UNK N   1      31.126  41.538  59.837  0.00  0.00     0.049 A 
HETATM   11  C   UNK N   1      31.501  40.206  60.102  0.00  0.00     0.101 A 
HETATM   12  C   UNK N   1      32.867  39.869  60.127  0.00  0.00     0.099 A 
HETATM   13  C   UNK N   1      33.833  40.855  59.892  0.00  0.00     0.040 A 
HETATM   14  C   UNK N   1      33.454  42.172  59.622  0.00  0.00     0.012 A 
BRANCH  11  15
HETATM   15  O   UNK N   1      30.574  39.234  60.325  0.00  0.00    -0.353 OA
HETATM   16  C   UNK N   1      29.799  38.638  59.349  0.00  0.00     0.210 C 
ENDBRANCH  11  15
BRANCH  12  17
HETATM   17  O   UNK N   1      33.268  38.604  60.373  0.00  0.00    -0.358 OA
HETATM   18  H   UNK N   1      33.817  38.373  61.136  0.00  0.00     0.218 HD
ENDBRANCH  12  17
ENDBRANCH   2   9
BRANCH   4  19
HETATM   19  O   UNK N   1      28.651  45.218  57.725  0.00  0.00    -0.384 OA
HETATM   20  H   UNK N   1      28.383  46.149  57.515  0.00  0.00     0.210 HD
ENDBRANCH   4  19
BRANCH   5  21
HETATM   21  C   UNK N   1      29.533  47.713  58.532  0.00  0.00    -0.024 A 
HETATM   22  C   UNK N   1      29.986  48.316  57.345  0.00  0.00     0.049 A 
HETATM   23  C   UNK N   1      29.335  49.450  56.816  0.00  0.00     0.101 A 
HETATM   24  C   UNK N   1      28.219  49.979  57.493  0.00  0.00     0.099 A 
HETATM   25  C   UNK N   1      27.775  49.383  58.679  0.00  0.00     0.040 A 
HETATM   26  C   UNK N   1      28.427  48.260  59.199  0.00  0.00     0.013 A 
BRANCH  23  27
HETATM   27  O   UNK N   1      29.760  50.046  55.668  0.00  0.00    -0.353 OA
HETATM   28  C   UNK N   1      30.783  50.969  55.585  0.00  0.00     0.210 C 
ENDBRANCH  23  27
BRANCH  24  29
HETATM   29  O   UNK N   1      27.564  51.060  57.016  0.00  0.00    -0.358 OA
HETATM   30  H   UNK N   1      26.923  51.553  57.546  0.00  0.00     0.218 HD
ENDBRANCH  24  29
ENDBRANCH   5  21
TORSDOF 7
ENDMDL
