MODEL 1
REMARK VINA RESULT:      -5.6      0.000      0.000
REMARK  2 active torsions:
REMARK  status: ('A' for Active; 'I' for Inactive)
REMARK    1  A    between atoms: C_7  and  O_8 
REMARK    2  A    between atoms: C_11  and  O_12 
ROOT
HETATM    1  O   UNK N   1      41.659  42.718  52.760  0.00  0.00    -0.265 OA
HETATM    2  C   UNK N   1      41.812  43.438  51.789  0.00  0.00     0.263 C 
HETATM    3  O   UNK N   1      41.675  42.984  50.527  0.00  0.00    -0.311 OA
HETATM    4  C   UNK N   1      41.688  44.004  49.602  0.00  0.00     0.160 C 
HETATM    5  C   UNK N   1      40.232  44.276  49.238  0.00  0.00     0.011 C 
HETATM    6  C   UNK N   1      39.653  44.408  48.006  0.00  0.00    -0.057 C 
HETATM    7  C   UNK N   1      40.396  44.377  46.651  0.00  0.00     0.149 C 
HETATM    8  C   UNK N   1      41.567  45.378  46.541  0.00  0.00     0.072 C 
HETATM    9  C   UNK N   1      41.268  46.871  46.845  0.00  0.00     0.149 C 
HETATM   10  C   UNK N   1      42.499  47.540  47.452  0.00  0.00    -0.061 C 
HETATM   11  C   UNK N   1      43.215  46.923  48.660  0.00  0.00     0.036 C 
HETATM   12  C   UNK N   1      42.337  46.632  49.909  0.00  0.00     0.013 C 
HETATM   13  C   UNK N   1      42.404  45.157  50.395  0.00  0.00     0.032 C 
HETATM   14  C   UNK N   1      42.055  44.905  51.877  0.00  0.00     0.088 C 
HETATM   15  C   UNK N   1      40.842  45.657  52.443  0.00  0.00     0.021 C 
HETATM   16  C   UNK N   1      42.967  48.681  46.921  0.00  0.00     0.017 C 
HETATM   17  C   UNK N   1      38.149  44.621  47.973  0.00  0.00     0.046 C 
ENDROOT
BRANCH   7  18
HETATM   18  O   UNK N   1      39.510  44.642  45.592  0.00  0.00    -0.391 OA
HETATM   19  H   UNK N   1      39.372  45.625  45.561  0.00  0.00     0.210 HD
ENDBRANCH   7  18
BRANCH   9  20
HETATM   20  O   UNK N   1      40.208  47.018  47.745  0.00  0.00    -0.391 OA
HETATM   21  H   UNK N   1      40.602  47.302  48.613  0.00  0.00     0.210 HD
ENDBRANCH   9  20
TORSDOF 2
ENDMDL
MODEL 2
REMARK VINA RESULT:      -4.6     14.721     16.570
REMARK  2 active torsions:
REMARK  status: ('A' for Active; 'I' for Inactive)
REMARK    1  A    between atoms: C_7  and  O_8 
REMARK    2  A    between atoms: C_11  and  O_12 
ROOT
HETATM    1  O   UNK N   1      50.587  54.815  44.905  0.00  0.00    -0.265 OA
HETATM    2  C   UNK N   1      50.825  54.951  43.718  0.00  0.00     0.263 C 
HETATM    3  O   UNK N   1      50.067  54.380  42.761  0.00  0.00    -0.311 OA
HETATM    4  C   UNK N   1      50.391  54.830  41.501  0.00  0.00     0.160 C 
HETATM    5  C   UNK N   1      49.348  55.882  41.137  0.00  0.00     0.011 C 
HETATM    6  C   UNK N   1      48.612  56.020  39.992  0.00  0.00    -0.057 C 
HETATM    7  C   UNK N   1      48.733  55.136  38.730  0.00  0.00     0.149 C 
HETATM    8  C   UNK N   1      50.164  55.032  38.157  0.00  0.00     0.072 C 
HETATM    9  C   UNK N   1      50.910  56.356  37.840  0.00  0.00     0.149 C 
HETATM   10  C   UNK N   1      52.412  56.177  38.053  0.00  0.00    -0.061 C 
HETATM   11  C   UNK N   1      52.958  55.603  39.366  0.00  0.00     0.036 C 
HETATM   12  C   UNK N   1      52.514  56.322  40.671  0.00  0.00     0.013 C 
HETATM   13  C   UNK N   1      51.848  55.379  41.713  0.00  0.00     0.032 C 
HETATM   14  C   UNK N   1      51.895  55.840  43.185  0.00  0.00     0.088 C 
HETATM   15  C   UNK N   1      51.603  57.323  43.459  0.00  0.00     0.021 C 
HETATM   16  C   UNK N   1      53.268  56.519  37.077  0.00  0.00     0.017 C 
HETATM   17  C   UNK N   1      47.602  57.153  39.957  0.00  0.00     0.046 C 
ENDROOT
BRANCH   7  18
HETATM   18  O   UNK N   1      47.899  55.618  37.705  0.00  0.00    -0.391 OA
HETATM   19  H   UNK N   1      48.485  56.011  37.008  0.00  0.00     0.210 HD
ENDBRANCH   7  18
BRANCH   9  20
HETATM   20  O   UNK N   1      50.480  57.406  38.658  0.00  0.00    -0.391 OA
HETATM   21  H   UNK N   1      50.680  58.251  38.174  0.00  0.00     0.210 HD
ENDBRANCH   9  20
TORSDOF 2
ENDMDL
MODEL 3
REMARK VINA RESULT:      -4.5     13.364     15.755
REMARK  2 active torsions:
REMARK  status: ('A' for Active; 'I' for Inactive)
REMARK    1  A    between atoms: C_7  and  O_8 
REMARK    2  A    between atoms: C_11  and  O_12 
ROOT
HETATM    1  O   UNK N   1      46.564  47.539  60.363  0.00  0.00    -0.265 OA
HETATM    2  C   UNK N   1      46.167  48.639  60.707  0.00  0.00     0.263 C 
HETATM    3  O   UNK N   1      44.910  48.846  61.147  0.00  0.00    -0.311 OA
HETATM    4  C   UNK N   1      44.742  50.108  61.672  0.00  0.00     0.160 C 
HETATM    5  C   UNK N   1      44.822  49.960  63.188  0.00  0.00     0.011 C 
HETATM    6  C   UNK N   1      43.990  50.451  64.156  0.00  0.00    -0.057 C 
HETATM    7  C   UNK N   1      42.766  51.364  63.916  0.00  0.00     0.149 C 
HETATM    8  C   UNK N   1      43.071  52.643  63.106  0.00  0.00     0.072 C 
HETATM    9  C   UNK N   1      44.213  53.562  63.617  0.00  0.00     0.149 C 
HETATM   10  C   UNK N   1      44.899  54.252  62.439  0.00  0.00    -0.061 C 
HETATM   11  C   UNK N   1      45.415  53.440  61.244  0.00  0.00     0.036 C 
HETATM   12  C   UNK N   1      46.390  52.275  61.570  0.00  0.00     0.013 C 
HETATM   13  C   UNK N   1      45.931  50.897  61.014  0.00  0.00     0.032 C 
HETATM   14  C   UNK N   1      47.038  49.845  60.787  0.00  0.00     0.088 C 
HETATM   15  C   UNK N   1      48.106  49.713  61.882  0.00  0.00     0.021 C 
HETATM   16  C   UNK N   1      45.050  55.586  62.444  0.00  0.00     0.017 C 
HETATM   17  C   UNK N   1      44.311  50.077  65.593  0.00  0.00     0.046 C 
ENDROOT
BRANCH   7  18
HETATM   18  O   UNK N   1      42.196  51.761  65.138  0.00  0.00    -0.391 OA
HETATM   19  H   UNK N   1      42.384  52.729  65.251  0.00  0.00     0.210 HD
ENDBRANCH   7  18
BRANCH   9  20
HETATM   20  O   UNK N   1      45.184  52.846  64.324  0.00  0.00    -0.391 OA
HETATM   21  H   UNK N   1      45.977  52.771  63.730  0.00  0.00     0.210 HD
ENDBRANCH   9  20
TORSDOF 2
ENDMDL
MODEL 4
REMARK VINA RESULT:      -4.4     13.979     16.524
REMARK  2 active torsions:
REMARK  status: ('A' for Active; 'I' for Inactive)
REMARK    1  A    between atoms: C_7  and  O_8 
REMARK    2  A    between atoms: C_11  and  O_12 
ROOT
HETATM    1  O   UNK N   1      50.236  57.093  45.907  0.00  0.00    -0.265 OA
HETATM    2  C   UNK N   1      50.012  56.995  44.713  0.00  0.00     0.263 C 
HETATM    3  O   UNK N   1      50.731  57.662  43.789  0.00  0.00    -0.311 OA
HETATM    4  C   UNK N   1      50.445  57.248  42.507  0.00  0.00     0.160 C 
HETATM    5  C   UNK N   1      51.561  56.290  42.103  0.00  0.00     0.011 C 
HETATM    6  C   UNK N   1      52.308  56.258  40.958  0.00  0.00    -0.057 C 
HETATM    7  C   UNK N   1      52.129  57.187  39.736  0.00  0.00     0.149 C 
HETATM    8  C   UNK N   1      50.697  57.216  39.159  0.00  0.00     0.072 C 
HETATM    9  C   UNK N   1      50.048  55.858  38.777  0.00  0.00     0.149 C 
HETATM   10  C   UNK N   1      48.537  55.921  38.988  0.00  0.00    -0.061 C 
HETATM   11  C   UNK N   1      47.947  56.393  40.323  0.00  0.00     0.036 C 
HETATM   12  C   UNK N   1      48.436  55.649  41.597  0.00  0.00     0.013 C 
HETATM   13  C   UNK N   1      49.030  56.588  42.684  0.00  0.00     0.032 C 
HETATM   14  C   UNK N   1      49.010  56.057  44.134  0.00  0.00     0.088 C 
HETATM   15  C   UNK N   1      49.406  54.589  44.342  0.00  0.00     0.021 C 
HETATM   16  C   UNK N   1      47.710  55.563  37.992  0.00  0.00     0.017 C 
HETATM   17  C   UNK N   1      53.397  55.202  40.878  0.00  0.00     0.046 C 
ENDROOT
BRANCH   7  18
HETATM   18  O   UNK N   1      52.999  56.814  38.696  0.00  0.00    -0.391 OA
HETATM   19  H   UNK N   1      53.603  57.583  38.526  0.00  0.00     0.210 HD
ENDBRANCH   7  18
BRANCH   9  20
HETATM   20  O   UNK N   1      50.549  54.805  39.550  0.00  0.00    -0.391 OA
HETATM   21  H   UNK N   1      50.273  53.961  39.102  0.00  0.00     0.210 HD
ENDBRANCH   9  20
TORSDOF 2
ENDMDL
MODEL 5
REMARK VINA RESULT:      -4.4     12.837     14.722
REMARK  2 active torsions:
REMARK  status: ('A' for Active; 'I' for Inactive)
REMARK    1  A    between atoms: C_7  and  O_8 
REMARK    2  A    between atoms: C_11  and  O_12 
ROOT
HETATM    1  O   UNK N   1      32.562  55.538  45.865  0.00  0.00    -0.265 OA
HETATM    2  C   UNK N   1      32.208  54.661  45.096  0.00  0.00     0.263 C 
HETATM    3  O   UNK N   1      31.013  54.688  44.473  0.00  0.00    -0.311 OA
HETATM    4  C   UNK N   1      30.909  53.716  43.503  0.00  0.00     0.160 C 
HETATM    5  C   UNK N   1      31.170  54.408  42.169  0.00  0.00     0.011 C 
HETATM    6  C   UNK N   1      30.459  54.345  41.002  0.00  0.00    -0.057 C 
HETATM    7  C   UNK N   1      29.216  53.464  40.748  0.00  0.00     0.149 C 
HETATM    8  C   UNK N   1      29.422  51.964  41.055  0.00  0.00     0.072 C 
HETATM    9  C   UNK N   1      30.617  51.248  40.369  0.00  0.00     0.149 C 
HETATM   10  C   UNK N   1      31.157  50.143  41.275  0.00  0.00    -0.061 C 
HETATM   11  C   UNK N   1      31.527  50.434  42.735  0.00  0.00     0.036 C 
HETATM   12  C   UNK N   1      32.534  51.593  42.976  0.00  0.00     0.013 C 
HETATM   13  C   UNK N   1      32.011  52.688  43.948  0.00  0.00     0.032 C 
HETATM   14  C   UNK N   1      33.083  53.532  44.671  0.00  0.00     0.088 C 
HETATM   15  C   UNK N   1      34.274  54.011  43.829  0.00  0.00     0.021 C 
HETATM   16  C   UNK N   1      31.307  48.900  40.793  0.00  0.00     0.017 C 
HETATM   17  C   UNK N   1      30.950  55.208  39.851  0.00  0.00     0.046 C 
ENDROOT
BRANCH   7  18
HETATM   18  O   UNK N   1      28.796  53.570  39.411  0.00  0.00    -0.391 OA
HETATM   19  H   UNK N   1      28.866  54.526  39.154  0.00  0.00     0.210 HD
ENDBRANCH   7  18
BRANCH   9  20
HETATM   20  O   UNK N   1      31.665  52.131  40.091  0.00  0.00    -0.391 OA
HETATM   21  H   UNK N   1      31.790  52.695  40.900  0.00  0.00     0.210 HD
ENDBRANCH   9  20
TORSDOF 2
ENDMDL
MODEL 6
REMARK VINA RESULT:      -4.4     13.035     15.236
REMARK  2 active torsions:
REMARK  status: ('A' for Active; 'I' for Inactive)
REMARK    1  A    between atoms: C_7  and  O_8 
REMARK    2  A    between atoms: C_11  and  O_12 
ROOT
HETATM    1  O   UNK N   1      29.974  41.068  63.008  0.00  0.00    -0.265 OA
HETATM    2  C   UNK N   1      30.152  41.983  62.223  0.00  0.00     0.263 C 
HETATM    3  O   UNK N   1      31.179  41.994  61.350  0.00  0.00    -0.311 OA
HETATM    4  C   UNK N   1      31.069  43.011  60.428  0.00  0.00     0.160 C 
HETATM    5  C   UNK N   1      30.516  42.381  59.155  0.00  0.00     0.011 C 
HETATM    6  C   UNK N   1      30.951  42.503  57.863  0.00  0.00    -0.057 C 
HETATM    7  C   UNK N   1      32.111  43.404  57.383  0.00  0.00     0.149 C 
HETATM    8  C   UNK N   1      31.984  44.886  57.798  0.00  0.00     0.072 C 
HETATM    9  C   UNK N   1      30.671  45.626  57.428  0.00  0.00     0.149 C 
HETATM   10  C   UNK N   1      30.349  46.683  58.484  0.00  0.00    -0.061 C 
HETATM   11  C   UNK N   1      30.311  46.322  59.974  0.00  0.00     0.036 C 
HETATM   12  C   UNK N   1      29.377  45.146  60.376  0.00  0.00     0.013 C 
HETATM   13  C   UNK N   1      30.098  44.010  61.155  0.00  0.00     0.032 C 
HETATM   14  C   UNK N   1      29.210  43.125  62.057  0.00  0.00     0.088 C 
HETATM   15  C   UNK N   1      27.859  42.679  61.478  0.00  0.00     0.021 C 
HETATM   16  C   UNK N   1      30.101  47.947  58.106  0.00  0.00     0.017 C 
HETATM   17  C   UNK N   1      30.214  41.693  56.810  0.00  0.00     0.046 C 
ENDROOT
BRANCH   7  18
HETATM   18  O   UNK N   1      32.224  43.364  55.982  0.00  0.00    -0.391 OA
HETATM   19  H   UNK N   1      33.066  43.830  55.739  0.00  0.00     0.210 HD
ENDBRANCH   7  18
BRANCH   9  20
HETATM   20  O   UNK N   1      29.583  44.751  57.348  0.00  0.00    -0.391 OA
HETATM   21  H   UNK N   1      28.821  45.270  56.977  0.00  0.00     0.210 HD
ENDBRANCH   9  20
TORSDOF 2
ENDMDL
MODEL 7
REMARK VINA RESULT:      -4.3     14.992     16.910
REMARK  2 active torsions:
REMARK  status: ('A' for Active; 'I' for Inactive)
REMARK    1  A    between atoms: C_7  and  O_8 
REMARK    2  A    between atoms: C_11  and  O_12 
ROOT
HETATM    1  O   UNK N   1      27.586  45.009  61.292  0.00  0.00    -0.265 OA
HETATM    2  C   UNK N   1      27.873  45.879  60.488  0.00  0.00     0.263 C 
HETATM    3  O   UNK N   1      26.950  46.710  59.965  0.00  0.00    -0.311 OA
HETATM    4  C   UNK N   1      27.521  47.737  59.246  0.00  0.00     0.160 C 
HETATM    5  C   UNK N   1      27.519  48.957  60.161  0.00  0.00     0.011 C 
HETATM    6  C   UNK N   1      27.112  50.238  59.903  0.00  0.00    -0.057 C 
HETATM    7  C   UNK N   1      26.604  50.767  58.543  0.00  0.00     0.149 C 
HETATM    8  C   UNK N   1      27.564  50.514  57.360  0.00  0.00     0.072 C 
HETATM    9  C   UNK N   1      29.029  51.006  57.505  0.00  0.00     0.149 C 
HETATM   10  C   UNK N   1      29.972  50.080  56.739  0.00  0.00    -0.061 C 
HETATM   11  C   UNK N   1      29.935  48.563  56.959  0.00  0.00     0.036 C 
HETATM   12  C   UNK N   1      30.097  48.073  58.426  0.00  0.00     0.013 C 
HETATM   13  C   UNK N   1      28.941  47.154  58.912  0.00  0.00     0.032 C 
HETATM   14  C   UNK N   1      29.270  46.198  60.079  0.00  0.00     0.088 C 
HETATM   15  C   UNK N   1      30.093  46.775  61.240  0.00  0.00     0.021 C 
HETATM   16  C   UNK N   1      30.842  50.597  55.856  0.00  0.00     0.017 C 
HETATM   17  C   UNK N   1      27.184  51.226  61.055  0.00  0.00     0.046 C 
ENDROOT
BRANCH   7  18
HETATM   18  O   UNK N   1      26.365  52.151  58.608  0.00  0.00    -0.391 OA
HETATM   19  H   UNK N   1      25.386  52.277  58.715  0.00  0.00     0.210 HD
ENDBRANCH   7  18
BRANCH   9  20
HETATM   20  O   UNK N   1      29.441  51.034  58.841  0.00  0.00    -0.391 OA
HETATM   21  H   UNK N   1      28.951  50.306  59.310  0.00  0.00     0.210 HD
ENDBRANCH   9  20
TORSDOF 2
ENDMDL
MODEL 8
REMARK VINA RESULT:      -4.3     13.494     15.739
REMARK  2 active torsions:
REMARK  status: ('A' for Active; 'I' for Inactive)
REMARK    1  A    between atoms: C_7  and  O_8 
REMARK    2  A    between atoms: C_11  and  O_12 
ROOT
HETATM    1  O   UNK N   1      47.222  55.972  46.133  0.00  0.00    -0.265 OA
HETATM    2  C   UNK N   1      48.110  56.120  45.311  0.00  0.00     0.263 C 
HETATM    3  O   UNK N   1      48.374  55.199  44.363  0.00  0.00    -0.311 OA
HETATM    4  C   UNK N   1      49.270  55.659  43.424  0.00  0.00     0.160 C 
HETATM    5  C   UNK N   1      48.446  56.086  42.214  0.00  0.00     0.011 C 
HETATM    6  C   UNK N   1      48.626  55.790  40.890  0.00  0.00    -0.057 C 
HETATM    7  C   UNK N   1      49.799  54.976  40.298  0.00  0.00     0.149 C 
HETATM    8  C   UNK N   1      51.200  55.502  40.681  0.00  0.00     0.072 C 
HETATM    9  C   UNK N   1      51.511  56.995  40.392  0.00  0.00     0.149 C 
HETATM   10  C   UNK N   1      52.480  57.542  41.439  0.00  0.00    -0.061 C 
HETATM   11  C   UNK N   1      52.195  57.376  42.937  0.00  0.00     0.036 C 
HETATM   12  C   UNK N   1      50.821  57.899  43.442  0.00  0.00     0.013 C 
HETATM   13  C   UNK N   1      49.981  56.830  44.195  0.00  0.00     0.032 C 
HETATM   14  C   UNK N   1      48.922  57.362  45.185  0.00  0.00     0.088 C 
HETATM   15  C   UNK N   1      48.078  58.559  44.724  0.00  0.00     0.021 C 
HETATM   16  C   UNK N   1      53.599  58.171  41.046  0.00  0.00     0.017 C 
HETATM   17  C   UNK N   1      47.588  56.326  39.920  0.00  0.00     0.046 C 
ENDROOT
BRANCH   7  18
HETATM   18  O   UNK N   1      49.724  54.948  38.894  0.00  0.00    -0.391 OA
HETATM   19  H   UNK N   1      50.091  55.808  38.561  0.00  0.00     0.210 HD
ENDBRANCH   7  18
BRANCH   9  20
HETATM   20  O   UNK N   1      50.356  57.784  40.419  0.00  0.00    -0.391 OA
HETATM   21  H   UNK N   1      49.955  57.741  39.510  0.00  0.00     0.210 HD
ENDBRANCH   9  20
TORSDOF 2
ENDMDL
MODEL 9
REMARK VINA RESULT:      -4.3     14.495     16.092
REMARK  2 active torsions:
REMARK  status: ('A' for Active; 'I' for Inactive)
REMARK    1  A    between atoms: C_7  and  O_8 
REMARK    2  A    between atoms: C_11  and  O_12 
ROOT
HETATM    1  O   UNK N   1      48.402  59.307  52.851  0.00  0.00    -0.265 OA
HETATM    2  C   UNK N   1      48.730  58.330  53.502  0.00  0.00     0.263 C 
HETATM    3  O   UNK N   1      49.172  57.195  52.925  0.00  0.00    -0.311 OA
HETATM    4  C   UNK N   1      49.677  56.304  53.846  0.00  0.00     0.160 C 
HETATM    5  C   UNK N   1      51.195  56.447  53.796  0.00  0.00     0.011 C 
HETATM    6  C   UNK N   1      52.158  55.479  53.708  0.00  0.00    -0.057 C 
HETATM    7  C   UNK N   1      51.908  53.954  53.708  0.00  0.00     0.149 C 
HETATM    8  C   UNK N   1      51.077  53.442  54.905  0.00  0.00     0.072 C 
HETATM    9  C   UNK N   1      51.571  53.807  56.331  0.00  0.00     0.149 C 
HETATM   10  C   UNK N   1      50.380  53.955  57.277  0.00  0.00    -0.061 C 
HETATM   11  C   UNK N   1      49.196  54.861  56.916  0.00  0.00     0.036 C 
HETATM   12  C   UNK N   1      49.537  56.337  56.566  0.00  0.00     0.013 C 
HETATM   13  C   UNK N   1      49.004  56.793  55.178  0.00  0.00     0.032 C 
HETATM   14  C   UNK N   1      48.789  58.310  54.990  0.00  0.00     0.088 C 
HETATM   15  C   UNK N   1      49.883  59.239  55.537  0.00  0.00     0.021 C 
HETATM   16  C   UNK N   1      50.364  53.281  58.437  0.00  0.00     0.017 C 
HETATM   17  C   UNK N   1      53.599  55.950  53.620  0.00  0.00     0.046 C 
ENDROOT
BRANCH   7  18
HETATM   18  O   UNK N   1      53.125  53.251  53.704  0.00  0.00    -0.391 OA
HETATM   19  H   UNK N   1      52.912  52.289  53.822  0.00  0.00     0.210 HD
ENDBRANCH   7  18
BRANCH   9  20
HETATM   20  O   UNK N   1      52.285  55.009  56.344  0.00  0.00    -0.391 OA
HETATM   21  H   UNK N   1      52.981  54.940  55.637  0.00  0.00     0.210 HD
ENDBRANCH   9  20
TORSDOF 2
ENDMDL
