MODEL 1
REMARK VINA RESULT:      -7.9      0.000      0.000
REMARK  4 active torsions:
REMARK  status: ('A' for Active; 'I' for Inactive)
REMARK    1  A    between atoms: C_2  and  O_3 
REMARK    2  A    between atoms: C_2  and  C_5 
REMARK    3  A    between atoms: C_5  and  C_7 
REMARK    4  A    between atoms: C_11  and  O_12 
ROOT
HETATM    1  C   UNK N   1      40.763  45.095  50.972  0.00  0.00     0.025 C 
HETATM    2  C   UNK N   1      41.799  45.801  50.047  0.00  0.00     0.019 C 
HETATM    3  C   UNK N   1      41.161  46.203  48.692  0.00  0.00     0.025 C 
HETATM    4  C   UNK N   1      40.593  44.950  47.946  0.00  0.00    -0.010 C 
HETATM    5  C   UNK N   1      39.896  45.481  46.664  0.00  0.00     0.130 C 
HETATM    6  C   UNK N   1      40.907  46.166  45.722  0.00  0.00     0.060 C 
HETATM    7  C   UNK N   1      41.924  47.026  46.440  0.00  0.00    -0.021 C 
HETATM    8  C   UNK N   1      42.064  47.051  47.789  0.00  0.00    -0.082 C 
HETATM    9  C   UNK N   1      43.106  47.960  48.397  0.00  0.00     0.043 C 
HETATM   10  C   UNK N   1      39.552  44.274  48.882  0.00  0.00     0.013 C 
HETATM   11  C   UNK N   1      40.158  43.871  50.240  0.00  0.00     0.010 C 
HETATM   12  C   UNK N   1      41.699  43.918  47.559  0.00  0.00     0.018 C 
ENDROOT
BRANCH   1  13
HETATM   13  C   UNK N   1      41.312  44.667  52.350  0.00  0.00     0.010 C 
HETATM   14  C   UNK N   1      42.087  45.495  53.091  0.00  0.00     0.026 C 
BRANCH  13  15
HETATM   15  C   UNK N   1      40.991  43.305  52.906  0.00  0.00     0.171 C 
HETATM   16  O   UNK N   1      41.877  42.471  53.017  0.00  0.00    -0.646 OA
BRANCH  15  17
HETATM   17  O   UNK N   1      39.746  42.975  53.321  0.00  0.00    -0.773 OA
HETATM   18  H   UNK N   1      38.941  43.328  52.926  0.00  0.00     0.167 HD
ENDBRANCH  15  17
ENDBRANCH  13  15
ENDBRANCH   1  13
BRANCH   5  19
HETATM   19  O   UNK N   1      39.227  44.451  45.982  0.00  0.00    -0.395 OA
HETATM   20  H   UNK N   1      39.917  43.791  45.709  0.00  0.00     0.210 HD
ENDBRANCH   5  19
TORSDOF 4
ENDMDL
MODEL 2
REMARK VINA RESULT:      -7.4      1.756      3.032
REMARK  4 active torsions:
REMARK  status: ('A' for Active; 'I' for Inactive)
REMARK    1  A    between atoms: C_2  and  O_3 
REMARK    2  A    between atoms: C_2  and  C_5 
REMARK    3  A    between atoms: C_5  and  C_7 
REMARK    4  A    between atoms: C_11  and  O_12 
ROOT
HETATM    1  C   UNK N   1      41.539  44.523  49.894  0.00  0.00     0.025 C 
HETATM    2  C   UNK N   1      41.575  43.395  48.820  0.00  0.00     0.019 C 
HETATM    3  C   UNK N   1      42.022  43.944  47.441  0.00  0.00     0.025 C 
HETATM    4  C   UNK N   1      41.058  45.075  46.949  0.00  0.00    -0.010 C 
HETATM    5  C   UNK N   1      41.655  45.614  45.621  0.00  0.00     0.130 C 
HETATM    6  C   UNK N   1      41.680  44.519  44.535  0.00  0.00     0.060 C 
HETATM    7  C   UNK N   1      42.094  43.158  45.052  0.00  0.00    -0.021 C 
HETATM    8  C   UNK N   1      42.244  42.871  46.369  0.00  0.00    -0.082 C 
HETATM    9  C   UNK N   1      42.675  41.479  46.767  0.00  0.00     0.043 C 
HETATM   10  C   UNK N   1      41.052  46.194  48.029  0.00  0.00     0.013 C 
HETATM   11  C   UNK N   1      40.620  45.673  49.412  0.00  0.00     0.010 C 
HETATM   12  C   UNK N   1      39.600  44.571  46.708  0.00  0.00     0.018 C 
ENDROOT
BRANCH   1  13
HETATM   13  C   UNK N   1      41.113  44.061  51.303  0.00  0.00     0.010 C 
HETATM   14  C   UNK N   1      40.064  43.223  51.487  0.00  0.00     0.026 C 
BRANCH  13  15
HETATM   15  C   UNK N   1      41.865  44.537  52.518  0.00  0.00     0.171 C 
HETATM   16  O   UNK N   1      42.385  45.643  52.515  0.00  0.00    -0.646 OA
BRANCH  15  17
HETATM   17  O   UNK N   1      41.961  43.787  53.641  0.00  0.00    -0.773 OA
HETATM   18  H   UNK N   1      42.747  43.282  53.878  0.00  0.00     0.167 HD
ENDBRANCH  15  17
ENDBRANCH  13  15
ENDBRANCH   1  13
BRANCH   5  19
HETATM   19  O   UNK N   1      40.943  46.732  45.156  0.00  0.00    -0.395 OA
HETATM   20  H   UNK N   1      40.820  46.609  44.179  0.00  0.00     0.210 HD
ENDBRANCH   5  19
TORSDOF 4
ENDMDL
MODEL 3
REMARK VINA RESULT:      -6.6      1.537      2.796
REMARK  4 active torsions:
REMARK  status: ('A' for Active; 'I' for Inactive)
REMARK    1  A    between atoms: C_2  and  O_3 
REMARK    2  A    between atoms: C_2  and  C_5 
REMARK    3  A    between atoms: C_5  and  C_7 
REMARK    4  A    between atoms: C_11  and  O_12 
ROOT
HETATM    1  C   UNK N   1      41.826  45.088  50.599  0.00  0.00     0.025 C 
HETATM    2  C   UNK N   1      40.493  45.241  49.806  0.00  0.00     0.019 C 
HETATM    3  C   UNK N   1      40.760  45.505  48.302  0.00  0.00     0.025 C 
HETATM    4  C   UNK N   1      41.614  46.801  48.103  0.00  0.00    -0.010 C 
HETATM    5  C   UNK N   1      41.901  46.907  46.580  0.00  0.00     0.130 C 
HETATM    6  C   UNK N   1      40.596  47.082  45.777  0.00  0.00     0.060 C 
HETATM    7  C   UNK N   1      39.456  46.218  46.271  0.00  0.00    -0.021 C 
HETATM    8  C   UNK N   1      39.504  45.502  47.422  0.00  0.00    -0.082 C 
HETATM    9  C   UNK N   1      38.309  44.664  47.809  0.00  0.00     0.043 C 
HETATM   10  C   UNK N   1      42.943  46.616  48.888  0.00  0.00     0.013 C 
HETATM   11  C   UNK N   1      42.707  46.345  50.386  0.00  0.00     0.010 C 
HETATM   12  C   UNK N   1      40.887  48.092  48.596  0.00  0.00     0.018 C 
ENDROOT
BRANCH   1  13
HETATM   13  C   UNK N   1      41.654  44.813  52.107  0.00  0.00     0.010 C 
HETATM   14  C   UNK N   1      42.053  45.710  53.041  0.00  0.00     0.026 C 
BRANCH  13  15
HETATM   15  C   UNK N   1      41.028  43.527  52.578  0.00  0.00     0.171 C 
HETATM   16  O   UNK N   1      41.737  42.631  53.011  0.00  0.00    -0.646 OA
BRANCH  15  17
HETATM   17  O   UNK N   1      39.688  43.336  52.567  0.00  0.00    -0.773 OA
HETATM   18  H   UNK N   1      39.270  42.483  52.730  0.00  0.00     0.167 HD
ENDBRANCH  15  17
ENDBRANCH  13  15
ENDBRANCH   1  13
BRANCH   5  19
HETATM   19  O   UNK N   1      42.781  47.966  46.299  0.00  0.00    -0.395 OA
HETATM   20  H   UNK N   1      43.702  47.605  46.387  0.00  0.00     0.210 HD
ENDBRANCH   5  19
TORSDOF 4
ENDMDL
MODEL 4
REMARK VINA RESULT:      -6.3     14.112     16.258
REMARK  4 active torsions:
REMARK  status: ('A' for Active; 'I' for Inactive)
REMARK    1  A    between atoms: C_2  and  O_3 
REMARK    2  A    between atoms: C_2  and  C_5 
REMARK    3  A    between atoms: C_5  and  C_7 
REMARK    4  A    between atoms: C_11  and  O_12 
ROOT
HETATM    1  C   UNK N   1      31.594  54.942  42.999  0.00  0.00     0.025 C 
HETATM    2  C   UNK N   1      31.029  53.611  42.419  0.00  0.00     0.019 C 
HETATM    3  C   UNK N   1      30.527  53.798  40.964  0.00  0.00     0.025 C 
HETATM    4  C   UNK N   1      29.409  54.892  40.894  0.00  0.00    -0.010 C 
HETATM    5  C   UNK N   1      29.058  55.064  39.391  0.00  0.00     0.130 C 
HETATM    6  C   UNK N   1      28.475  53.764  38.801  0.00  0.00     0.060 C 
HETATM    7  C   UNK N   1      29.181  52.511  39.272  0.00  0.00    -0.021 C 
HETATM    8  C   UNK N   1      30.109  52.502  40.261  0.00  0.00    -0.082 C 
HETATM    9  C   UNK N   1      30.758  51.191  40.639  0.00  0.00     0.043 C 
HETATM   10  C   UNK N   1      30.002  56.212  41.462  0.00  0.00     0.013 C 
HETATM   11  C   UNK N   1      30.517  56.051  42.905  0.00  0.00     0.010 C 
HETATM   12  C   UNK N   1      28.126  54.505  41.696  0.00  0.00     0.018 C 
ENDROOT
BRANCH   1  13
HETATM   13  C   UNK N   1      32.126  54.843  44.444  0.00  0.00     0.010 C 
HETATM   14  C   UNK N   1      31.403  54.256  45.427  0.00  0.00     0.026 C 
BRANCH  13  15
HETATM   15  C   UNK N   1      33.480  55.403  44.794  0.00  0.00     0.171 C 
HETATM   16  O   UNK N   1      33.647  55.958  45.870  0.00  0.00    -0.646 OA
BRANCH  15  17
HETATM   17  O   UNK N   1      34.542  55.285  43.963  0.00  0.00    -0.773 OA
HETATM   18  H   UNK N   1      34.486  55.402  43.008  0.00  0.00     0.167 HD
ENDBRANCH  15  17
ENDBRANCH  13  15
ENDBRANCH   1  13
BRANCH   5  19
HETATM   19  O   UNK N   1      28.157  56.124  39.195  0.00  0.00    -0.395 OA
HETATM   20  H   UNK N   1      28.027  56.559  40.078  0.00  0.00     0.210 HD
ENDBRANCH   5  19
TORSDOF 4
ENDMDL
MODEL 5
REMARK VINA RESULT:      -6.1      2.631      6.145
REMARK  4 active torsions:
REMARK  status: ('A' for Active; 'I' for Inactive)
REMARK    1  A    between atoms: C_2  and  O_3 
REMARK    2  A    between atoms: C_2  and  C_5 
REMARK    3  A    between atoms: C_5  and  C_7 
REMARK    4  A    between atoms: C_11  and  O_12 
ROOT
HETATM    1  C   UNK N   1      40.001  47.602  46.062  0.00  0.00     0.025 C 
HETATM    2  C   UNK N   1      40.710  47.862  47.426  0.00  0.00     0.019 C 
HETATM    3  C   UNK N   1      41.422  46.585  47.943  0.00  0.00     0.025 C 
HETATM    4  C   UNK N   1      40.404  45.410  48.122  0.00  0.00    -0.010 C 
HETATM    5  C   UNK N   1      41.237  44.169  48.542  0.00  0.00     0.130 C 
HETATM    6  C   UNK N   1      41.930  44.395  49.901  0.00  0.00     0.060 C 
HETATM    7  C   UNK N   1      42.510  45.783  50.065  0.00  0.00    -0.021 C 
HETATM    8  C   UNK N   1      42.282  46.797  49.194  0.00  0.00    -0.082 C 
HETATM    9  C   UNK N   1      42.925  48.139  49.453  0.00  0.00     0.043 C 
HETATM   10  C   UNK N   1      39.723  45.160  46.747  0.00  0.00     0.013 C 
HETATM   11  C   UNK N   1      39.014  46.416  46.205  0.00  0.00     0.010 C 
HETATM   12  C   UNK N   1      39.314  45.706  49.201  0.00  0.00     0.018 C 
ENDROOT
BRANCH   1  13
HETATM   13  C   UNK N   1      39.273  48.826  45.468  0.00  0.00     0.010 C 
HETATM   14  C   UNK N   1      38.918  49.882  46.239  0.00  0.00     0.026 C 
BRANCH  13  15
HETATM   15  C   UNK N   1      38.942  48.873  44.000  0.00  0.00     0.171 C 
HETATM   16  O   UNK N   1      39.719  49.403  43.220  0.00  0.00    -0.646 OA
BRANCH  15  17
HETATM   17  O   UNK N   1      37.814  48.315  43.501  0.00  0.00    -0.773 OA
HETATM   18  H   UNK N   1      36.954  48.379  43.929  0.00  0.00     0.167 HD
ENDBRANCH  15  17
ENDBRANCH  13  15
ENDBRANCH   1  13
BRANCH   5  19
HETATM   19  O   UNK N   1      40.439  43.013  48.599  0.00  0.00    -0.395 OA
HETATM   20  H   UNK N   1      39.515  43.289  48.362  0.00  0.00     0.210 HD
ENDBRANCH   5  19
TORSDOF 4
ENDMDL
MODEL 6
REMARK VINA RESULT:      -5.8      3.122      6.908
REMARK  4 active torsions:
REMARK  status: ('A' for Active; 'I' for Inactive)
REMARK    1  A    between atoms: C_2  and  O_3 
REMARK    2  A    between atoms: C_2  and  C_5 
REMARK    3  A    between atoms: C_5  and  C_7 
REMARK    4  A    between atoms: C_11  and  O_12 
ROOT
HETATM    1  C   UNK N   1      39.482  47.995  45.332  0.00  0.00     0.025 C 
HETATM    2  C   UNK N   1      40.638  46.956  45.215  0.00  0.00     0.019 C 
HETATM    3  C   UNK N   1      40.392  45.734  46.137  0.00  0.00     0.025 C 
HETATM    4  C   UNK N   1      40.264  46.176  47.633  0.00  0.00    -0.010 C 
HETATM    5  C   UNK N   1      39.922  44.896  48.441  0.00  0.00     0.130 C 
HETATM    6  C   UNK N   1      41.063  43.862  48.358  0.00  0.00     0.060 C 
HETATM    7  C   UNK N   1      41.678  43.743  46.981  0.00  0.00    -0.021 C 
HETATM    8  C   UNK N   1      41.397  44.589  45.959  0.00  0.00    -0.082 C 
HETATM    9  C   UNK N   1      42.063  44.365  44.622  0.00  0.00     0.043 C 
HETATM   10  C   UNK N   1      39.095  47.198  47.724  0.00  0.00     0.013 C 
HETATM   11  C   UNK N   1      39.310  48.420  46.812  0.00  0.00     0.010 C 
HETATM   12  C   UNK N   1      41.571  46.822  48.192  0.00  0.00     0.018 C 
ENDROOT
BRANCH   1  13
HETATM   13  C   UNK N   1      39.642  49.243  44.439  0.00  0.00     0.010 C 
HETATM   14  C   UNK N   1      40.627  50.147  44.654  0.00  0.00     0.026 C 
BRANCH  13  15
HETATM   15  C   UNK N   1      38.694  49.482  43.293  0.00  0.00     0.171 C 
HETATM   16  O   UNK N   1      37.520  49.732  43.519  0.00  0.00    -0.646 OA
BRANCH  15  17
HETATM   17  O   UNK N   1      39.108  49.461  42.004  0.00  0.00    -0.773 OA
HETATM   18  H   UNK N   1      39.904  49.905  41.693  0.00  0.00     0.167 HD
ENDBRANCH  15  17
ENDBRANCH  13  15
ENDBRANCH   1  13
BRANCH   5  19
HETATM   19  O   UNK N   1      39.647  45.198  49.785  0.00  0.00    -0.395 OA
HETATM   20  H   UNK N   1      38.672  45.063  49.917  0.00  0.00     0.210 HD
ENDBRANCH   5  19
TORSDOF 4
ENDMDL
MODEL 7
REMARK VINA RESULT:      -5.5     13.706     15.911
REMARK  4 active torsions:
REMARK  status: ('A' for Active; 'I' for Inactive)
REMARK    1  A    between atoms: C_2  and  O_3 
REMARK    2  A    between atoms: C_2  and  C_5 
REMARK    3  A    between atoms: C_5  and  C_7 
REMARK    4  A    between atoms: C_11  and  O_12 
ROOT
HETATM    1  C   UNK N   1      49.734  55.074  43.668  0.00  0.00     0.025 C 
HETATM    2  C   UNK N   1      48.948  55.816  42.545  0.00  0.00     0.019 C 
HETATM    3  C   UNK N   1      49.486  55.443  41.140  0.00  0.00     0.025 C 
HETATM    4  C   UNK N   1      51.005  55.798  41.009  0.00  0.00    -0.010 C 
HETATM    5  C   UNK N   1      51.455  55.292  39.612  0.00  0.00     0.130 C 
HETATM    6  C   UNK N   1      50.706  56.029  38.483  0.00  0.00     0.060 C 
HETATM    7  C   UNK N   1      49.236  56.247  38.769  0.00  0.00    -0.021 C 
HETATM    8  C   UNK N   1      48.663  55.999  39.973  0.00  0.00    -0.082 C 
HETATM    9  C   UNK N   1      47.182  56.243  40.138  0.00  0.00     0.043 C 
HETATM   10  C   UNK N   1      51.768  55.033  42.128  0.00  0.00     0.013 C 
HETATM   11  C   UNK N   1      51.247  55.380  43.536  0.00  0.00     0.010 C 
HETATM   12  C   UNK N   1      51.287  57.328  41.133  0.00  0.00     0.018 C 
ENDROOT
BRANCH   1  13
HETATM   13  C   UNK N   1      49.256  55.382  45.103  0.00  0.00     0.010 C 
HETATM   14  C   UNK N   1      47.972  55.726  45.363  0.00  0.00     0.026 C 
BRANCH  13  15
HETATM   15  C   UNK N   1      50.220  55.302  46.257  0.00  0.00     0.171 C 
HETATM   16  O   UNK N   1      50.560  56.323  46.835  0.00  0.00    -0.646 OA
BRANCH  15  17
HETATM   17  O   UNK N   1      50.706  54.120  46.704  0.00  0.00    -0.773 OA
HETATM   18  H   UNK N   1      50.461  53.729  47.550  0.00  0.00     0.167 HD
ENDBRANCH  15  17
ENDBRANCH  13  15
ENDBRANCH   1  13
BRANCH   5  19
HETATM   19  O   UNK N   1      52.842  55.435  39.438  0.00  0.00    -0.395 OA
HETATM   20  H   UNK N   1      53.008  55.472  38.460  0.00  0.00     0.210 HD
ENDBRANCH   5  19
TORSDOF 4
ENDMDL
MODEL 8
REMARK VINA RESULT:      -5.2      2.907      6.456
REMARK  4 active torsions:
REMARK  status: ('A' for Active; 'I' for Inactive)
REMARK    1  A    between atoms: C_2  and  O_3 
REMARK    2  A    between atoms: C_2  and  C_5 
REMARK    3  A    between atoms: C_5  and  C_7 
REMARK    4  A    between atoms: C_11  and  O_12 
ROOT
HETATM    1  C   UNK N   1      39.803  48.553  47.161  0.00  0.00     0.025 C 
HETATM    2  C   UNK N   1      39.348  47.069  47.028  0.00  0.00     0.019 C 
HETATM    3  C   UNK N   1      39.829  46.221  48.233  0.00  0.00     0.025 C 
HETATM    4  C   UNK N   1      41.389  46.260  48.357  0.00  0.00    -0.010 C 
HETATM    5  C   UNK N   1      41.746  45.468  49.645  0.00  0.00     0.130 C 
HETATM    6  C   UNK N   1      41.325  43.990  49.526  0.00  0.00     0.060 C 
HETATM    7  C   UNK N   1      39.977  43.791  48.868  0.00  0.00    -0.021 C 
HETATM    8  C   UNK N   1      39.285  44.789  48.264  0.00  0.00    -0.082 C 
HETATM    9  C   UNK N   1      37.941  44.475  47.650  0.00  0.00     0.043 C 
HETATM   10  C   UNK N   1      41.815  47.748  48.506  0.00  0.00     0.013 C 
HETATM   11  C   UNK N   1      41.342  48.615  47.324  0.00  0.00     0.010 C 
HETATM   12  C   UNK N   1      42.115  45.626  47.128  0.00  0.00     0.018 C 
ENDROOT
BRANCH   1  13
HETATM   13  C   UNK N   1      39.357  49.473  46.005  0.00  0.00     0.010 C 
HETATM   14  C   UNK N   1      38.453  50.464  46.197  0.00  0.00     0.026 C 
BRANCH  13  15
HETATM   15  C   UNK N   1      39.927  49.287  44.624  0.00  0.00     0.171 C 
HETATM   16  O   UNK N   1      40.892  49.948  44.272  0.00  0.00    -0.646 OA
BRANCH  15  17
HETATM   17  O   UNK N   1      39.422  48.379  43.756  0.00  0.00    -0.773 OA
HETATM   18  H   UNK N   1      39.222  47.467  43.995  0.00  0.00     0.167 HD
ENDBRANCH  15  17
ENDBRANCH  13  15
ENDBRANCH   1  13
BRANCH   5  19
HETATM   19  O   UNK N   1      43.119  45.553  49.933  0.00  0.00    -0.395 OA
HETATM   20  H   UNK N   1      43.539  44.726  49.578  0.00  0.00     0.210 HD
ENDBRANCH   5  19
TORSDOF 4
ENDMDL
MODEL 9
REMARK VINA RESULT:      -5.2     13.421     15.524
REMARK  4 active torsions:
REMARK  status: ('A' for Active; 'I' for Inactive)
REMARK    1  A    between atoms: C_2  and  O_3 
REMARK    2  A    between atoms: C_2  and  C_5 
REMARK    3  A    between atoms: C_5  and  C_7 
REMARK    4  A    between atoms: C_11  and  O_12 
ROOT
HETATM    1  C   UNK N   1      31.695  53.095  43.384  0.00  0.00     0.025 C 
HETATM    2  C   UNK N   1      31.180  54.385  42.679  0.00  0.00     0.019 C 
HETATM    3  C   UNK N   1      29.867  54.115  41.899  0.00  0.00     0.025 C 
HETATM    4  C   UNK N   1      30.077  53.001  40.819  0.00  0.00    -0.010 C 
HETATM    5  C   UNK N   1      28.687  52.746  40.177  0.00  0.00     0.130 C 
HETATM    6  C   UNK N   1      28.166  54.004  39.453  0.00  0.00     0.060 C 
HETATM    7  C   UNK N   1      28.424  55.290  40.206  0.00  0.00    -0.021 C 
HETATM    8  C   UNK N   1      29.204  55.366  41.314  0.00  0.00    -0.082 C 
HETATM    9  C   UNK N   1      29.380  56.705  41.991  0.00  0.00     0.043 C 
HETATM   10  C   UNK N   1      30.575  51.722  41.549  0.00  0.00     0.013 C 
HETATM   11  C   UNK N   1      31.875  51.965  42.340  0.00  0.00     0.010 C 
HETATM   12  C   UNK N   1      31.103  53.408  39.715  0.00  0.00     0.018 C 
ENDROOT
BRANCH   1  13
HETATM   13  C   UNK N   1      32.996  53.277  44.194  0.00  0.00     0.010 C 
HETATM   14  C   UNK N   1      33.739  52.215  44.590  0.00  0.00     0.026 C 
BRANCH  13  15
HETATM   15  C   UNK N   1      33.474  54.657  44.563  0.00  0.00     0.171 C 
HETATM   16  O   UNK N   1      32.927  55.265  45.471  0.00  0.00    -0.646 OA
BRANCH  15  17
HETATM   17  O   UNK N   1      34.521  55.244  43.939  0.00  0.00    -0.773 OA
HETATM   18  H   UNK N   1      34.904  56.084  44.214  0.00  0.00     0.167 HD
ENDBRANCH  15  17
ENDBRANCH  13  15
ENDBRANCH   1  13
BRANCH   5  19
HETATM   19  O   UNK N   1      28.728  51.662  39.283  0.00  0.00    -0.395 OA
HETATM   20  H   UNK N   1      28.155  50.949  39.669  0.00  0.00     0.210 HD
ENDBRANCH   5  19
TORSDOF 4
ENDMDL
