MODEL 1
REMARK VINA RESULT:      -7.5      0.000      0.000
REMARK  2 active torsions:
REMARK  status: ('A' for Active; 'I' for Inactive)
REMARK    1  A    between atoms: C_11  and  O_12 
REMARK    2  A    between atoms: O_12  and  C_13 
ROOT
HETATM    1  O   UNK N   1      42.005  43.458  54.392  0.00  0.00    -0.260 OA
HETATM    2  C   UNK N   1      41.679  44.002  53.351  0.00  0.00     0.289 A 
HETATM    3  O   UNK N   1      42.463  44.865  52.680  0.00  0.00    -0.308 OA
HETATM    4  C   UNK N   1      41.812  45.321  51.539  0.00  0.00     0.163 A 
HETATM    5  C   UNK N   1      40.529  44.528  51.544  0.00  0.00    -0.038 A 
HETATM    6  C   UNK N   1      40.457  43.769  52.629  0.00  0.00     0.018 A 
HETATM    7  C   UNK N   1      39.373  42.801  53.008  0.00  0.00     0.055 C 
HETATM    8  C   UNK N   1      39.599  44.527  50.369  0.00  0.00     0.047 C 
HETATM    9  C   UNK N   1      40.106  45.524  49.284  0.00  0.00     0.028 C 
HETATM   10  C   UNK N   1      41.684  45.508  48.994  0.00  0.00    -0.007 C 
HETATM   11  C   UNK N   1      42.061  44.656  47.712  0.00  0.00     0.141 C 
HETATM   12  C   UNK N   1      41.083  43.471  47.568  0.00  0.00     0.037 C 
HETATM   13  C   UNK N   1      39.681  44.021  47.200  0.00  0.00     0.036 C 
HETATM   14  C   UNK N   1      39.330  45.257  48.015  0.00  0.00    -0.084 C 
HETATM   15  C   UNK N   1      38.389  46.106  47.582  0.00  0.00     0.015 C 
HETATM   16  C   UNK N   1      42.495  44.944  50.225  0.00  0.00     0.049 C 
HETATM   17  C   UNK N   1      42.139  46.978  48.777  0.00  0.00     0.018 C 
ENDROOT
BRANCH  11  18
HETATM   18  O   UNK N   1      41.982  45.423  46.552  0.00  0.00    -0.316 OA
BRANCH  18  19
HETATM   19  C   UNK N   1      42.089  44.928  45.290  0.00  0.00     0.255 C 
HETATM   20  O   UNK N   1      41.653  45.550  44.332  0.00  0.00    -0.266 OA
HETATM   21  C   UNK N   1      42.768  43.613  45.073  0.00  0.00     0.126 C 
ENDBRANCH  18  19
ENDBRANCH  11  18
TORSDOF 2
ENDMDL
MODEL 2
REMARK VINA RESULT:      -7.4      2.489      3.856
REMARK  2 active torsions:
REMARK  status: ('A' for Active; 'I' for Inactive)
REMARK    1  A    between atoms: C_11  and  O_12 
REMARK    2  A    between atoms: O_12  and  C_13 
ROOT
HETATM    1  O   UNK N   1      40.149  42.946  52.030  0.00  0.00    -0.260 OA
HETATM    2  C   UNK N   1      40.560  43.561  51.061  0.00  0.00     0.289 A 
HETATM    3  O   UNK N   1      40.317  43.200  49.788  0.00  0.00    -0.308 OA
HETATM    4  C   UNK N   1      40.925  44.092  48.911  0.00  0.00     0.163 A 
HETATM    5  C   UNK N   1      41.507  45.131  49.836  0.00  0.00    -0.038 A 
HETATM    6  C   UNK N   1      41.299  44.794  51.101  0.00  0.00     0.018 A 
HETATM    7  C   UNK N   1      41.679  45.561  52.336  0.00  0.00     0.055 C 
HETATM    8  C   UNK N   1      42.074  46.418  49.318  0.00  0.00     0.047 C 
HETATM    9  C   UNK N   1      42.066  46.417  47.760  0.00  0.00     0.028 C 
HETATM   10  C   UNK N   1      40.740  45.845  47.061  0.00  0.00    -0.007 C 
HETATM   11  C   UNK N   1      39.750  46.991  46.596  0.00  0.00     0.141 C 
HETATM   12  C   UNK N   1      39.838  48.184  47.571  0.00  0.00     0.037 C 
HETATM   13  C   UNK N   1      41.226  48.858  47.413  0.00  0.00     0.036 C 
HETATM   14  C   UNK N   1      42.341  47.830  47.298  0.00  0.00    -0.084 C 
HETATM   15  C   UNK N   1      43.518  48.168  46.754  0.00  0.00     0.015 C 
HETATM   16  C   UNK N   1      39.955  44.866  48.019  0.00  0.00     0.049 C 
HETATM   17  C   UNK N   1      41.179  45.020  45.819  0.00  0.00     0.018 C 
ENDROOT
BRANCH  11  18
HETATM   18  O   UNK N   1      40.072  47.452  45.322  0.00  0.00    -0.316 OA
BRANCH  18  19
HETATM   19  C   UNK N   1      39.338  48.357  44.619  0.00  0.00     0.255 C 
HETATM   20  O   UNK N   1      38.214  48.081  44.224  0.00  0.00    -0.266 OA
HETATM   21  C   UNK N   1      39.908  49.712  44.346  0.00  0.00     0.126 C 
ENDBRANCH  18  19
ENDBRANCH  11  18
TORSDOF 2
ENDMDL
MODEL 3
REMARK VINA RESULT:      -7.3      1.786      5.989
REMARK  2 active torsions:
REMARK  status: ('A' for Active; 'I' for Inactive)
REMARK    1  A    between atoms: C_11  and  O_12 
REMARK    2  A    between atoms: O_12  and  C_13 
ROOT
HETATM    1  O   UNK N   1      43.981  41.837  44.170  0.00  0.00    -0.260 OA
HETATM    2  C   UNK N   1      43.190  42.256  44.998  0.00  0.00     0.289 A 
HETATM    3  O   UNK N   1      43.026  41.713  46.217  0.00  0.00    -0.308 OA
HETATM    4  C   UNK N   1      42.049  42.405  46.925  0.00  0.00     0.163 A 
HETATM    5  C   UNK N   1      41.695  43.536  45.992  0.00  0.00    -0.038 A 
HETATM    6  C   UNK N   1      42.363  43.423  44.853  0.00  0.00     0.018 A 
HETATM    7  C   UNK N   1      42.336  44.351  43.672  0.00  0.00     0.055 C 
HETATM    8  C   UNK N   1      40.831  44.679  46.432  0.00  0.00     0.047 C 
HETATM    9  C   UNK N   1      40.306  44.427  47.878  0.00  0.00     0.028 C 
HETATM   10  C   UNK N   1      41.373  43.845  48.925  0.00  0.00    -0.007 C 
HETATM   11  C   UNK N   1      41.995  44.968  49.854  0.00  0.00     0.141 C 
HETATM   12  C   UNK N   1      42.098  46.294  49.070  0.00  0.00     0.037 C 
HETATM   13  C   UNK N   1      40.668  46.833  48.807  0.00  0.00     0.036 C 
HETATM   14  C   UNK N   1      39.717  45.723  48.386  0.00  0.00    -0.084 C 
HETATM   15  C   UNK N   1      38.393  45.883  48.513  0.00  0.00     0.015 C 
HETATM   16  C   UNK N   1      42.553  43.092  48.194  0.00  0.00     0.049 C 
HETATM   17  C   UNK N   1      40.641  42.801  49.814  0.00  0.00     0.018 C 
ENDROOT
BRANCH  11  18
HETATM   18  O   UNK N   1      41.202  45.193  50.977  0.00  0.00    -0.316 OA
BRANCH  18  19
HETATM   19  C   UNK N   1      41.611  45.005  52.260  0.00  0.00     0.255 C 
HETATM   20  O   UNK N   1      42.601  45.576  52.694  0.00  0.00    -0.266 OA
HETATM   21  C   UNK N   1      40.824  44.103  53.157  0.00  0.00     0.126 C 
ENDBRANCH  18  19
ENDBRANCH  11  18
TORSDOF 2
ENDMDL
MODEL 4
REMARK VINA RESULT:      -7.0      1.573      2.627
REMARK  2 active torsions:
REMARK  status: ('A' for Active; 'I' for Inactive)
REMARK    1  A    between atoms: C_11  and  O_12 
REMARK    2  A    between atoms: O_12  and  C_13 
ROOT
HETATM    1  O   UNK N   1      41.159  42.948  53.748  0.00  0.00    -0.260 OA
HETATM    2  C   UNK N   1      41.445  43.412  52.658  0.00  0.00     0.289 A 
HETATM    3  O   UNK N   1      41.561  42.674  51.539  0.00  0.00    -0.308 OA
HETATM    4  C   UNK N   1      41.903  43.485  50.462  0.00  0.00     0.163 A 
HETATM    5  C   UNK N   1      41.885  44.868  51.062  0.00  0.00    -0.038 A 
HETATM    6  C   UNK N   1      41.631  44.807  52.361  0.00  0.00     0.018 A 
HETATM    7  C   UNK N   1      41.486  45.947  53.328  0.00  0.00     0.055 C 
HETATM    8  C   UNK N   1      41.980  46.097  50.210  0.00  0.00     0.047 C 
HETATM    9  C   UNK N   1      42.215  45.700  48.721  0.00  0.00     0.028 C 
HETATM   10  C   UNK N   1      41.341  44.471  48.172  0.00  0.00    -0.007 C 
HETATM   11  C   UNK N   1      40.069  44.942  47.354  0.00  0.00     0.141 C 
HETATM   12  C   UNK N   1      39.535  46.267  47.938  0.00  0.00     0.037 C 
HETATM   13  C   UNK N   1      40.558  47.394  47.640  0.00  0.00     0.036 C 
HETATM   14  C   UNK N   1      41.988  46.932  47.875  0.00  0.00    -0.084 C 
HETATM   15  C   UNK N   1      43.010  47.579  47.300  0.00  0.00     0.015 C 
HETATM   16  C   UNK N   1      40.860  43.531  49.346  0.00  0.00     0.049 C 
HETATM   17  C   UNK N   1      42.253  43.620  47.246  0.00  0.00     0.018 C 
ENDROOT
BRANCH  11  18
HETATM   18  O   UNK N   1      40.380  45.157  46.013  0.00  0.00    -0.316 OA
BRANCH  18  19
HETATM   19  C   UNK N   1      40.469  44.177  45.074  0.00  0.00     0.255 C 
HETATM   20  O   UNK N   1      39.557  43.379  44.912  0.00  0.00    -0.266 OA
HETATM   21  C   UNK N   1      41.692  44.089  44.218  0.00  0.00     0.126 C 
ENDBRANCH  18  19
ENDBRANCH  11  18
TORSDOF 2
ENDMDL
MODEL 5
REMARK VINA RESULT:      -6.8     13.238     16.144
REMARK  2 active torsions:
REMARK  status: ('A' for Active; 'I' for Inactive)
REMARK    1  A    between atoms: C_11  and  O_12 
REMARK    2  A    between atoms: O_12  and  C_13 
ROOT
HETATM    1  O   UNK N   1      34.058  52.570  45.595  0.00  0.00    -0.260 OA
HETATM    2  C   UNK N   1      33.131  52.768  44.829  0.00  0.00     0.289 A 
HETATM    3  O   UNK N   1      32.286  53.809  44.932  0.00  0.00    -0.308 OA
HETATM    4  C   UNK N   1      31.332  53.757  43.920  0.00  0.00     0.163 A 
HETATM    5  C   UNK N   1      31.774  52.570  43.102  0.00  0.00    -0.038 A 
HETATM    6  C   UNK N   1      32.825  51.987  43.661  0.00  0.00     0.018 A 
HETATM    7  C   UNK N   1      33.599  50.802  43.158  0.00  0.00     0.055 C 
HETATM    8  C   UNK N   1      31.165  52.262  41.768  0.00  0.00     0.047 C 
HETATM    9  C   UNK N   1      29.993  53.248  41.475  0.00  0.00     0.028 C 
HETATM   10  C   UNK N   1      30.256  54.787  41.844  0.00  0.00    -0.007 C 
HETATM   11  C   UNK N   1      30.674  55.654  40.586  0.00  0.00     0.141 C 
HETATM   12  C   UNK N   1      31.490  54.788  39.603  0.00  0.00     0.037 C 
HETATM   13  C   UNK N   1      30.552  53.724  38.977  0.00  0.00     0.036 C 
HETATM   14  C   UNK N   1      29.628  53.107  40.015  0.00  0.00    -0.084 C 
HETATM   15  C   UNK N   1      28.496  52.499  39.636  0.00  0.00     0.015 C 
HETATM   16  C   UNK N   1      31.374  54.936  42.949  0.00  0.00     0.049 C 
HETATM   17  C   UNK N   1      28.940  55.360  42.440  0.00  0.00     0.018 C 
ENDROOT
BRANCH  11  18
HETATM   18  O   UNK N   1      29.557  56.137  39.909  0.00  0.00    -0.316 OA
BRANCH  18  19
HETATM   19  C   UNK N   1      29.420  57.412  39.456  0.00  0.00     0.255 C 
HETATM   20  O   UNK N   1      29.357  58.352  40.236  0.00  0.00    -0.266 OA
HETATM   21  C   UNK N   1      29.366  57.667  37.983  0.00  0.00     0.126 C 
ENDBRANCH  18  19
ENDBRANCH  11  18
TORSDOF 2
ENDMDL
MODEL 6
REMARK VINA RESULT:      -6.3      1.595      1.969
REMARK  2 active torsions:
REMARK  status: ('A' for Active; 'I' for Inactive)
REMARK    1  A    between atoms: C_11  and  O_12 
REMARK    2  A    between atoms: O_12  and  C_13 
ROOT
HETATM    1  O   UNK N   1      42.204  43.737  53.808  0.00  0.00    -0.260 OA
HETATM    2  C   UNK N   1      41.821  44.352  52.828  0.00  0.00     0.289 A 
HETATM    3  O   UNK N   1      42.392  45.488  52.388  0.00  0.00    -0.308 OA
HETATM    4  C   UNK N   1      41.727  45.955  51.259  0.00  0.00     0.163 A 
HETATM    5  C   UNK N   1      40.707  44.875  50.999  0.00  0.00    -0.038 A 
HETATM    6  C   UNK N   1      40.763  43.947  51.943  0.00  0.00     0.018 A 
HETATM    7  C   UNK N   1      39.953  42.686  52.046  0.00  0.00     0.055 C 
HETATM    8  C   UNK N   1      39.900  44.843  49.736  0.00  0.00     0.047 C 
HETATM    9  C   UNK N   1      40.200  46.109  48.877  0.00  0.00     0.028 C 
HETATM   10  C   UNK N   1      41.741  46.541  48.772  0.00  0.00    -0.007 C 
HETATM   11  C   UNK N   1      42.426  46.048  47.432  0.00  0.00     0.141 C 
HETATM   12  C   UNK N   1      41.815  44.698  47.001  0.00  0.00     0.037 C 
HETATM   13  C   UNK N   1      40.347  44.931  46.558  0.00  0.00     0.036 C 
HETATM   14  C   UNK N   1      39.619  45.878  47.500  0.00  0.00    -0.084 C 
HETATM   15  C   UNK N   1      38.519  46.524  47.092  0.00  0.00     0.015 C 
HETATM   16  C   UNK N   1      42.582  45.997  49.993  0.00  0.00     0.049 C 
HETATM   17  C   UNK N   1      41.800  48.094  48.829  0.00  0.00     0.018 C 
ENDROOT
BRANCH  11  18
HETATM   18  O   UNK N   1      42.229  46.959  46.397  0.00  0.00    -0.316 OA
BRANCH  18  19
HETATM   19  C   UNK N   1      42.899  48.135  46.266  0.00  0.00     0.255 C 
HETATM   20  O   UNK N   1      43.940  48.336  46.875  0.00  0.00    -0.266 OA
HETATM   21  C   UNK N   1      42.363  49.188  45.348  0.00  0.00     0.126 C 
ENDBRANCH  18  19
ENDBRANCH  11  18
TORSDOF 2
ENDMDL
MODEL 7
REMARK VINA RESULT:      -6.0     14.939     18.364
REMARK  2 active torsions:
REMARK  status: ('A' for Active; 'I' for Inactive)
REMARK    1  A    between atoms: C_11  and  O_12 
REMARK    2  A    between atoms: O_12  and  C_13 
ROOT
HETATM    1  O   UNK N   1      29.657  48.800  40.848  0.00  0.00    -0.260 OA
HETATM    2  C   UNK N   1      29.519  49.986  40.602  0.00  0.00     0.289 A 
HETATM    3  O   UNK N   1      28.384  50.522  40.120  0.00  0.00    -0.308 OA
HETATM    4  C   UNK N   1      28.539  51.892  39.935  0.00  0.00     0.163 A 
HETATM    5  C   UNK N   1      29.923  52.150  40.475  0.00  0.00    -0.038 A 
HETATM    6  C   UNK N   1      30.495  51.014  40.848  0.00  0.00     0.018 A 
HETATM    7  C   UNK N   1      31.849  50.822  41.470  0.00  0.00     0.055 C 
HETATM    8  C   UNK N   1      30.440  53.541  40.686  0.00  0.00     0.047 C 
HETATM    9  C   UNK N   1      29.405  54.581  40.160  0.00  0.00     0.028 C 
HETATM   10  C   UNK N   1      27.868  54.289  40.513  0.00  0.00    -0.007 C 
HETATM   11  C   UNK N   1      27.359  55.120  41.763  0.00  0.00     0.141 C 
HETATM   12  C   UNK N   1      28.516  55.315  42.765  0.00  0.00     0.037 C 
HETATM   13  C   UNK N   1      29.566  56.268  42.138  0.00  0.00     0.036 C 
HETATM   14  C   UNK N   1      29.819  55.942  40.674  0.00  0.00    -0.084 C 
HETATM   15  C   UNK N   1      30.349  56.862  39.858  0.00  0.00     0.015 C 
HETATM   16  C   UNK N   1      27.619  52.756  40.797  0.00  0.00     0.049 C 
HETATM   17  C   UNK N   1      27.017  54.672  39.270  0.00  0.00     0.018 C 
ENDROOT
BRANCH  11  18
HETATM   18  O   UNK N   1      26.902  56.379  41.382  0.00  0.00    -0.316 OA
BRANCH  18  19
HETATM   19  C   UNK N   1      25.928  57.075  42.028  0.00  0.00     0.255 C 
HETATM   20  O   UNK N   1      24.880  56.535  42.350  0.00  0.00    -0.266 OA
HETATM   21  C   UNK N   1      26.154  58.515  42.364  0.00  0.00     0.126 C 
ENDBRANCH  18  19
ENDBRANCH  11  18
TORSDOF 2
ENDMDL
MODEL 8
REMARK VINA RESULT:      -5.8     14.823     17.766
REMARK  2 active torsions:
REMARK  status: ('A' for Active; 'I' for Inactive)
REMARK    1  A    between atoms: C_11  and  O_12 
REMARK    2  A    between atoms: O_12  and  C_13 
ROOT
HETATM    1  O   UNK N   1      32.743  54.920  44.881  0.00  0.00    -0.260 OA
HETATM    2  C   UNK N   1      31.870  54.850  44.034  0.00  0.00     0.289 A 
HETATM    3  O   UNK N   1      31.145  55.905  43.619  0.00  0.00    -0.308 OA
HETATM    4  C   UNK N   1      30.225  55.506  42.654  0.00  0.00     0.163 A 
HETATM    5  C   UNK N   1      30.556  54.049  42.454  0.00  0.00    -0.038 A 
HETATM    6  C   UNK N   1      31.516  53.673  43.288  0.00  0.00     0.018 A 
HETATM    7  C   UNK N   1      32.167  52.324  43.397  0.00  0.00     0.055 C 
HETATM    8  C   UNK N   1      29.959  53.252  41.334  0.00  0.00     0.047 C 
HETATM    9  C   UNK N   1      28.916  54.114  40.561  0.00  0.00     0.028 C 
HETATM   10  C   UNK N   1      29.339  55.632  40.261  0.00  0.00    -0.007 C 
HETATM   11  C   UNK N   1      29.893  55.834  38.790  0.00  0.00     0.141 C 
HETATM   12  C   UNK N   1      30.637  54.560  38.335  0.00  0.00     0.037 C 
HETATM   13  C   UNK N   1      29.605  53.418  38.148  0.00  0.00     0.036 C 
HETATM   14  C   UNK N   1      28.585  53.392  39.275  0.00  0.00    -0.084 C 
HETATM   15  C   UNK N   1      27.404  52.782  39.104  0.00  0.00     0.015 C 
HETATM   16  C   UNK N   1      30.430  56.144  41.281  0.00  0.00     0.049 C 
HETATM   17  C   UNK N   1      28.078  56.520  40.453  0.00  0.00     0.018 C 
ENDROOT
BRANCH  11  18
HETATM   18  O   UNK N   1      28.860  56.074  37.888  0.00  0.00    -0.316 OA
BRANCH  18  19
HETATM   19  C   UNK N   1      28.873  57.052  36.942  0.00  0.00     0.255 C 
HETATM   20  O   UNK N   1      29.903  57.339  36.350  0.00  0.00    -0.266 OA
HETATM   21  C   UNK N   1      27.603  57.770  36.611  0.00  0.00     0.126 C 
ENDBRANCH  18  19
ENDBRANCH  11  18
TORSDOF 2
ENDMDL
MODEL 9
REMARK VINA RESULT:      -5.8     13.828     16.864
REMARK  2 active torsions:
REMARK  status: ('A' for Active; 'I' for Inactive)
REMARK    1  A    between atoms: C_11  and  O_12 
REMARK    2  A    between atoms: O_12  and  C_13 
ROOT
HETATM    1  O   UNK N   1      32.630  50.924  44.575  0.00  0.00    -0.260 OA
HETATM    2  C   UNK N   1      32.223  51.709  43.736  0.00  0.00     0.289 A 
HETATM    3  O   UNK N   1      32.149  51.426  42.423  0.00  0.00    -0.308 OA
HETATM    4  C   UNK N   1      31.655  52.522  41.722  0.00  0.00     0.163 A 
HETATM    5  C   UNK N   1      31.334  53.506  42.819  0.00  0.00    -0.038 A 
HETATM    6  C   UNK N   1      31.692  53.019  43.998  0.00  0.00     0.018 A 
HETATM    7  C   UNK N   1      31.518  53.652  45.350  0.00  0.00     0.055 C 
HETATM    8  C   UNK N   1      30.563  54.763  42.548  0.00  0.00     0.047 C 
HETATM    9  C   UNK N   1      30.296  54.908  41.019  0.00  0.00     0.028 C 
HETATM   10  C   UNK N   1      29.848  53.572  40.252  0.00  0.00    -0.007 C 
HETATM   11  C   UNK N   1      28.281  53.485  40.039  0.00  0.00     0.141 C 
HETATM   12  C   UNK N   1      27.555  54.155  41.225  0.00  0.00     0.037 C 
HETATM   13  C   UNK N   1      27.814  55.683  41.170  0.00  0.00     0.036 C 
HETATM   14  C   UNK N   1      29.264  55.997  40.835  0.00  0.00    -0.084 C 
HETATM   15  C   UNK N   1      29.599  57.196  40.341  0.00  0.00     0.015 C 
HETATM   16  C   UNK N   1      30.321  52.275  41.018  0.00  0.00     0.049 C 
HETATM   17  C   UNK N   1      30.549  53.568  38.864  0.00  0.00     0.018 C 
ENDROOT
BRANCH  11  18
HETATM   18  O   UNK N   1      27.891  54.137  38.872  0.00  0.00    -0.316 OA
BRANCH  18  19
HETATM   19  C   UNK N   1      27.047  53.616  37.940  0.00  0.00     0.255 C 
HETATM   20  O   UNK N   1      26.053  54.229  37.580  0.00  0.00    -0.266 OA
HETATM   21  C   UNK N   1      27.354  52.282  37.337  0.00  0.00     0.126 C 
ENDBRANCH  18  19
ENDBRANCH  11  18
TORSDOF 2
ENDMDL
