MODEL 1
REMARK VINA RESULT:      -6.5      0.000      0.000
REMARK  1 active torsions:
REMARK  status: ('A' for Active; 'I' for Inactive)
REMARK    1  A    between atoms: C_7  and  O_8 
ROOT
HETATM    1  O   UNK N   1      41.197  44.807  53.125  0.00  0.00    -0.265 OA
HETATM    2  C   UNK N   1      41.610  44.808  51.977  0.00  0.00     0.263 C 
HETATM    3  O   UNK N   1      42.177  45.896  51.424  0.00  0.00    -0.311 OA
HETATM    4  C   UNK N   1      42.474  45.717  50.093  0.00  0.00     0.160 C 
HETATM    5  C   UNK N   1      41.523  46.523  49.228  0.00  0.00     0.011 C 
HETATM    6  C   UNK N   1      41.872  47.330  48.186  0.00  0.00    -0.057 C 
HETATM    7  C   UNK N   1      40.762  47.875  47.280  0.00  0.00     0.149 C 
HETATM    8  C   UNK N   1      39.844  46.750  46.701  0.00  0.00     0.071 C 
HETATM    9  C   UNK N   1      40.491  45.699  45.749  0.00  0.00     0.159 A 
HETATM   10  O   UNK N   1      41.819  45.425  46.153  0.00  0.00    -0.370 OA
HETATM   11  C   UNK N   1      40.954  44.334  46.244  0.00  0.00     0.084 A 
HETATM   12  C   UNK N   1      40.837  43.879  47.717  0.00  0.00     0.041 C 
HETATM   13  C   UNK N   1      42.200  43.634  48.424  0.00  0.00     0.011 C 
HETATM   14  C   UNK N   1      42.325  44.172  49.886  0.00  0.00     0.032 C 
HETATM   15  C   UNK N   1      41.415  43.669  51.031  0.00  0.00     0.088 C 
HETATM   16  C   UNK N   1      39.922  43.497  50.738  0.00  0.00     0.021 C 
HETATM   17  C   UNK N   1      41.282  43.274  45.196  0.00  0.00     0.049 C 
HETATM   18  C   UNK N   1      43.310  47.685  47.836  0.00  0.00     0.046 C 
ENDROOT
BRANCH   7  19
HETATM   19  O   UNK N   1      41.314  48.619  46.223  0.00  0.00    -0.391 OA
HETATM   20  H   UNK N   1      42.060  49.154  46.599  0.00  0.00     0.210 HD
ENDBRANCH   7  19
TORSDOF 1
ENDMDL
MODEL 2
REMARK VINA RESULT:      -5.5     12.776     15.499
REMARK  1 active torsions:
REMARK  status: ('A' for Active; 'I' for Inactive)
REMARK    1  A    between atoms: C_7  and  O_8 
ROOT
HETATM    1  O   UNK N   1      34.110  52.119  44.692  0.00  0.00    -0.265 OA
HETATM    2  C   UNK N   1      33.051  52.529  44.245  0.00  0.00     0.263 C 
HETATM    3  O   UNK N   1      32.351  51.838  43.327  0.00  0.00    -0.311 OA
HETATM    4  C   UNK N   1      31.245  52.525  42.880  0.00  0.00     0.160 C 
HETATM    5  C   UNK N   1      31.466  53.009  41.459  0.00  0.00     0.011 C 
HETATM    6  C   UNK N   1      30.589  52.885  40.422  0.00  0.00    -0.057 C 
HETATM    7  C   UNK N   1      30.882  53.644  39.123  0.00  0.00     0.149 C 
HETATM    8  C   UNK N   1      31.108  55.173  39.351  0.00  0.00     0.071 C 
HETATM    9  C   UNK N   1      29.916  56.013  39.901  0.00  0.00     0.159 A 
HETATM   10  O   UNK N   1      29.154  55.242  40.811  0.00  0.00    -0.370 OA
HETATM   11  C   UNK N   1      29.779  56.351  41.381  0.00  0.00     0.084 A 
HETATM   12  C   UNK N   1      30.789  55.889  42.456  0.00  0.00     0.041 C 
HETATM   13  C   UNK N   1      30.200  54.913  43.514  0.00  0.00     0.011 C 
HETATM   14  C   UNK N   1      31.100  53.698  43.907  0.00  0.00     0.032 C 
HETATM   15  C   UNK N   1      32.491  53.877  44.558  0.00  0.00     0.088 C 
HETATM   16  C   UNK N   1      33.414  54.958  43.989  0.00  0.00     0.021 C 
HETATM   17  C   UNK N   1      28.764  57.423  41.772  0.00  0.00     0.049 C 
HETATM   18  C   UNK N   1      29.304  52.073  40.494  0.00  0.00     0.046 C 
ENDROOT
BRANCH   7  19
HETATM   19  O   UNK N   1      29.837  53.457  38.201  0.00  0.00    -0.391 OA
HETATM   20  H   UNK N   1      30.021  52.611  37.715  0.00  0.00     0.210 HD
ENDBRANCH   7  19
TORSDOF 1
ENDMDL
MODEL 3
REMARK VINA RESULT:      -5.5      1.802      3.521
REMARK  1 active torsions:
REMARK  status: ('A' for Active; 'I' for Inactive)
REMARK    1  A    between atoms: C_7  and  O_8 
ROOT
HETATM    1  O   UNK N   1      41.747  42.828  51.590  0.00  0.00    -0.265 OA
HETATM    2  C   UNK N   1      41.130  43.361  50.682  0.00  0.00     0.263 C 
HETATM    3  O   UNK N   1      40.989  42.776  49.478  0.00  0.00    -0.311 OA
HETATM    4  C   UNK N   1      40.352  43.589  48.569  0.00  0.00     0.160 C 
HETATM    5  C   UNK N   1      41.339  44.092  47.532  0.00  0.00     0.011 C 
HETATM    6  C   UNK N   1      41.155  44.093  46.181  0.00  0.00    -0.057 C 
HETATM    7  C   UNK N   1      42.155  44.857  45.307  0.00  0.00     0.149 C 
HETATM    8  C   UNK N   1      42.331  46.347  45.746  0.00  0.00     0.071 C 
HETATM    9  C   UNK N   1      41.094  47.289  45.642  0.00  0.00     0.159 A 
HETATM   10  O   UNK N   1      39.908  46.574  45.936  0.00  0.00    -0.370 OA
HETATM   11  C   UNK N   1      40.203  47.593  46.842  0.00  0.00     0.084 A 
HETATM   12  C   UNK N   1      40.437  46.994  48.248  0.00  0.00     0.041 C 
HETATM   13  C   UNK N   1      39.302  46.052  48.742  0.00  0.00     0.011 C 
HETATM   14  C   UNK N   1      39.759  44.738  49.453  0.00  0.00     0.032 C 
HETATM   15  C   UNK N   1      40.587  44.750  50.758  0.00  0.00     0.088 C 
HETATM   16  C   UNK N   1      41.745  45.746  50.863  0.00  0.00     0.021 C 
HETATM   17  C   UNK N   1      39.218  48.752  46.717  0.00  0.00     0.049 C 
HETATM   18  C   UNK N   1      39.980  43.418  45.487  0.00  0.00     0.046 C 
ENDROOT
BRANCH   7  19
HETATM   19  O   UNK N   1      41.764  44.810  43.958  0.00  0.00    -0.391 OA
HETATM   20  H   UNK N   1      41.758  45.743  43.620  0.00  0.00     0.210 HD
ENDBRANCH   7  19
TORSDOF 1
ENDMDL
MODEL 4
REMARK VINA RESULT:      -5.0      1.922      5.677
REMARK  1 active torsions:
REMARK  status: ('A' for Active; 'I' for Inactive)
REMARK    1  A    between atoms: C_7  and  O_8 
ROOT
HETATM    1  O   UNK N   1      38.364  48.377  44.402  0.00  0.00    -0.265 OA
HETATM    2  C   UNK N   1      39.327  47.911  44.988  0.00  0.00     0.263 C 
HETATM    3  O   UNK N   1      39.568  46.587  45.022  0.00  0.00    -0.311 OA
HETATM    4  C   UNK N   1      40.640  46.267  45.823  0.00  0.00     0.160 C 
HETATM    5  C   UNK N   1      40.162  45.596  47.098  0.00  0.00     0.011 C 
HETATM    6  C   UNK N   1      40.669  44.455  47.645  0.00  0.00    -0.057 C 
HETATM    7  C   UNK N   1      40.221  44.059  49.056  0.00  0.00     0.149 C 
HETATM    8  C   UNK N   1      40.434  45.200  50.102  0.00  0.00     0.071 C 
HETATM    9  C   UNK N   1      41.893  45.663  50.392  0.00  0.00     0.159 A 
HETATM   10  O   UNK N   1      42.670  45.600  49.211  0.00  0.00    -0.370 OA
HETATM   11  C   UNK N   1      42.503  46.888  49.720  0.00  0.00     0.084 A 
HETATM   12  C   UNK N   1      41.744  47.762  48.695  0.00  0.00     0.041 C 
HETATM   13  C   UNK N   1      42.351  47.749  47.264  0.00  0.00     0.011 C 
HETATM   14  C   UNK N   1      41.332  47.647  46.084  0.00  0.00     0.032 C 
HETATM   15  C   UNK N   1      40.252  48.725  45.831  0.00  0.00     0.088 C 
HETATM   16  C   UNK N   1      39.492  49.276  47.040  0.00  0.00     0.021 C 
HETATM   17  C   UNK N   1      43.809  47.433  50.292  0.00  0.00     0.049 C 
HETATM   18  C   UNK N   1      41.696  43.569  46.953  0.00  0.00     0.046 C 
ENDROOT
BRANCH   7  19
HETATM   19  O   UNK N   1      40.902  42.904  49.480  0.00  0.00    -0.391 OA
HETATM   20  H   UNK N   1      40.602  42.157  48.899  0.00  0.00     0.210 HD
ENDBRANCH   7  19
TORSDOF 1
ENDMDL
MODEL 5
REMARK VINA RESULT:      -4.9     13.507     15.885
REMARK  1 active torsions:
REMARK  status: ('A' for Active; 'I' for Inactive)
REMARK    1  A    between atoms: C_7  and  O_8 
ROOT
HETATM    1  O   UNK N   1      49.906  54.572  38.871  0.00  0.00    -0.265 OA
HETATM    2  C   UNK N   1      50.180  55.306  39.806  0.00  0.00     0.263 C 
HETATM    3  O   UNK N   1      51.085  54.961  40.740  0.00  0.00    -0.311 OA
HETATM    4  C   UNK N   1      51.166  55.880  41.760  0.00  0.00     0.160 C 
HETATM    5  C   UNK N   1      50.547  55.317  43.026  0.00  0.00     0.011 C 
HETATM    6  C   UNK N   1      51.097  55.349  44.273  0.00  0.00    -0.057 C 
HETATM    7  C   UNK N   1      50.224  54.947  45.467  0.00  0.00     0.149 C 
HETATM    8  C   UNK N   1      48.884  55.748  45.537  0.00  0.00     0.071 C 
HETATM    9  C   UNK N   1      48.966  57.289  45.758  0.00  0.00     0.159 A 
HETATM   10  O   UNK N   1      50.102  57.817  45.100  0.00  0.00    -0.370 OA
HETATM   11  C   UNK N   1      48.883  58.279  44.602  0.00  0.00     0.084 A 
HETATM   12  C   UNK N   1      48.724  57.849  43.125  0.00  0.00     0.041 C 
HETATM   13  C   UNK N   1      49.930  58.218  42.215  0.00  0.00     0.011 C 
HETATM   14  C   UNK N   1      50.390  57.121  41.202  0.00  0.00     0.032 C 
HETATM   15  C   UNK N   1      49.461  56.583  40.089  0.00  0.00     0.088 C 
HETATM   16  C   UNK N   1      48.005  56.280  40.455  0.00  0.00     0.021 C 
HETATM   17  C   UNK N   1      48.663  59.750  44.943  0.00  0.00     0.049 C 
HETATM   18  C   UNK N   1      52.519  55.810  44.559  0.00  0.00     0.046 C 
ENDROOT
BRANCH   7  19
HETATM   19  O   UNK N   1      50.933  55.114  46.670  0.00  0.00    -0.391 OA
HETATM   20  H   UNK N   1      51.868  55.345  46.430  0.00  0.00     0.210 HD
ENDBRANCH   7  19
TORSDOF 1
ENDMDL
MODEL 6
REMARK VINA RESULT:      -4.7     14.652     17.233
REMARK  1 active torsions:
REMARK  status: ('A' for Active; 'I' for Inactive)
REMARK    1  A    between atoms: C_7  and  O_8 
ROOT
HETATM    1  O   UNK N   1      31.910  50.907  42.529  0.00  0.00    -0.265 OA
HETATM    2  C   UNK N   1      31.462  51.823  41.859  0.00  0.00     0.263 C 
HETATM    3  O   UNK N   1      31.297  53.060  42.363  0.00  0.00    -0.311 OA
HETATM    4  C   UNK N   1      30.682  53.913  41.476  0.00  0.00     0.160 C 
HETATM    5  C   UNK N   1      29.261  54.201  41.923  0.00  0.00     0.011 C 
HETATM    6  C   UNK N   1      28.674  55.429  41.994  0.00  0.00    -0.057 C 
HETATM    7  C   UNK N   1      27.162  55.504  42.236  0.00  0.00     0.149 C 
HETATM    8  C   UNK N   1      26.340  54.662  41.208  0.00  0.00     0.071 C 
HETATM    9  C   UNK N   1      26.402  55.080  39.708  0.00  0.00     0.159 A 
HETATM   10  O   UNK N   1      27.692  55.568  39.389  0.00  0.00    -0.370 OA
HETATM   11  C   UNK N   1      27.338  54.398  38.716  0.00  0.00     0.084 A 
HETATM   12  C   UNK N   1      28.305  53.256  39.105  0.00  0.00     0.041 C 
HETATM   13  C   UNK N   1      29.812  53.611  38.956  0.00  0.00     0.011 C 
HETATM   14  C   UNK N   1      30.748  53.141  40.115  0.00  0.00     0.032 C 
HETATM   15  C   UNK N   1      30.932  51.648  40.474  0.00  0.00     0.088 C 
HETATM   16  C   UNK N   1      29.684  50.762  40.513  0.00  0.00     0.021 C 
HETATM   17  C   UNK N   1      27.108  54.660  37.230  0.00  0.00     0.049 C 
HETATM   18  C   UNK N   1      29.425  56.738  41.796  0.00  0.00     0.046 C 
ENDROOT
BRANCH   7  19
HETATM   19  O   UNK N   1      26.727  56.840  42.203  0.00  0.00    -0.391 OA
HETATM   20  H   UNK N   1      26.577  57.124  43.142  0.00  0.00     0.210 HD
ENDBRANCH   7  19
TORSDOF 1
ENDMDL
MODEL 7
REMARK VINA RESULT:      -4.7     16.351     19.530
REMARK  1 active torsions:
REMARK  status: ('A' for Active; 'I' for Inactive)
REMARK    1  A    between atoms: C_7  and  O_8 
ROOT
HETATM    1  O   UNK N   1      28.106  58.849  36.452  0.00  0.00    -0.265 OA
HETATM    2  C   UNK N   1      28.524  57.976  37.194  0.00  0.00     0.263 C 
HETATM    3  O   UNK N   1      28.005  56.734  37.195  0.00  0.00    -0.311 OA
HETATM    4  C   UNK N   1      28.545  55.937  38.178  0.00  0.00     0.160 C 
HETATM    5  C   UNK N   1      27.532  55.704  39.283  0.00  0.00     0.011 C 
HETATM    6  C   UNK N   1      27.222  54.504  39.850  0.00  0.00    -0.057 C 
HETATM    7  C   UNK N   1      26.352  54.495  41.112  0.00  0.00     0.149 C 
HETATM    8  C   UNK N   1      26.921  55.404  42.248  0.00  0.00     0.071 C 
HETATM    9  C   UNK N   1      28.304  55.029  42.861  0.00  0.00     0.159 A 
HETATM   10  O   UNK N   1      29.150  54.489  41.863  0.00  0.00    -0.370 OA
HETATM   11  C   UNK N   1      29.599  55.693  42.405  0.00  0.00     0.084 A 
HETATM   12  C   UNK N   1      29.657  56.776  41.303  0.00  0.00     0.041 C 
HETATM   13  C   UNK N   1      30.443  56.354  40.029  0.00  0.00     0.011 C 
HETATM   14  C   UNK N   1      29.798  56.744  38.661  0.00  0.00     0.032 C 
HETATM   15  C   UNK N   1      29.544  58.216  38.258  0.00  0.00     0.088 C 
HETATM   16  C   UNK N   1      28.967  59.159  39.316  0.00  0.00     0.021 C 
HETATM   17  C   UNK N   1      30.842  55.487  43.267  0.00  0.00     0.049 C 
HETATM   18  C   UNK N   1      27.731  53.167  39.332  0.00  0.00     0.046 C 
ENDROOT
BRANCH   7  19
HETATM   19  O   UNK N   1      26.203  53.182  41.594  0.00  0.00    -0.391 OA
HETATM   20  H   UNK N   1      26.848  53.067  42.339  0.00  0.00     0.210 HD
ENDBRANCH   7  19
TORSDOF 1
ENDMDL
MODEL 8
REMARK VINA RESULT:      -4.6     14.534     17.053
REMARK  1 active torsions:
REMARK  status: ('A' for Active; 'I' for Inactive)
REMARK    1  A    between atoms: C_7  and  O_8 
ROOT
HETATM    1  O   UNK N   1      31.402  53.840  45.244  0.00  0.00    -0.265 OA
HETATM    2  C   UNK N   1      31.004  54.295  44.185  0.00  0.00     0.263 C 
HETATM    3  O   UNK N   1      29.847  54.976  44.092  0.00  0.00    -0.311 OA
HETATM    4  C   UNK N   1      29.533  55.308  42.795  0.00  0.00     0.160 C 
HETATM    5  C   UNK N   1      28.371  54.465  42.302  0.00  0.00     0.011 C 
HETATM    6  C   UNK N   1      27.265  54.923  41.649  0.00  0.00    -0.057 C 
HETATM    7  C   UNK N   1      26.313  53.901  41.018  0.00  0.00     0.149 C 
HETATM    8  C   UNK N   1      27.039  52.912  40.051  0.00  0.00     0.071 C 
HETATM    9  C   UNK N   1      27.705  53.501  38.770  0.00  0.00     0.159 A 
HETATM   10  O   UNK N   1      28.238  54.783  39.041  0.00  0.00    -0.370 OA
HETATM   11  C   UNK N   1      29.193  53.823  38.706  0.00  0.00     0.084 A 
HETATM   12  C   UNK N   1      30.161  53.610  39.892  0.00  0.00     0.041 C 
HETATM   13  C   UNK N   1      30.787  54.918  40.455  0.00  0.00     0.011 C 
HETATM   14  C   UNK N   1      30.861  55.032  42.011  0.00  0.00     0.032 C 
HETATM   15  C   UNK N   1      31.672  54.038  42.875  0.00  0.00     0.088 C 
HETATM   16  C   UNK N   1      31.576  52.549  42.534  0.00  0.00     0.021 C 
HETATM   17  C   UNK N   1      29.800  54.098  37.333  0.00  0.00     0.049 C 
HETATM   18  C   UNK N   1      26.943  56.399  41.465  0.00  0.00     0.046 C 
ENDROOT
BRANCH   7  19
HETATM   19  O   UNK N   1      25.279  54.557  40.328  0.00  0.00    -0.391 OA
HETATM   20  H   UNK N   1      24.524  54.664  40.964  0.00  0.00     0.210 HD
ENDBRANCH   7  19
TORSDOF 1
ENDMDL
MODEL 9
REMARK VINA RESULT:      -4.6     15.844     18.635
REMARK  1 active torsions:
REMARK  status: ('A' for Active; 'I' for Inactive)
REMARK    1  A    between atoms: C_7  and  O_8 
ROOT
HETATM    1  O   UNK N   1      25.628  56.588  43.665  0.00  0.00    -0.265 OA
HETATM    2  C   UNK N   1      25.997  56.115  42.603  0.00  0.00     0.263 C 
HETATM    3  O   UNK N   1      26.305  54.812  42.474  0.00  0.00    -0.311 OA
HETATM    4  C   UNK N   1      26.800  54.508  41.226  0.00  0.00     0.160 C 
HETATM    5  C   UNK N   1      28.289  54.226  41.305  0.00  0.00     0.011 C 
HETATM    6  C   UNK N   1      28.938  53.169  40.740  0.00  0.00    -0.057 C 
HETATM    7  C   UNK N   1      30.471  53.176  40.722  0.00  0.00     0.149 C 
HETATM    8  C   UNK N   1      31.064  54.472  40.082  0.00  0.00     0.071 C 
HETATM    9  C   UNK N   1      30.767  54.745  38.576  0.00  0.00     0.159 A 
HETATM   10  O   UNK N   1      29.466  54.294  38.246  0.00  0.00    -0.370 OA
HETATM   11  C   UNK N   1      29.643  55.672  38.127  0.00  0.00     0.084 A 
HETATM   12  C   UNK N   1      28.703  56.408  39.111  0.00  0.00     0.041 C 
HETATM   13  C   UNK N   1      27.212  55.976  39.018  0.00  0.00     0.011 C 
HETATM   14  C   UNK N   1      26.466  55.781  40.377  0.00  0.00     0.032 C 
HETATM   15  C   UNK N   1      26.275  56.936  41.387  0.00  0.00     0.088 C 
HETATM   16  C   UNK N   1      27.466  57.859  41.654  0.00  0.00     0.021 C 
HETATM   17  C   UNK N   1      29.629  56.113  36.666  0.00  0.00     0.049 C 
HETATM   18  C   UNK N   1      28.228  51.997  40.077  0.00  0.00     0.046 C 
ENDROOT
BRANCH   7  19
HETATM   19  O   UNK N   1      30.958  52.050  40.037  0.00  0.00    -0.391 OA
HETATM   20  H   UNK N   1      30.851  52.228  39.066  0.00  0.00     0.210 HD
ENDBRANCH   7  19
TORSDOF 1
ENDMDL
