MODEL 1
REMARK VINA RESULT:      -5.1      0.000      0.000
REMARK  11 active torsions:
REMARK  status: ('A' for Active; 'I' for Inactive)
REMARK    1  A    between atoms: C_2  and  O_3 
REMARK    2  A    between atoms: C_2  and  C_31 
REMARK    3  A    between atoms: O_3  and  C_4 
REMARK    4  A    between atoms: C_6  and  O_7 
REMARK    5  A    between atoms: C_6  and  C_9 
REMARK    6  A    between atoms: C_13  and  O_14 
REMARK    7  A    between atoms: O_14  and  C_15 
REMARK    8  A    between atoms: C_19  and  O_20 
REMARK    9  A    between atoms: O_20  and  C_21 
REMARK   10  A    between atoms: C_25  and  O_26 
REMARK   11  A    between atoms: C_34  and  O_35 
ROOT
HETATM    1  C   UNK N   1      31.423  43.070  59.411  0.00  0.00     0.143 C 
HETATM    2  C   UNK N   1      30.759  41.933  58.579  0.00  0.00     0.067 C 
HETATM    3  C   UNK N   1      29.640  41.149  59.368  0.00  0.00     0.070 C 
HETATM    4  C   UNK N   1      28.786  40.488  58.243  0.00  0.00     0.072 C 
HETATM    5  C   UNK N   1      29.496  40.810  56.942  0.00  0.00     0.149 C 
HETATM    6  C   UNK N   1      30.140  42.211  57.175  0.00  0.00     0.041 C 
HETATM    7  C   UNK N   1      29.161  43.380  57.146  0.00  0.00     0.067 C 
HETATM    8  C   UNK N   1      29.495  44.651  57.522  0.00  0.00     0.044 C 
HETATM    9  C   UNK N   1      30.789  45.223  58.136  0.00  0.00     0.077 C 
HETATM   10  C   UNK N   1      31.927  44.233  58.564  0.00  0.00     0.074 C 
HETATM   11  C   UNK N   1      30.352  46.035  59.392  0.00  0.00     0.050 C 
HETATM   12  C   UNK N   1      31.133  42.442  56.003  0.00  0.00     0.026 C 
ENDROOT
BRANCH   1  13
HETATM   13  O   UNK N   1      32.475  42.530  60.138  0.00  0.00    -0.311 OA
BRANCH  13  14
HETATM   14  C   UNK N   1      32.727  42.847  61.438  0.00  0.00     0.293 C 
HETATM   15  O   UNK N   1      31.998  42.428  62.325  0.00  0.00    -0.259 OA
BRANCH  14  16
HETATM   16  C   UNK N   1      33.932  43.632  61.785  0.00  0.00     0.039 A 
HETATM   17  C   UNK N   1      33.976  44.406  62.957  0.00  0.00     0.020 A 
HETATM   18  C   UNK N   1      35.095  45.197  63.236  0.00  0.00     0.038 A 
HETATM   19  C   UNK N   1      36.179  45.235  62.349  0.00  0.00     0.068 A 
HETATM   20  C   UNK N   1      36.141  44.443  61.185  0.00  0.00     0.038 A 
HETATM   21  C   UNK N   1      35.031  43.646  60.911  0.00  0.00     0.020 A 
BRANCH  19  22
HETATM   22  O   UNK N   1      37.227  46.053  62.631  0.00  0.00    -0.356 OA
HETATM   23  C   UNK N   1      37.286  47.394  62.308  0.00  0.00     0.210 C 
ENDBRANCH  19  22
ENDBRANCH  14  16
ENDBRANCH  13  14
ENDBRANCH   1  13
BRANCH   3  24
HETATM   24  O   UNK N   1      28.830  42.110  60.021  0.00  0.00    -0.389 OA
HETATM   25  H   UNK N   1      28.240  41.661  60.680  0.00  0.00     0.210 HD
ENDBRANCH   3  24
BRANCH   3  26
HETATM   26  C   UNK N   1      30.206  40.145  60.445  0.00  0.00     0.012 C 
HETATM   27  C   UNK N   1      29.331  40.092  61.716  0.00  0.00     0.012 C 
HETATM   28  C   UNK N   1      30.392  38.703  59.930  0.00  0.00     0.012 C 
ENDBRANCH   3  26
BRANCH   9  29
HETATM   29  O   UNK N   1      31.367  46.123  57.218  0.00  0.00    -0.386 OA
HETATM   30  H   UNK N   1      30.690  46.347  56.524  0.00  0.00     0.211 HD
ENDBRANCH   9  29
BRANCH   5  31
HETATM   31  O   UNK N   1      28.619  40.758  55.868  0.00  0.00    -0.315 OA
BRANCH  31  32
HETATM   32  C   UNK N   1      28.673  39.850  54.860  0.00  0.00     0.255 C 
HETATM   33  O   UNK N   1      27.968  39.967  53.869  0.00  0.00    -0.266 OA
HETATM   34  C   UNK N   1      29.642  38.715  54.956  0.00  0.00     0.126 C 
ENDBRANCH  31  32
ENDBRANCH   5  31
BRANCH   7  35
HETATM   35  O   UNK N   1      27.915  43.138  56.641  0.00  0.00    -0.283 OA
BRANCH  35  36
HETATM   36  C   UNK N   1      26.736  43.462  57.244  0.00  0.00     0.259 C 
HETATM   37  O   UNK N   1      26.457  43.034  58.356  0.00  0.00    -0.265 OA
HETATM   38  C   UNK N   1      25.809  44.422  56.574  0.00  0.00     0.126 C 
ENDBRANCH  35  36
ENDBRANCH   7  35
TORSDOF 11
ENDMDL
MODEL 2
REMARK VINA RESULT:      -5.0      3.234      5.559
REMARK  11 active torsions:
REMARK  status: ('A' for Active; 'I' for Inactive)
REMARK    1  A    between atoms: C_2  and  O_3 
REMARK    2  A    between atoms: C_2  and  C_31 
REMARK    3  A    between atoms: O_3  and  C_4 
REMARK    4  A    between atoms: C_6  and  O_7 
REMARK    5  A    between atoms: C_6  and  C_9 
REMARK    6  A    between atoms: C_13  and  O_14 
REMARK    7  A    between atoms: O_14  and  C_15 
REMARK    8  A    between atoms: C_19  and  O_20 
REMARK    9  A    between atoms: O_20  and  C_21 
REMARK   10  A    between atoms: C_25  and  O_26 
REMARK   11  A    between atoms: C_34  and  O_35 
ROOT
HETATM    1  C   UNK N   1      29.444  44.265  59.122  0.00  0.00     0.143 C 
HETATM    2  C   UNK N   1      28.690  42.935  58.823  0.00  0.00     0.067 C 
HETATM    3  C   UNK N   1      27.429  43.124  57.894  0.00  0.00     0.070 C 
HETATM    4  C   UNK N   1      27.182  41.700  57.310  0.00  0.00     0.072 C 
HETATM    5  C   UNK N   1      28.186  40.792  57.993  0.00  0.00     0.149 C 
HETATM    6  C   UNK N   1      29.433  41.694  58.243  0.00  0.00     0.041 C 
HETATM    7  C   UNK N   1      30.269  41.991  57.001  0.00  0.00     0.067 C 
HETATM    8  C   UNK N   1      31.276  42.914  56.976  0.00  0.00     0.044 C 
HETATM    9  C   UNK N   1      31.763  43.919  58.041  0.00  0.00     0.077 C 
HETATM   10  C   UNK N   1      30.938  44.078  59.364  0.00  0.00     0.074 C 
HETATM   11  C   UNK N   1      31.822  45.306  57.333  0.00  0.00     0.050 C 
HETATM   12  C   UNK N   1      30.358  40.910  59.215  0.00  0.00     0.026 C 
ENDROOT
BRANCH   1  13
HETATM   13  O   UNK N   1      28.862  44.865  60.229  0.00  0.00    -0.311 OA
BRANCH  13  14
HETATM   14  C   UNK N   1      28.769  46.214  60.388  0.00  0.00     0.293 C 
HETATM   15  O   UNK N   1      28.781  46.704  61.508  0.00  0.00    -0.259 OA
BRANCH  14  16
HETATM   16  C   UNK N   1      28.736  47.095  59.199  0.00  0.00     0.039 A 
HETATM   17  C   UNK N   1      29.833  47.912  58.876  0.00  0.00     0.020 A 
HETATM   18  C   UNK N   1      29.760  48.791  57.790  0.00  0.00     0.038 A 
HETATM   19  C   UNK N   1      28.592  48.874  57.020  0.00  0.00     0.068 A 
HETATM   20  C   UNK N   1      27.502  48.039  57.333  0.00  0.00     0.038 A 
HETATM   21  C   UNK N   1      27.577  47.156  58.408  0.00  0.00     0.020 A 
BRANCH  19  22
HETATM   22  O   UNK N   1      28.543  49.774  56.002  0.00  0.00    -0.356 OA
HETATM   23  C   UNK N   1      29.629  50.481  55.525  0.00  0.00     0.210 C 
ENDBRANCH  19  22
ENDBRANCH  14  16
ENDBRANCH  13  14
ENDBRANCH   1  13
BRANCH   3  24
HETATM   24  O   UNK N   1      27.812  43.972  56.828  0.00  0.00    -0.389 OA
HETATM   25  H   UNK N   1      27.833  43.459  55.980  0.00  0.00     0.210 HD
ENDBRANCH   3  24
BRANCH   3  26
HETATM   26  C   UNK N   1      26.188  43.762  58.630  0.00  0.00     0.012 C 
HETATM   27  C   UNK N   1      24.937  43.822  57.728  0.00  0.00     0.012 C 
HETATM   28  C   UNK N   1      25.798  43.053  59.943  0.00  0.00     0.012 C 
ENDBRANCH   3  26
BRANCH   9  29
HETATM   29  O   UNK N   1      33.073  43.572  58.425  0.00  0.00    -0.386 OA
HETATM   30  H   UNK N   1      33.253  42.638  58.134  0.00  0.00     0.211 HD
ENDBRANCH   9  29
BRANCH   5  31
HETATM   31  O   UNK N   1      28.442  39.664  57.228  0.00  0.00    -0.315 OA
BRANCH  31  32
HETATM   32  C   UNK N   1      28.231  38.384  57.629  0.00  0.00     0.255 C 
HETATM   33  O   UNK N   1      27.108  37.990  57.909  0.00  0.00    -0.266 OA
HETATM   34  C   UNK N   1      29.389  37.441  57.688  0.00  0.00     0.126 C 
ENDBRANCH  31  32
ENDBRANCH   5  31
BRANCH   7  35
HETATM   35  O   UNK N   1      30.031  41.230  55.893  0.00  0.00    -0.283 OA
BRANCH  35  36
HETATM   36  C   UNK N   1      30.085  41.665  54.602  0.00  0.00     0.259 C 
HETATM   37  O   UNK N   1      31.122  41.595  53.955  0.00  0.00    -0.265 OA
HETATM   38  C   UNK N   1      28.840  42.155  53.940  0.00  0.00     0.126 C 
ENDBRANCH  35  36
ENDBRANCH   7  35
TORSDOF 11
ENDMDL
MODEL 3
REMARK VINA RESULT:      -4.7      2.869      7.800
REMARK  11 active torsions:
REMARK  status: ('A' for Active; 'I' for Inactive)
REMARK    1  A    between atoms: C_2  and  O_3 
REMARK    2  A    between atoms: C_2  and  C_31 
REMARK    3  A    between atoms: O_3  and  C_4 
REMARK    4  A    between atoms: C_6  and  O_7 
REMARK    5  A    between atoms: C_6  and  C_9 
REMARK    6  A    between atoms: C_13  and  O_14 
REMARK    7  A    between atoms: O_14  and  C_15 
REMARK    8  A    between atoms: C_19  and  O_20 
REMARK    9  A    between atoms: O_20  and  C_21 
REMARK   10  A    between atoms: C_25  and  O_26 
REMARK   11  A    between atoms: C_34  and  O_35 
ROOT
HETATM    1  C   UNK N   1      30.508  42.237  57.779  0.00  0.00     0.143 C 
HETATM    2  C   UNK N   1      29.682  43.536  57.544  0.00  0.00     0.067 C 
HETATM    3  C   UNK N   1      28.180  43.419  58.014  0.00  0.00     0.070 C 
HETATM    4  C   UNK N   1      27.731  44.901  58.195  0.00  0.00     0.072 C 
HETATM    5  C   UNK N   1      28.898  45.747  57.725  0.00  0.00     0.149 C 
HETATM    6  C   UNK N   1      30.166  44.914  58.087  0.00  0.00     0.041 C 
HETATM    7  C   UNK N   1      30.527  44.908  59.570  0.00  0.00     0.067 C 
HETATM    8  C   UNK N   1      31.475  44.084  60.110  0.00  0.00     0.044 C 
HETATM    9  C   UNK N   1      32.309  42.947  59.486  0.00  0.00     0.077 C 
HETATM   10  C   UNK N   1      31.991  42.491  58.020  0.00  0.00     0.074 C 
HETATM   11  C   UNK N   1      32.137  41.717  60.428  0.00  0.00     0.050 C 
HETATM   12  C   UNK N   1      31.359  45.581  57.350  0.00  0.00     0.026 C 
ENDROOT
BRANCH   1  13
HETATM   13  O   UNK N   1      30.349  41.406  56.679  0.00  0.00    -0.311 OA
BRANCH  13  14
HETATM   14  C   UNK N   1      30.598  41.800  55.400  0.00  0.00     0.293 C 
HETATM   15  O   UNK N   1      31.639  42.381  55.127  0.00  0.00    -0.259 OA
BRANCH  14  16
HETATM   16  C   UNK N   1      29.645  41.452  54.322  0.00  0.00     0.039 A 
HETATM   17  C   UNK N   1      29.600  42.197  53.132  0.00  0.00     0.020 A 
HETATM   18  C   UNK N   1      28.647  41.900  52.152  0.00  0.00     0.038 A 
HETATM   19  C   UNK N   1      27.722  40.866  52.349  0.00  0.00     0.068 A 
HETATM   20  C   UNK N   1      27.782  40.108  53.535  0.00  0.00     0.038 A 
HETATM   21  C   UNK N   1      28.738  40.396  54.507  0.00  0.00     0.020 A 
BRANCH  19  22
HETATM   22  O   UNK N   1      26.781  40.640  51.395  0.00  0.00    -0.356 OA
HETATM   23  C   UNK N   1      26.161  41.626  50.653  0.00  0.00     0.210 C 
ENDBRANCH  19  22
ENDBRANCH  14  16
ENDBRANCH  13  14
ENDBRANCH   1  13
BRANCH   3  24
HETATM   24  O   UNK N   1      28.183  42.806  59.290  0.00  0.00    -0.389 OA
HETATM   25  H   UNK N   1      28.074  41.825  59.193  0.00  0.00     0.210 HD
ENDBRANCH   3  24
BRANCH   3  26
HETATM   26  C   UNK N   1      27.275  42.566  57.043  0.00  0.00     0.012 C 
HETATM   27  C   UNK N   1      26.056  41.953  57.764  0.00  0.00     0.012 C 
HETATM   28  C   UNK N   1      26.764  43.341  55.812  0.00  0.00     0.012 C 
ENDBRANCH   3  26
BRANCH   9  29
HETATM   29  O   UNK N   1      33.668  43.320  59.504  0.00  0.00    -0.386 OA
HETATM   30  H   UNK N   1      33.819  44.000  58.795  0.00  0.00     0.211 HD
ENDBRANCH   9  29
BRANCH   5  31
HETATM   31  O   UNK N   1      28.863  47.010  58.298  0.00  0.00    -0.315 OA
BRANCH  31  32
HETATM   32  C   UNK N   1      28.839  48.179  57.609  0.00  0.00     0.255 C 
HETATM   33  O   UNK N   1      27.892  48.468  56.891  0.00  0.00    -0.266 OA
HETATM   34  C   UNK N   1      29.974  49.139  57.768  0.00  0.00     0.126 C 
ENDBRANCH  31  32
ENDBRANCH   5  31
BRANCH   7  35
HETATM   35  O   UNK N   1      29.914  45.834  60.365  0.00  0.00    -0.283 OA
BRANCH  35  36
HETATM   36  C   UNK N   1      29.282  45.576  61.545  0.00  0.00     0.259 C 
HETATM   37  O   UNK N   1      28.371  44.761  61.609  0.00  0.00    -0.265 OA
HETATM   38  C   UNK N   1      29.765  46.233  62.795  0.00  0.00     0.126 C 
ENDBRANCH  35  36
ENDBRANCH   7  35
TORSDOF 11
ENDMDL
MODEL 4
REMARK VINA RESULT:      -4.6      3.255      4.535
REMARK  11 active torsions:
REMARK  status: ('A' for Active; 'I' for Inactive)
REMARK    1  A    between atoms: C_2  and  O_3 
REMARK    2  A    between atoms: C_2  and  C_31 
REMARK    3  A    between atoms: O_3  and  C_4 
REMARK    4  A    between atoms: C_6  and  O_7 
REMARK    5  A    between atoms: C_6  and  C_9 
REMARK    6  A    between atoms: C_13  and  O_14 
REMARK    7  A    between atoms: O_14  and  C_15 
REMARK    8  A    between atoms: C_19  and  O_20 
REMARK    9  A    between atoms: O_20  and  C_21 
REMARK   10  A    between atoms: C_25  and  O_26 
REMARK   11  A    between atoms: C_34  and  O_35 
ROOT
HETATM    1  C   UNK N   1      29.523  42.133  57.839  0.00  0.00     0.143 C 
HETATM    2  C   UNK N   1      29.782  40.617  57.594  0.00  0.00     0.067 C 
HETATM    3  C   UNK N   1      29.521  39.721  58.867  0.00  0.00     0.070 C 
HETATM    4  C   UNK N   1      29.309  38.293  58.279  0.00  0.00     0.072 C 
HETATM    5  C   UNK N   1      29.570  38.416  56.790  0.00  0.00     0.149 C 
HETATM    6  C   UNK N   1      29.097  39.855  56.420  0.00  0.00     0.041 C 
HETATM    7  C   UNK N   1      27.583  40.037  56.359  0.00  0.00     0.067 C 
HETATM    8  C   UNK N   1      26.976  41.256  56.248  0.00  0.00     0.044 C 
HETATM    9  C   UNK N   1      27.554  42.686  56.263  0.00  0.00     0.077 C 
HETATM   10  C   UNK N   1      29.074  42.884  56.591  0.00  0.00     0.074 C 
HETATM   11  C   UNK N   1      26.721  43.480  57.313  0.00  0.00     0.050 C 
HETATM   12  C   UNK N   1      29.630  40.142  54.989  0.00  0.00     0.026 C 
ENDROOT
BRANCH   1  13
HETATM   13  O   UNK N   1      30.683  42.706  58.339  0.00  0.00    -0.311 OA
BRANCH  13  14
HETATM   14  C   UNK N   1      30.689  43.645  59.325  0.00  0.00     0.293 C 
HETATM   15  O   UNK N   1      30.884  43.316  60.486  0.00  0.00    -0.259 OA
BRANCH  14  16
HETATM   16  C   UNK N   1      30.541  45.077  58.981  0.00  0.00     0.039 A 
HETATM   17  C   UNK N   1      29.871  45.960  59.844  0.00  0.00     0.020 A 
HETATM   18  C   UNK N   1      29.678  47.295  59.473  0.00  0.00     0.038 A 
HETATM   19  C   UNK N   1      30.141  47.764  58.236  0.00  0.00     0.068 A 
HETATM   20  C   UNK N   1      30.831  46.882  57.382  0.00  0.00     0.038 A 
HETATM   21  C   UNK N   1      31.032  45.554  57.755  0.00  0.00     0.020 A 
BRANCH  19  22
HETATM   22  O   UNK N   1      29.892  49.055  57.891  0.00  0.00    -0.356 OA
HETATM   23  C   UNK N   1      30.337  49.658  56.732  0.00  0.00     0.210 C 
ENDBRANCH  19  22
ENDBRANCH  14  16
ENDBRANCH  13  14
ENDBRANCH   1  13
BRANCH   3  24
HETATM   24  O   UNK N   1      28.295  40.144  59.437  0.00  0.00    -0.389 OA
HETATM   25  H   UNK N   1      27.539  39.846  58.868  0.00  0.00     0.210 HD
ENDBRANCH   3  24
BRANCH   3  26
HETATM   26  C   UNK N   1      30.652  39.826  59.962  0.00  0.00     0.012 C 
HETATM   27  C   UNK N   1      30.084  40.121  61.366  0.00  0.00     0.012 C 
HETATM   28  C   UNK N   1      31.554  38.578  60.060  0.00  0.00     0.012 C 
ENDBRANCH   3  26
BRANCH   9  29
HETATM   29  O   UNK N   1      27.337  43.275  55.002  0.00  0.00    -0.386 OA
HETATM   30  H   UNK N   1      27.944  44.056  54.907  0.00  0.00     0.211 HD
ENDBRANCH   9  29
BRANCH   5  31
HETATM   31  O   UNK N   1      28.929  37.407  56.086  0.00  0.00    -0.315 OA
BRANCH  31  32
HETATM   32  C   UNK N   1      29.497  36.656  55.108  0.00  0.00     0.255 C 
HETATM   33  O   UNK N   1      29.078  36.696  53.960  0.00  0.00    -0.266 OA
HETATM   34  C   UNK N   1      30.677  35.801  55.442  0.00  0.00     0.126 C 
ENDBRANCH  31  32
ENDBRANCH   5  31
BRANCH   7  35
HETATM   35  O   UNK N   1      26.819  38.905  56.337  0.00  0.00    -0.283 OA
BRANCH  35  36
HETATM   36  C   UNK N   1      25.762  38.642  57.157  0.00  0.00     0.259 C 
HETATM   37  O   UNK N   1      25.872  38.722  58.373  0.00  0.00    -0.265 OA
HETATM   38  C   UNK N   1      24.429  38.337  56.560  0.00  0.00     0.126 C 
ENDBRANCH  35  36
ENDBRANCH   7  35
TORSDOF 11
ENDMDL
MODEL 5
REMARK VINA RESULT:      -4.6     14.553     19.531
REMARK  11 active torsions:
REMARK  status: ('A' for Active; 'I' for Inactive)
REMARK    1  A    between atoms: C_2  and  O_3 
REMARK    2  A    between atoms: C_2  and  C_31 
REMARK    3  A    between atoms: O_3  and  C_4 
REMARK    4  A    between atoms: C_6  and  O_7 
REMARK    5  A    between atoms: C_6  and  C_9 
REMARK    6  A    between atoms: C_13  and  O_14 
REMARK    7  A    between atoms: O_14  and  C_15 
REMARK    8  A    between atoms: C_19  and  O_20 
REMARK    9  A    between atoms: O_20  and  C_21 
REMARK   10  A    between atoms: C_25  and  O_26 
REMARK   11  A    between atoms: C_34  and  O_35 
ROOT
HETATM    1  C   UNK N   1      47.655  51.555  60.972  0.00  0.00     0.143 C 
HETATM    2  C   UNK N   1      46.808  52.583  61.778  0.00  0.00     0.067 C 
HETATM    3  C   UNK N   1      46.211  53.742  60.888  0.00  0.00     0.070 C 
HETATM    4  C   UNK N   1      45.024  54.289  61.737  0.00  0.00     0.072 C 
HETATM    5  C   UNK N   1      45.076  53.539  63.054  0.00  0.00     0.149 C 
HETATM    6  C   UNK N   1      45.626  52.126  62.686  0.00  0.00     0.041 C 
HETATM    7  C   UNK N   1      44.624  51.209  61.990  0.00  0.00     0.067 C 
HETATM    8  C   UNK N   1      44.968  50.018  61.416  0.00  0.00     0.044 C 
HETATM    9  C   UNK N   1      46.341  49.346  61.210  0.00  0.00     0.077 C 
HETATM   10  C   UNK N   1      47.638  50.151  61.565  0.00  0.00     0.074 C 
HETATM   11  C   UNK N   1      46.409  48.952  59.704  0.00  0.00     0.050 C 
HETATM   12  C   UNK N   1      45.996  51.433  64.026  0.00  0.00     0.026 C 
ENDROOT
BRANCH   1  13
HETATM   13  O   UNK N   1      48.962  52.017  60.901  0.00  0.00    -0.311 OA
BRANCH  13  14
HETATM   14  C   UNK N   1      49.705  51.988  59.760  0.00  0.00     0.293 C 
HETATM   15  O   UNK N   1      50.078  50.920  59.296  0.00  0.00    -0.259 OA
BRANCH  14  16
HETATM   16  C   UNK N   1      49.993  53.246  59.036  0.00  0.00     0.039 A 
HETATM   17  C   UNK N   1      50.800  54.241  59.612  0.00  0.00     0.020 A 
HETATM   18  C   UNK N   1      51.006  55.453  58.944  0.00  0.00     0.038 A 
HETATM   19  C   UNK N   1      50.404  55.693  57.702  0.00  0.00     0.068 A 
HETATM   20  C   UNK N   1      49.613  54.685  57.117  0.00  0.00     0.038 A 
HETATM   21  C   UNK N   1      49.415  53.473  57.776  0.00  0.00     0.020 A 
BRANCH  19  22
HETATM   22  O   UNK N   1      50.589  56.901  57.108  0.00  0.00    -0.356 OA
HETATM   23  C   UNK N   1      49.630  57.573  56.377  0.00  0.00     0.210 C 
ENDBRANCH  19  22
ENDBRANCH  14  16
ENDBRANCH  13  14
ENDBRANCH   1  13
BRANCH   3  24
HETATM   24  O   UNK N   1      45.673  53.144  59.722  0.00  0.00    -0.389 OA
HETATM   25  H   UNK N   1      44.752  53.476  59.568  0.00  0.00     0.210 HD
ENDBRANCH   3  24
BRANCH   3  26
HETATM   26  C   UNK N   1      47.274  54.825  60.459  0.00  0.00     0.012 C 
HETATM   27  C   UNK N   1      46.686  55.873  59.490  0.00  0.00     0.012 C 
HETATM   28  C   UNK N   1      47.924  55.575  61.640  0.00  0.00     0.012 C 
ENDBRANCH   3  26
BRANCH   9  29
HETATM   29  O   UNK N   1      46.384  48.161  61.971  0.00  0.00    -0.386 OA
HETATM   30  H   UNK N   1      47.186  47.640  61.701  0.00  0.00     0.211 HD
ENDBRANCH   9  29
BRANCH   5  31
HETATM   31  O   UNK N   1      43.834  53.524  63.670  0.00  0.00    -0.315 OA
BRANCH  31  32
HETATM   32  C   UNK N   1      43.105  54.626  63.984  0.00  0.00     0.255 C 
HETATM   33  O   UNK N   1      43.620  55.581  64.547  0.00  0.00    -0.266 OA
HETATM   34  C   UNK N   1      41.663  54.678  63.595  0.00  0.00     0.126 C 
ENDBRANCH  31  32
ENDBRANCH   5  31
BRANCH   7  35
HETATM   35  O   UNK N   1      43.310  51.582  62.023  0.00  0.00    -0.283 OA
BRANCH  35  36
HETATM   36  C   UNK N   1      42.274  50.808  62.454  0.00  0.00     0.259 C 
HETATM   37  O   UNK N   1      41.461  50.345  61.665  0.00  0.00    -0.265 OA
HETATM   38  C   UNK N   1      42.180  50.447  63.899  0.00  0.00     0.126 C 
ENDBRANCH  35  36
ENDBRANCH   7  35
TORSDOF 11
ENDMDL
MODEL 6
REMARK VINA RESULT:      -4.3      3.186      6.728
REMARK  11 active torsions:
REMARK  status: ('A' for Active; 'I' for Inactive)
REMARK    1  A    between atoms: C_2  and  O_3 
REMARK    2  A    between atoms: C_2  and  C_31 
REMARK    3  A    between atoms: O_3  and  C_4 
REMARK    4  A    between atoms: C_6  and  O_7 
REMARK    5  A    between atoms: C_6  and  C_9 
REMARK    6  A    between atoms: C_13  and  O_14 
REMARK    7  A    between atoms: O_14  and  C_15 
REMARK    8  A    between atoms: C_19  and  O_20 
REMARK    9  A    between atoms: O_20  and  C_21 
REMARK   10  A    between atoms: C_25  and  O_26 
REMARK   11  A    between atoms: C_34  and  O_35 
ROOT
HETATM    1  C   UNK N   1      29.134  45.909  59.502  0.00  0.00     0.143 C 
HETATM    2  C   UNK N   1      30.402  45.095  59.893  0.00  0.00     0.067 C 
HETATM    3  C   UNK N   1      30.513  44.806  61.440  0.00  0.00     0.070 C 
HETATM    4  C   UNK N   1      31.481  43.588  61.523  0.00  0.00     0.072 C 
HETATM    5  C   UNK N   1      31.948  43.333  60.103  0.00  0.00     0.149 C 
HETATM    6  C   UNK N   1      30.737  43.736  59.207  0.00  0.00     0.041 C 
HETATM    7  C   UNK N   1      29.582  42.738  59.204  0.00  0.00     0.067 C 
HETATM    8  C   UNK N   1      28.362  43.001  58.646  0.00  0.00     0.044 C 
HETATM    9  C   UNK N   1      27.789  44.285  58.013  0.00  0.00     0.077 C 
HETATM   10  C   UNK N   1      28.624  45.609  58.097  0.00  0.00     0.074 C 
HETATM   11  C   UNK N   1      26.413  44.531  58.702  0.00  0.00     0.050 C 
HETATM   12  C   UNK N   1      31.266  43.795  57.748  0.00  0.00     0.026 C 
ENDROOT
BRANCH   1  13
HETATM   13  O   UNK N   1      29.423  47.261  59.617  0.00  0.00    -0.311 OA
BRANCH  13  14
HETATM   14  C   UNK N   1      28.623  48.243  59.117  0.00  0.00     0.293 C 
HETATM   15  O   UNK N   1      27.609  48.575  59.715  0.00  0.00    -0.259 OA
BRANCH  14  16
HETATM   16  C   UNK N   1      29.022  48.966  57.889  0.00  0.00     0.039 A 
HETATM   17  C   UNK N   1      30.310  48.813  57.348  0.00  0.00     0.020 A 
HETATM   18  C   UNK N   1      30.696  49.556  56.228  0.00  0.00     0.038 A 
HETATM   19  C   UNK N   1      29.809  50.467  55.639  0.00  0.00     0.068 A 
HETATM   20  C   UNK N   1      28.512  50.604  56.170  0.00  0.00     0.038 A 
HETATM   21  C   UNK N   1      28.123  49.857  57.280  0.00  0.00     0.020 A 
BRANCH  19  22
HETATM   22  O   UNK N   1      30.238  51.205  54.581  0.00  0.00    -0.356 OA
HETATM   23  C   UNK N   1      30.386  50.724  53.295  0.00  0.00     0.210 C 
ENDBRANCH  19  22
ENDBRANCH  14  16
ENDBRANCH  13  14
ENDBRANCH   1  13
BRANCH   3  24
HETATM   24  O   UNK N   1      29.237  44.380  61.883  0.00  0.00    -0.389 OA
HETATM   25  H   UNK N   1      29.131  44.583  62.848  0.00  0.00     0.210 HD
ENDBRANCH   3  24
BRANCH   3  26
HETATM   26  C   UNK N   1      30.952  46.061  62.290  0.00  0.00     0.012 C 
HETATM   27  C   UNK N   1      29.828  46.561  63.222  0.00  0.00     0.012 C 
HETATM   28  C   UNK N   1      32.217  45.834  63.144  0.00  0.00     0.012 C 
ENDBRANCH   3  26
BRANCH   9  29
HETATM   29  O   UNK N   1      27.552  44.048  56.644  0.00  0.00    -0.386 OA
HETATM   30  H   UNK N   1      28.365  44.302  56.132  0.00  0.00     0.211 HD
ENDBRANCH   9  29
BRANCH   5  31
HETATM   31  O   UNK N   1      32.365  42.019  59.942  0.00  0.00    -0.315 OA
BRANCH  31  32
HETATM   32  C   UNK N   1      33.627  41.635  59.623  0.00  0.00     0.255 C 
HETATM   33  O   UNK N   1      34.062  40.548  59.975  0.00  0.00    -0.266 OA
HETATM   34  C   UNK N   1      34.477  42.546  58.797  0.00  0.00     0.126 C 
ENDBRANCH  31  32
ENDBRANCH   5  31
BRANCH   7  35
HETATM   35  O   UNK N   1      29.827  41.498  59.722  0.00  0.00    -0.283 OA
BRANCH  35  36
HETATM   36  C   UNK N   1      29.084  40.875  60.680  0.00  0.00     0.259 C 
HETATM   37  O   UNK N   1      28.690  41.482  61.668  0.00  0.00    -0.265 OA
HETATM   38  C   UNK N   1      28.671  39.455  60.480  0.00  0.00     0.126 C 
ENDBRANCH  35  36
ENDBRANCH   7  35
TORSDOF 11
ENDMDL
MODEL 7
REMARK VINA RESULT:      -4.3     19.990     23.103
REMARK  11 active torsions:
REMARK  status: ('A' for Active; 'I' for Inactive)
REMARK    1  A    between atoms: C_2  and  O_3 
REMARK    2  A    between atoms: C_2  and  C_31 
REMARK    3  A    between atoms: O_3  and  C_4 
REMARK    4  A    between atoms: C_6  and  O_7 
REMARK    5  A    between atoms: C_6  and  C_9 
REMARK    6  A    between atoms: C_13  and  O_14 
REMARK    7  A    between atoms: O_14  and  C_15 
REMARK    8  A    between atoms: C_19  and  O_20 
REMARK    9  A    between atoms: O_20  and  C_21 
REMARK   10  A    between atoms: C_25  and  O_26 
REMARK   11  A    between atoms: C_34  and  O_35 
ROOT
HETATM    1  C   UNK N   1      29.070  56.502  40.667  0.00  0.00     0.143 C 
HETATM    2  C   UNK N   1      28.337  55.449  39.785  0.00  0.00     0.067 C 
HETATM    3  C   UNK N   1      29.042  55.192  38.396  0.00  0.00     0.070 C 
HETATM    4  C   UNK N   1      28.500  53.798  37.957  0.00  0.00     0.072 C 
HETATM    5  C   UNK N   1      27.473  53.405  39.001  0.00  0.00     0.149 C 
HETATM    6  C   UNK N   1      27.998  54.029  40.330  0.00  0.00     0.041 C 
HETATM    7  C   UNK N   1      29.185  53.301  40.956  0.00  0.00     0.067 C 
HETATM    8  C   UNK N   1      29.906  53.801  42.003  0.00  0.00     0.044 C 
HETATM    9  C   UNK N   1      29.833  55.157  42.734  0.00  0.00     0.077 C 
HETATM   10  C   UNK N   1      28.893  56.274  42.164  0.00  0.00     0.074 C 
HETATM   11  C   UNK N   1      31.289  55.712  42.763  0.00  0.00     0.050 C 
HETATM   12  C   UNK N   1      26.834  53.929  41.355  0.00  0.00     0.026 C 
ENDROOT
BRANCH   1  13
HETATM   13  O   UNK N   1      28.605  57.765  40.328  0.00  0.00    -0.311 OA
BRANCH  13  14
HETATM   14  C   UNK N   1      27.283  58.084  40.263  0.00  0.00     0.293 C 
HETATM   15  O   UNK N   1      26.727  58.184  39.178  0.00  0.00    -0.259 OA
BRANCH  14  16
HETATM   16  C   UNK N   1      26.497  58.229  41.508  0.00  0.00     0.039 A 
HETATM   17  C   UNK N   1      26.776  59.261  42.420  0.00  0.00     0.020 A 
HETATM   18  C   UNK N   1      26.072  59.344  43.626  0.00  0.00     0.038 A 
HETATM   19  C   UNK N   1      25.089  58.397  43.942  0.00  0.00     0.068 A 
HETATM   20  C   UNK N   1      24.796  57.376  43.017  0.00  0.00     0.038 A 
HETATM   21  C   UNK N   1      25.490  57.298  41.811  0.00  0.00     0.020 A 
BRANCH  19  22
HETATM   22  O   UNK N   1      24.459  58.483  45.144  0.00  0.00    -0.356 OA
HETATM   23  C   UNK N   1      25.092  58.733  46.345  0.00  0.00     0.210 C 
ENDBRANCH  19  22
ENDBRANCH  14  16
ENDBRANCH  13  14
ENDBRANCH   1  13
BRANCH   3  24
HETATM   24  O   UNK N   1      30.430  55.061  38.645  0.00  0.00    -0.389 OA
HETATM   25  H   UNK N   1      30.685  55.611  39.430  0.00  0.00     0.210 HD
ENDBRANCH   3  24
BRANCH   3  26
HETATM   26  C   UNK N   1      28.821  56.349  37.348  0.00  0.00     0.012 C 
HETATM   27  C   UNK N   1      30.042  56.547  36.425  0.00  0.00     0.012 C 
HETATM   28  C   UNK N   1      27.573  56.168  36.460  0.00  0.00     0.012 C 
ENDBRANCH   3  26
BRANCH   9  29
HETATM   29  O   UNK N   1      29.428  54.934  44.065  0.00  0.00    -0.386 OA
HETATM   30  H   UNK N   1      30.216  54.630  44.590  0.00  0.00     0.211 HD
ENDBRANCH   9  29
BRANCH   5  31
HETATM   31  O   UNK N   1      27.305  52.029  39.044  0.00  0.00    -0.315 OA
BRANCH  31  32
HETATM   32  C   UNK N   1      26.149  51.375  38.764  0.00  0.00     0.255 C 
HETATM   33  O   UNK N   1      26.096  50.153  38.781  0.00  0.00    -0.266 OA
HETATM   34  C   UNK N   1      24.918  52.170  38.470  0.00  0.00     0.126 C 
ENDBRANCH  31  32
ENDBRANCH   5  31
BRANCH   7  35
HETATM   35  O   UNK N   1      29.473  52.054  40.479  0.00  0.00    -0.283 OA
BRANCH  35  36
HETATM   36  C   UNK N   1      30.723  51.555  40.262  0.00  0.00     0.259 C 
HETATM   37  O   UNK N   1      31.545  52.176  39.602  0.00  0.00    -0.265 OA
HETATM   38  C   UNK N   1      31.124  50.272  40.912  0.00  0.00     0.126 C 
ENDBRANCH  35  36
ENDBRANCH   7  35
TORSDOF 11
ENDMDL
MODEL 8
REMARK VINA RESULT:      -4.2      2.925      7.667
REMARK  11 active torsions:
REMARK  status: ('A' for Active; 'I' for Inactive)
REMARK    1  A    between atoms: C_2  and  O_3 
REMARK    2  A    between atoms: C_2  and  C_31 
REMARK    3  A    between atoms: O_3  and  C_4 
REMARK    4  A    between atoms: C_6  and  O_7 
REMARK    5  A    between atoms: C_6  and  C_9 
REMARK    6  A    between atoms: C_13  and  O_14 
REMARK    7  A    between atoms: O_14  and  C_15 
REMARK    8  A    between atoms: C_19  and  O_20 
REMARK    9  A    between atoms: O_20  and  C_21 
REMARK   10  A    between atoms: C_25  and  O_26 
REMARK   11  A    between atoms: C_34  and  O_35 
ROOT
HETATM    1  C   UNK N   1      29.786  43.096  57.235  0.00  0.00     0.143 C 
HETATM    2  C   UNK N   1      29.221  44.527  57.474  0.00  0.00     0.067 C 
HETATM    3  C   UNK N   1      27.821  44.537  58.203  0.00  0.00     0.070 C 
HETATM    4  C   UNK N   1      27.724  45.973  58.802  0.00  0.00     0.072 C 
HETATM    5  C   UNK N   1      28.952  46.712  58.306  0.00  0.00     0.149 C 
HETATM    6  C   UNK N   1      30.060  45.619  58.204  0.00  0.00     0.041 C 
HETATM    7  C   UNK N   1      30.642  45.168  59.541  0.00  0.00     0.067 C 
HETATM    8  C   UNK N   1      31.472  44.090  59.674  0.00  0.00     0.044 C 
HETATM    9  C   UNK N   1      31.942  43.035  58.653  0.00  0.00     0.077 C 
HETATM   10  C   UNK N   1      31.309  43.035  57.219  0.00  0.00     0.074 C 
HETATM   11  C   UNK N   1      31.670  41.647  59.306  0.00  0.00     0.050 C 
HETATM   12  C   UNK N   1      31.234  46.253  57.407  0.00  0.00     0.026 C 
ENDROOT
BRANCH   1  13
HETATM   13  O   UNK N   1      29.285  42.617  56.032  0.00  0.00    -0.311 OA
BRANCH  13  14
HETATM   14  C   UNK N   1      29.809  41.545  55.377  0.00  0.00     0.293 C 
HETATM   15  O   UNK N   1      30.568  41.712  54.433  0.00  0.00    -0.259 OA
BRANCH  14  16
HETATM   16  C   UNK N   1      29.523  40.175  55.858  0.00  0.00     0.039 A 
HETATM   17  C   UNK N   1      29.836  39.054  55.071  0.00  0.00     0.020 A 
HETATM   18  C   UNK N   1      29.496  37.770  55.509  0.00  0.00     0.038 A 
HETATM   19  C   UNK N   1      28.833  37.587  56.730  0.00  0.00     0.068 A 
HETATM   20  C   UNK N   1      28.539  38.710  57.526  0.00  0.00     0.038 A 
HETATM   21  C   UNK N   1      28.886  39.989  57.096  0.00  0.00     0.020 A 
BRANCH  19  22
HETATM   22  O   UNK N   1      28.477  36.328  57.098  0.00  0.00    -0.356 OA
HETATM   23  C   UNK N   1      28.847  35.721  58.282  0.00  0.00     0.210 C 
ENDBRANCH  19  22
ENDBRANCH  14  16
ENDBRANCH  13  14
ENDBRANCH   1  13
BRANCH   3  24
HETATM   24  O   UNK N   1      27.899  43.621  59.279  0.00  0.00    -0.389 OA
HETATM   25  H   UNK N   1      28.838  43.540  59.586  0.00  0.00     0.210 HD
ENDBRANCH   3  24
BRANCH   3  26
HETATM   26  C   UNK N   1      26.617  44.125  57.271  0.00  0.00     0.012 C 
HETATM   27  C   UNK N   1      25.997  42.771  57.677  0.00  0.00     0.012 C 
HETATM   28  C   UNK N   1      25.484  45.170  57.204  0.00  0.00     0.012 C 
ENDBRANCH   3  26
BRANCH   9  29
HETATM   29  O   UNK N   1      33.334  43.165  58.475  0.00  0.00    -0.386 OA
HETATM   30  H   UNK N   1      33.609  44.072  58.777  0.00  0.00     0.211 HD
ENDBRANCH   9  29
BRANCH   5  31
HETATM   31  O   UNK N   1      29.271  47.770  59.145  0.00  0.00    -0.315 OA
BRANCH  31  32
HETATM   32  C   UNK N   1      29.338  49.072  58.767  0.00  0.00     0.255 C 
HETATM   33  O   UNK N   1      29.453  49.963  59.596  0.00  0.00    -0.266 OA
HETATM   34  C   UNK N   1      29.306  49.408  57.311  0.00  0.00     0.126 C 
ENDBRANCH  31  32
ENDBRANCH   5  31
BRANCH   7  35
HETATM   35  O   UNK N   1      30.369  45.942  60.632  0.00  0.00    -0.283 OA
BRANCH  35  36
HETATM   36  C   UNK N   1      29.892  45.491  61.828  0.00  0.00     0.259 C 
HETATM   37  O   UNK N   1      28.855  44.844  61.890  0.00  0.00    -0.265 OA
HETATM   38  C   UNK N   1      30.692  45.715  63.068  0.00  0.00     0.126 C 
ENDBRANCH  35  36
ENDBRANCH   7  35
TORSDOF 11
ENDMDL
MODEL 9
REMARK VINA RESULT:      -4.2     15.184     19.642
REMARK  11 active torsions:
REMARK  status: ('A' for Active; 'I' for Inactive)
REMARK    1  A    between atoms: C_2  and  O_3 
REMARK    2  A    between atoms: C_2  and  C_31 
REMARK    3  A    between atoms: O_3  and  C_4 
REMARK    4  A    between atoms: C_6  and  O_7 
REMARK    5  A    between atoms: C_6  and  C_9 
REMARK    6  A    between atoms: C_13  and  O_14 
REMARK    7  A    between atoms: O_14  and  C_15 
REMARK    8  A    between atoms: C_19  and  O_20 
REMARK    9  A    between atoms: O_20  and  C_21 
REMARK   10  A    between atoms: C_25  and  O_26 
REMARK   11  A    between atoms: C_34  and  O_35 
ROOT
HETATM    1  C   UNK N   1      47.154  54.796  62.784  0.00  0.00     0.143 C 
HETATM    2  C   UNK N   1      47.279  53.364  62.185  0.00  0.00     0.067 C 
HETATM    3  C   UNK N   1      48.027  52.349  63.134  0.00  0.00     0.070 C 
HETATM    4  C   UNK N   1      47.569  50.952  62.617  0.00  0.00     0.072 C 
HETATM    5  C   UNK N   1      46.725  51.221  61.386  0.00  0.00     0.149 C 
HETATM    6  C   UNK N   1      46.029  52.587  61.672  0.00  0.00     0.041 C 
HETATM    7  C   UNK N   1      44.880  52.524  62.675  0.00  0.00     0.067 C 
HETATM    8  C   UNK N   1      44.281  53.633  63.202  0.00  0.00     0.044 C 
HETATM    9  C   UNK N   1      44.609  55.133  63.058  0.00  0.00     0.077 C 
HETATM   10  C   UNK N   1      45.920  55.552  62.307  0.00  0.00     0.074 C 
HETATM   11  C   UNK N   1      44.674  55.704  64.507  0.00  0.00     0.050 C 
HETATM   12  C   UNK N   1      45.411  53.059  60.327  0.00  0.00     0.026 C 
ENDROOT
BRANCH   1  13
HETATM   13  O   UNK N   1      48.297  55.514  62.460  0.00  0.00    -0.311 OA
BRANCH  13  14
HETATM   14  C   UNK N   1      48.467  56.154  61.271  0.00  0.00     0.293 C 
HETATM   15  O   UNK N   1      48.466  57.376  61.225  0.00  0.00    -0.259 OA
BRANCH  14  16
HETATM   16  C   UNK N   1      48.736  55.372  60.044  0.00  0.00     0.039 A 
HETATM   17  C   UNK N   1      49.906  54.604  59.920  0.00  0.00     0.020 A 
HETATM   18  C   UNK N   1      50.179  53.926  58.727  0.00  0.00     0.038 A 
HETATM   19  C   UNK N   1      49.296  54.012  57.642  0.00  0.00     0.068 A 
HETATM   20  C   UNK N   1      48.114  54.765  57.776  0.00  0.00     0.038 A 
HETATM   21  C   UNK N   1      47.836  55.433  58.967  0.00  0.00     0.020 A 
BRANCH  19  22
HETATM   22  O   UNK N   1      49.621  53.378  56.484  0.00  0.00    -0.356 OA
HETATM   23  C   UNK N   1      50.626  52.440  56.357  0.00  0.00     0.210 C 
ENDBRANCH  19  22
ENDBRANCH  14  16
ENDBRANCH  13  14
ENDBRANCH   1  13
BRANCH   3  24
HETATM   24  O   UNK N   1      47.504  52.524  64.438  0.00  0.00    -0.389 OA
HETATM   25  H   UNK N   1      47.526  51.663  64.928  0.00  0.00     0.210 HD
ENDBRANCH   3  24
BRANCH   3  26
HETATM   26  C   UNK N   1      49.590  52.558  63.182  0.00  0.00     0.012 C 
HETATM   27  C   UNK N   1      50.168  52.340  64.596  0.00  0.00     0.012 C 
HETATM   28  C   UNK N   1      50.378  51.667  62.199  0.00  0.00     0.012 C 
ENDBRANCH   3  26
BRANCH   9  29
HETATM   29  O   UNK N   1      43.544  55.768  62.390  0.00  0.00    -0.386 OA
HETATM   30  H   UNK N   1      43.413  55.326  61.509  0.00  0.00     0.211 HD
ENDBRANCH   9  29
BRANCH   5  31
HETATM   31  O   UNK N   1      45.848  50.174  61.143  0.00  0.00    -0.315 OA
BRANCH  31  32
HETATM   32  C   UNK N   1      46.213  48.884  60.933  0.00  0.00     0.255 C 
HETATM   33  O   UNK N   1      46.012  48.027  61.782  0.00  0.00    -0.266 OA
HETATM   34  C   UNK N   1      46.834  48.507  59.627  0.00  0.00     0.126 C 
ENDBRANCH  31  32
ENDBRANCH   5  31
BRANCH   7  35
HETATM   35  O   UNK N   1      44.392  51.287  62.987  0.00  0.00    -0.283 OA
BRANCH  35  36
HETATM   36  C   UNK N   1      43.078  50.923  62.970  0.00  0.00     0.259 C 
HETATM   37  O   UNK N   1      42.446  50.888  61.922  0.00  0.00    -0.265 OA
HETATM   38  C   UNK N   1      42.424  50.478  64.235  0.00  0.00     0.126 C 
ENDBRANCH  35  36
ENDBRANCH   7  35
TORSDOF 11
ENDMDL
