MODEL 1
REMARK VINA RESULT:      -6.4      0.000      0.000
REMARK  14 active torsions:
REMARK  status: ('A' for Active; 'I' for Inactive)
REMARK    1  A    between atoms: C_2  and  O_3 
REMARK    2  A    between atoms: C_2  and  C_39 
REMARK    3  A    between atoms: O_3  and  C_4 
REMARK    4  A    between atoms: C_5  and  C_36 
REMARK    5  A    between atoms: C_7  and  C_14 
REMARK    6  A    between atoms: C_8  and  O_9 
REMARK    7  A    between atoms: C_11  and  O_12 
REMARK    8  A    between atoms: C_14  and  C_15 
REMARK    9  A    between atoms: C_17  and  O_18 
REMARK   10  A    between atoms: C_20  and  C_21 
REMARK   11  A    between atoms: C_21  and  C_23 
REMARK   12  A    between atoms: C_25  and  O_26 
REMARK   13  A    between atoms: C_29  and  O_31 
REMARK   14  A    between atoms: C_36  and  O_37 
ROOT
HETATM    1  C   UNK N   1      33.240  43.169  61.749  0.00  0.00     0.194 C 
HETATM    2  C   UNK N   1      33.224  43.163  60.201  0.00  0.00     0.177 C 
HETATM    3  O   UNK N   1      32.634  41.968  59.688  0.00  0.00    -0.373 OA
HETATM    4  C   UNK N   1      31.281  41.797  60.107  0.00  0.00     0.157 C 
HETATM    5  C   UNK N   1      31.156  41.799  61.650  0.00  0.00     0.178 C 
HETATM    6  C   UNK N   1      31.792  43.056  62.254  0.00  0.00     0.181 C 
ENDROOT
BRANCH   4   7
HETATM    7  C   UNK N   1      30.302  42.740  59.355  0.00  0.00     0.073 C 
BRANCH   7   8
HETATM    8  C   UNK N   1      29.805  42.086  58.086  0.00  0.00    -0.052 A 
HETATM    9  C   UNK N   1      28.568  41.429  58.040  0.00  0.00     0.044 A 
HETATM   10  C   UNK N   1      28.115  40.851  56.840  0.00  0.00     0.081 A 
HETATM   11  C   UNK N   1      28.903  40.938  55.676  0.00  0.00     0.054 A 
HETATM   12  C   UNK N   1      30.148  41.603  55.717  0.00  0.00    -0.044 A 
HETATM   13  C   UNK N   1      30.589  42.165  56.922  0.00  0.00     0.015 A 
HETATM   14  C   UNK N   1      31.002  41.729  54.481  0.00  0.00     0.049 C 
BRANCH  10  15
HETATM   15  O   UNK N   1      26.923  40.220  56.796  0.00  0.00    -0.360 OA
HETATM   16  H   UNK N   1      26.100  40.664  57.045  0.00  0.00     0.217 HD
ENDBRANCH  10  15
BRANCH  11  17
HETATM   17  C   UNK N   1      28.407  40.355  54.408  0.00  0.00     0.195 C 
HETATM   18  O   UNK N   1      28.442  39.142  54.261  0.00  0.00    -0.287 OA
BRANCH  17  19
HETATM   19  C   UNK N   1      27.880  41.227  53.320  0.00  0.00     0.020 A 
HETATM   20  C   UNK N   1      27.489  42.552  53.596  0.00  0.00     0.052 A 
HETATM   21  C   UNK N   1      26.996  43.375  52.571  0.00  0.00     0.069 A 
HETATM   22  C   UNK N   1      26.891  42.879  51.268  0.00  0.00     0.073 A 
HETATM   23  C   UNK N   1      27.274  41.566  50.980  0.00  0.00     0.069 A 
HETATM   24  C   UNK N   1      27.766  40.743  52.002  0.00  0.00     0.052 A 
BRANCH  21  25
HETATM   25  O   UNK N   1      26.622  44.644  52.830  0.00  0.00    -0.361 OA
HETATM   26  H   UNK N   1      27.071  45.182  53.499  0.00  0.00     0.217 HD
ENDBRANCH  21  25
BRANCH  23  27
HETATM   27  O   UNK N   1      27.166  41.103  49.719  0.00  0.00    -0.361 OA
HETATM   28  H   UNK N   1      27.672  40.337  49.413  0.00  0.00     0.217 HD
ENDBRANCH  23  27
ENDBRANCH  17  19
ENDBRANCH  11  17
ENDBRANCH   7   8
ENDBRANCH   4   7
BRANCH   5  29
HETATM   29  O   UNK N   1      29.806  41.679  62.024  0.00  0.00    -0.390 OA
HETATM   30  H   UNK N   1      29.563  40.720  61.959  0.00  0.00     0.210 HD
ENDBRANCH   5  29
BRANCH   2  31
HETATM   31  C   UNK N   1      34.659  43.274  59.665  0.00  0.00     0.198 C 
BRANCH  31  32
HETATM   32  O   UNK N   1      34.796  42.485  58.517  0.00  0.00    -0.398 OA
HETATM   33  H   UNK N   1      34.355  42.991  57.785  0.00  0.00     0.209 HD
ENDBRANCH  31  32
ENDBRANCH   2  31
BRANCH   6  34
HETATM   34  O   UNK N   1      31.749  43.014  63.660  0.00  0.00    -0.390 OA
HETATM   35  H   UNK N   1      31.829  42.062  63.937  0.00  0.00     0.210 HD
ENDBRANCH   6  34
BRANCH   1  36
HETATM   36  O   UNK N   1      33.801  44.353  62.198  0.00  0.00    -0.307 OA
BRANCH  36  37
HETATM   37  C   UNK N   1      34.777  44.453  63.142  0.00  0.00     0.293 C 
HETATM   38  O   UNK N   1      34.721  43.792  64.169  0.00  0.00    -0.259 OA
BRANCH  37  39
HETATM   39  C   UNK N   1      35.923  45.362  62.901  0.00  0.00     0.039 A 
HETATM   40  C   UNK N   1      35.766  46.760  62.969  0.00  0.00     0.017 A 
HETATM   41  C   UNK N   1      36.861  47.602  62.739  0.00  0.00     0.001 A 
HETATM   42  C   UNK N   1      38.112  47.060  62.437  0.00  0.00     0.000 A 
HETATM   43  C   UNK N   1      38.275  45.674  62.364  0.00  0.00     0.001 A 
HETATM   44  C   UNK N   1      37.187  44.829  62.596  0.00  0.00     0.017 A 
ENDBRANCH  37  39
ENDBRANCH  36  37
ENDBRANCH   1  36
TORSDOF 14
ENDMDL
MODEL 2
REMARK VINA RESULT:      -6.3      0.291      1.374
REMARK  14 active torsions:
REMARK  status: ('A' for Active; 'I' for Inactive)
REMARK    1  A    between atoms: C_2  and  O_3 
REMARK    2  A    between atoms: C_2  and  C_39 
REMARK    3  A    between atoms: O_3  and  C_4 
REMARK    4  A    between atoms: C_5  and  C_36 
REMARK    5  A    between atoms: C_7  and  C_14 
REMARK    6  A    between atoms: C_8  and  O_9 
REMARK    7  A    between atoms: C_11  and  O_12 
REMARK    8  A    between atoms: C_14  and  C_15 
REMARK    9  A    between atoms: C_17  and  O_18 
REMARK   10  A    between atoms: C_20  and  C_21 
REMARK   11  A    between atoms: C_21  and  C_23 
REMARK   12  A    between atoms: C_25  and  O_26 
REMARK   13  A    between atoms: C_29  and  O_31 
REMARK   14  A    between atoms: C_36  and  O_37 
ROOT
HETATM    1  C   UNK N   1      33.031  43.296  61.893  0.00  0.00     0.194 C 
HETATM    2  C   UNK N   1      33.023  43.102  60.357  0.00  0.00     0.177 C 
HETATM    3  O   UNK N   1      32.294  41.933  59.981  0.00  0.00    -0.373 OA
HETATM    4  C   UNK N   1      30.928  41.980  60.389  0.00  0.00     0.157 C 
HETATM    5  C   UNK N   1      30.795  42.186  61.918  0.00  0.00     0.178 C 
HETATM    6  C   UNK N   1      31.578  43.421  62.379  0.00  0.00     0.181 C 
ENDROOT
BRANCH   4   7
HETATM    7  C   UNK N   1      30.076  42.936  59.509  0.00  0.00     0.073 C 
BRANCH   7   8
HETATM    8  C   UNK N   1      29.681  42.256  58.217  0.00  0.00    -0.052 A 
HETATM    9  C   UNK N   1      28.460  41.581  58.092  0.00  0.00     0.044 A 
HETATM   10  C   UNK N   1      28.103  40.979  56.872  0.00  0.00     0.081 A 
HETATM   11  C   UNK N   1      28.972  41.061  55.767  0.00  0.00     0.054 A 
HETATM   12  C   UNK N   1      30.201  41.743  55.887  0.00  0.00    -0.044 A 
HETATM   13  C   UNK N   1      30.546  42.329  57.112  0.00  0.00     0.015 A 
HETATM   14  C   UNK N   1      31.141  41.864  54.714  0.00  0.00     0.049 C 
BRANCH  10  15
HETATM   15  O   UNK N   1      26.925  40.331  56.752  0.00  0.00    -0.360 OA
HETATM   16  H   UNK N   1      26.107  40.794  56.521  0.00  0.00     0.217 HD
ENDBRANCH  10  15
BRANCH  11  17
HETATM   17  C   UNK N   1      28.576  40.452  54.475  0.00  0.00     0.195 C 
HETATM   18  O   UNK N   1      28.713  39.247  54.323  0.00  0.00    -0.287 OA
BRANCH  17  19
HETATM   19  C   UNK N   1      28.029  41.290  53.371  0.00  0.00     0.020 A 
HETATM   20  C   UNK N   1      27.940  40.775  52.063  0.00  0.00     0.052 A 
HETATM   21  C   UNK N   1      27.421  41.564  51.024  0.00  0.00     0.069 A 
HETATM   22  C   UNK N   1      26.991  42.867  51.285  0.00  0.00     0.073 A 
HETATM   23  C   UNK N   1      27.075  43.392  52.578  0.00  0.00     0.069 A 
HETATM   24  C   UNK N   1      27.593  42.607  53.617  0.00  0.00     0.052 A 
BRANCH  21  25
HETATM   25  O   UNK N   1      27.332  41.074  49.770  0.00  0.00    -0.361 OA
HETATM   26  H   UNK N   1      26.480  40.836  49.375  0.00  0.00     0.217 HD
ENDBRANCH  21  25
BRANCH  23  27
HETATM   27  O   UNK N   1      26.657  44.651  52.813  0.00  0.00    -0.361 OA
HETATM   28  H   UNK N   1      26.934  45.141  53.602  0.00  0.00     0.217 HD
ENDBRANCH  23  27
ENDBRANCH  17  19
ENDBRANCH  11  17
ENDBRANCH   7   8
ENDBRANCH   4   7
BRANCH   5  29
HETATM   29  O   UNK N   1      29.439  42.279  62.276  0.00  0.00    -0.390 OA
HETATM   30  H   UNK N   1      29.122  43.179  62.008  0.00  0.00     0.210 HD
ENDBRANCH   5  29
BRANCH   2  31
HETATM   31  C   UNK N   1      34.464  42.970  59.842  0.00  0.00     0.198 C 
BRANCH  31  32
HETATM   32  O   UNK N   1      34.451  42.599  58.492  0.00  0.00    -0.398 OA
HETATM   33  H   UNK N   1      34.052  41.689  58.464  0.00  0.00     0.209 HD
ENDBRANCH  31  32
ENDBRANCH   2  31
BRANCH   6  34
HETATM   34  O   UNK N   1      31.523  43.558  63.778  0.00  0.00    -0.390 OA
HETATM   35  H   UNK N   1      30.701  43.097  64.095  0.00  0.00     0.210 HD
ENDBRANCH   6  34
BRANCH   1  36
HETATM   36  O   UNK N   1      33.731  44.449  62.207  0.00  0.00    -0.307 OA
BRANCH  36  37
HETATM   37  C   UNK N   1      34.710  44.544  63.149  0.00  0.00     0.293 C 
HETATM   38  O   UNK N   1      34.639  43.902  64.187  0.00  0.00    -0.259 OA
BRANCH  37  39
HETATM   39  C   UNK N   1      35.875  45.422  62.892  0.00  0.00     0.039 A 
HETATM   40  C   UNK N   1      35.735  46.824  62.864  0.00  0.00     0.017 A 
HETATM   41  C   UNK N   1      36.848  47.637  62.620  0.00  0.00     0.001 A 
HETATM   42  C   UNK N   1      38.102  47.063  62.401  0.00  0.00     0.000 A 
HETATM   43  C   UNK N   1      38.249  45.674  62.424  0.00  0.00     0.001 A 
HETATM   44  C   UNK N   1      37.143  44.857  62.669  0.00  0.00     0.017 A 
ENDBRANCH  37  39
ENDBRANCH  36  37
ENDBRANCH   1  36
TORSDOF 14
ENDMDL
MODEL 3
REMARK VINA RESULT:      -6.3     13.030     17.784
REMARK  14 active torsions:
REMARK  status: ('A' for Active; 'I' for Inactive)
REMARK    1  A    between atoms: C_2  and  O_3 
REMARK    2  A    between atoms: C_2  and  C_39 
REMARK    3  A    between atoms: O_3  and  C_4 
REMARK    4  A    between atoms: C_5  and  C_36 
REMARK    5  A    between atoms: C_7  and  C_14 
REMARK    6  A    between atoms: C_8  and  O_9 
REMARK    7  A    between atoms: C_11  and  O_12 
REMARK    8  A    between atoms: C_14  and  C_15 
REMARK    9  A    between atoms: C_17  and  O_18 
REMARK   10  A    between atoms: C_20  and  C_21 
REMARK   11  A    between atoms: C_21  and  C_23 
REMARK   12  A    between atoms: C_25  and  O_26 
REMARK   13  A    between atoms: C_29  and  O_31 
REMARK   14  A    between atoms: C_36  and  O_37 
ROOT
HETATM    1  C   UNK N   1      37.260  49.739  42.856  0.00  0.00     0.194 C 
HETATM    2  C   UNK N   1      37.032  48.567  43.841  0.00  0.00     0.177 C 
HETATM    3  O   UNK N   1      38.197  47.749  43.959  0.00  0.00    -0.373 OA
HETATM    4  C   UNK N   1      39.330  48.470  44.442  0.00  0.00     0.157 C 
HETATM    5  C   UNK N   1      39.658  49.687  43.544  0.00  0.00     0.178 C 
HETATM    6  C   UNK N   1      38.432  50.591  43.369  0.00  0.00     0.181 C 
ENDROOT
BRANCH   4   7
HETATM    7  C   UNK N   1      39.242  48.766  45.965  0.00  0.00     0.073 C 
BRANCH   7   8
HETATM    8  C   UNK N   1      39.824  47.620  46.762  0.00  0.00    -0.052 A 
HETATM    9  C   UNK N   1      41.154  47.640  47.203  0.00  0.00     0.044 A 
HETATM   10  C   UNK N   1      41.665  46.574  47.966  0.00  0.00     0.081 A 
HETATM   11  C   UNK N   1      40.836  45.485  48.297  0.00  0.00     0.054 A 
HETATM   12  C   UNK N   1      39.494  45.464  47.859  0.00  0.00    -0.044 A 
HETATM   13  C   UNK N   1      39.003  46.528  47.092  0.00  0.00     0.015 A 
HETATM   14  C   UNK N   1      38.578  44.321  48.217  0.00  0.00     0.049 C 
BRANCH  10  15
HETATM   15  O   UNK N   1      42.946  46.595  48.391  0.00  0.00    -0.360 OA
HETATM   16  H   UNK N   1      43.513  45.812  48.345  0.00  0.00     0.217 HD
ENDBRANCH  10  15
BRANCH  11  17
HETATM   17  C   UNK N   1      41.370  44.381  49.128  0.00  0.00     0.195 C 
HETATM   18  O   UNK N   1      41.982  43.474  48.583  0.00  0.00    -0.287 OA
BRANCH  17  19
HETATM   19  C   UNK N   1      41.162  44.365  50.603  0.00  0.00     0.020 A 
HETATM   20  C   UNK N   1      41.909  45.219  51.438  0.00  0.00     0.052 A 
HETATM   21  C   UNK N   1      41.711  45.207  52.827  0.00  0.00     0.069 A 
HETATM   22  C   UNK N   1      40.768  44.341  53.389  0.00  0.00     0.073 A 
HETATM   23  C   UNK N   1      40.021  43.487  52.574  0.00  0.00     0.069 A 
HETATM   24  C   UNK N   1      40.217  43.497  51.187  0.00  0.00     0.052 A 
BRANCH  21  25
HETATM   25  O   UNK N   1      42.422  46.025  53.630  0.00  0.00    -0.361 OA
HETATM   26  H   UNK N   1      43.387  46.079  53.576  0.00  0.00     0.217 HD
ENDBRANCH  21  25
BRANCH  23  27
HETATM   27  O   UNK N   1      39.116  42.658  53.131  0.00  0.00    -0.361 OA
HETATM   28  H   UNK N   1      39.006  42.596  54.092  0.00  0.00     0.217 HD
ENDBRANCH  23  27
ENDBRANCH  17  19
ENDBRANCH  11  17
ENDBRANCH   7   8
ENDBRANCH   4   7
BRANCH   5  29
HETATM   29  O   UNK N   1      40.746  50.401  44.078  0.00  0.00    -0.390 OA
HETATM   30  H   UNK N   1      40.599  50.478  45.056  0.00  0.00     0.210 HD
ENDBRANCH   5  29
BRANCH   2  31
HETATM   31  C   UNK N   1      35.866  47.695  43.353  0.00  0.00     0.198 C 
BRANCH  31  32
HETATM   32  O   UNK N   1      36.330  46.771  42.410  0.00  0.00    -0.398 OA
HETATM   33  H   UNK N   1      35.833  45.929  42.586  0.00  0.00     0.209 HD
ENDBRANCH  31  32
ENDBRANCH   2  31
BRANCH   6  34
HETATM   34  O   UNK N   1      38.712  51.651  42.486  0.00  0.00    -0.390 OA
HETATM   35  H   UNK N   1      38.815  51.267  41.575  0.00  0.00     0.210 HD
ENDBRANCH   6  34
BRANCH   1  36
HETATM   36  O   UNK N   1      36.112  50.513  42.790  0.00  0.00    -0.307 OA
BRANCH  36  37
HETATM   37  C   UNK N   1      35.387  50.938  43.861  0.00  0.00     0.293 C 
HETATM   38  O   UNK N   1      35.843  50.859  44.993  0.00  0.00    -0.259 OA
BRANCH  37  39
HETATM   39  C   UNK N   1      34.041  51.517  43.637  0.00  0.00     0.039 A 
HETATM   40  C   UNK N   1      33.126  50.904  42.758  0.00  0.00     0.017 A 
HETATM   41  C   UNK N   1      31.859  51.466  42.559  0.00  0.00     0.001 A 
HETATM   42  C   UNK N   1      31.498  52.637  43.229  0.00  0.00     0.000 A 
HETATM   43  C   UNK N   1      32.401  53.252  44.100  0.00  0.00     0.001 A 
HETATM   44  C   UNK N   1      33.665  52.695  44.304  0.00  0.00     0.017 A 
ENDBRANCH  37  39
ENDBRANCH  36  37
ENDBRANCH   1  36
TORSDOF 14
ENDMDL
MODEL 4
REMARK VINA RESULT:      -6.2      2.265     11.089
REMARK  14 active torsions:
REMARK  status: ('A' for Active; 'I' for Inactive)
REMARK    1  A    between atoms: C_2  and  O_3 
REMARK    2  A    between atoms: C_2  and  C_39 
REMARK    3  A    between atoms: O_3  and  C_4 
REMARK    4  A    between atoms: C_5  and  C_36 
REMARK    5  A    between atoms: C_7  and  C_14 
REMARK    6  A    between atoms: C_8  and  O_9 
REMARK    7  A    between atoms: C_11  and  O_12 
REMARK    8  A    between atoms: C_14  and  C_15 
REMARK    9  A    between atoms: C_17  and  O_18 
REMARK   10  A    between atoms: C_20  and  C_21 
REMARK   11  A    between atoms: C_21  and  C_23 
REMARK   12  A    between atoms: C_25  and  O_26 
REMARK   13  A    between atoms: C_29  and  O_31 
REMARK   14  A    between atoms: C_36  and  O_37 
ROOT
HETATM    1  C   UNK N   1      29.105  42.926  56.105  0.00  0.00     0.194 C 
HETATM    2  C   UNK N   1      30.316  41.968  56.219  0.00  0.00     0.177 C 
HETATM    3  O   UNK N   1      31.508  42.672  56.569  0.00  0.00    -0.373 OA
HETATM    4  C   UNK N   1      31.404  43.342  57.824  0.00  0.00     0.157 C 
HETATM    5  C   UNK N   1      30.211  44.330  57.847  0.00  0.00     0.178 C 
HETATM    6  C   UNK N   1      28.906  43.627  57.458  0.00  0.00     0.181 C 
ENDROOT
BRANCH   4   7
HETATM    7  C   UNK N   1      31.488  42.366  59.030  0.00  0.00     0.073 C 
BRANCH   7   8
HETATM    8  C   UNK N   1      32.420  42.911  60.089  0.00  0.00    -0.052 A 
HETATM    9  C   UNK N   1      33.789  43.076  59.840  0.00  0.00     0.044 A 
HETATM   10  C   UNK N   1      34.631  43.610  60.832  0.00  0.00     0.081 A 
HETATM   11  C   UNK N   1      34.098  43.988  62.079  0.00  0.00     0.054 A 
HETATM   12  C   UNK N   1      32.719  43.827  62.333  0.00  0.00    -0.044 A 
HETATM   13  C   UNK N   1      31.895  43.285  61.337  0.00  0.00     0.015 A 
HETATM   14  C   UNK N   1      32.118  44.243  63.651  0.00  0.00     0.049 C 
BRANCH  10  15
HETATM   15  O   UNK N   1      35.950  43.771  60.591  0.00  0.00    -0.360 OA
HETATM   16  H   UNK N   1      36.593  43.071  60.773  0.00  0.00     0.217 HD
ENDBRANCH  10  15
BRANCH  11  17
HETATM   17  C   UNK N   1      34.985  44.579  63.109  0.00  0.00     0.195 C 
HETATM   18  O   UNK N   1      35.373  43.875  64.029  0.00  0.00    -0.287 OA
BRANCH  17  19
HETATM   19  C   UNK N   1      35.393  46.010  63.035  0.00  0.00     0.020 A 
HETATM   20  C   UNK N   1      36.601  46.375  62.409  0.00  0.00     0.052 A 
HETATM   21  C   UNK N   1      36.985  47.723  62.337  0.00  0.00     0.069 A 
HETATM   22  C   UNK N   1      36.166  48.711  62.889  0.00  0.00     0.073 A 
HETATM   23  C   UNK N   1      34.966  48.365  63.515  0.00  0.00     0.069 A 
HETATM   24  C   UNK N   1      34.581  47.019  63.589  0.00  0.00     0.052 A 
BRANCH  21  25
HETATM   25  O   UNK N   1      38.140  48.077  61.736  0.00  0.00    -0.361 OA
HETATM   26  H   UNK N   1      38.155  48.660  60.964  0.00  0.00     0.217 HD
ENDBRANCH  21  25
BRANCH  23  27
HETATM   27  O   UNK N   1      34.187  49.330  64.044  0.00  0.00    -0.361 OA
HETATM   28  H   UNK N   1      33.885  49.294  64.963  0.00  0.00     0.217 HD
ENDBRANCH  23  27
ENDBRANCH  17  19
ENDBRANCH  11  17
ENDBRANCH   7   8
ENDBRANCH   4   7
BRANCH   5  29
HETATM   29  O   UNK N   1      30.110  44.933  59.113  0.00  0.00    -0.390 OA
HETATM   30  H   UNK N   1      30.972  44.787  59.581  0.00  0.00     0.210 HD
ENDBRANCH   5  29
BRANCH   2  31
HETATM   31  C   UNK N   1      30.542  41.253  54.879  0.00  0.00     0.198 C 
BRANCH  31  32
HETATM   32  O   UNK N   1      31.710  41.735  54.278  0.00  0.00    -0.398 OA
HETATM   33  H   UNK N   1      32.448  41.163  54.617  0.00  0.00     0.209 HD
ENDBRANCH  31  32
ENDBRANCH   2  31
BRANCH   6  34
HETATM   34  O   UNK N   1      27.840  44.544  57.401  0.00  0.00    -0.390 OA
HETATM   35  H   UNK N   1      27.771  44.984  58.290  0.00  0.00     0.210 HD
ENDBRANCH   6  34
BRANCH   1  36
HETATM   36  O   UNK N   1      27.972  42.197  55.784  0.00  0.00    -0.307 OA
BRANCH  36  37
HETATM   37  C   UNK N   1      26.961  42.627  54.978  0.00  0.00     0.293 C 
HETATM   38  O   UNK N   1      26.050  43.304  55.431  0.00  0.00    -0.259 OA
BRANCH  37  39
HETATM   39  C   UNK N   1      26.990  42.279  53.538  0.00  0.00     0.039 A 
HETATM   40  C   UNK N   1      28.053  42.695  52.713  0.00  0.00     0.017 A 
HETATM   41  C   UNK N   1      28.063  42.357  51.355  0.00  0.00     0.001 A 
HETATM   42  C   UNK N   1      27.017  41.607  50.811  0.00  0.00     0.000 A 
HETATM   43  C   UNK N   1      25.957  41.194  51.622  0.00  0.00     0.001 A 
HETATM   44  C   UNK N   1      25.943  41.527  52.978  0.00  0.00     0.017 A 
ENDBRANCH  37  39
ENDBRANCH  36  37
ENDBRANCH   1  36
TORSDOF 14
ENDMDL
MODEL 5
REMARK VINA RESULT:      -6.1     12.959     17.835
REMARK  14 active torsions:
REMARK  status: ('A' for Active; 'I' for Inactive)
REMARK    1  A    between atoms: C_2  and  O_3 
REMARK    2  A    between atoms: C_2  and  C_39 
REMARK    3  A    between atoms: O_3  and  C_4 
REMARK    4  A    between atoms: C_5  and  C_36 
REMARK    5  A    between atoms: C_7  and  C_14 
REMARK    6  A    between atoms: C_8  and  O_9 
REMARK    7  A    between atoms: C_11  and  O_12 
REMARK    8  A    between atoms: C_14  and  C_15 
REMARK    9  A    between atoms: C_17  and  O_18 
REMARK   10  A    between atoms: C_20  and  C_21 
REMARK   11  A    between atoms: C_21  and  C_23 
REMARK   12  A    between atoms: C_25  and  O_26 
REMARK   13  A    between atoms: C_29  and  O_31 
REMARK   14  A    between atoms: C_36  and  O_37 
ROOT
HETATM    1  C   UNK N   1      37.620  49.686  42.804  0.00  0.00     0.194 C 
HETATM    2  C   UNK N   1      37.383  48.494  43.763  0.00  0.00     0.177 C 
HETATM    3  O   UNK N   1      38.594  47.784  44.025  0.00  0.00    -0.373 OA
HETATM    4  C   UNK N   1      39.591  48.602  44.636  0.00  0.00     0.157 C 
HETATM    5  C   UNK N   1      39.914  49.847  43.775  0.00  0.00     0.178 C 
HETATM    6  C   UNK N   1      38.641  50.637  43.448  0.00  0.00     0.181 C 
ENDROOT
BRANCH   4   7
HETATM    7  C   UNK N   1      39.295  48.882  46.135  0.00  0.00     0.073 C 
BRANCH   7   8
HETATM    8  C   UNK N   1      39.805  47.749  46.997  0.00  0.00    -0.052 A 
HETATM    9  C   UNK N   1      39.069  46.568  47.160  0.00  0.00     0.044 A 
HETATM   10  C   UNK N   1      39.577  45.518  47.945  0.00  0.00     0.081 A 
HETATM   11  C   UNK N   1      40.833  45.647  48.566  0.00  0.00     0.054 A 
HETATM   12  C   UNK N   1      41.580  46.834  48.402  0.00  0.00    -0.044 A 
HETATM   13  C   UNK N   1      41.056  47.875  47.624  0.00  0.00     0.015 A 
HETATM   14  C   UNK N   1      42.938  46.992  49.037  0.00  0.00     0.049 C 
BRANCH  10  15
HETATM   15  O   UNK N   1      38.868  44.379  48.099  0.00  0.00    -0.360 OA
HETATM   16  H   UNK N   1      38.366  44.194  48.906  0.00  0.00     0.217 HD
ENDBRANCH  10  15
BRANCH  11  17
HETATM   17  C   UNK N   1      41.377  44.525  49.366  0.00  0.00     0.195 C 
HETATM   18  O   UNK N   1      42.037  43.664  48.804  0.00  0.00    -0.287 OA
BRANCH  17  19
HETATM   19  C   UNK N   1      41.120  44.437  50.831  0.00  0.00     0.020 A 
HETATM   20  C   UNK N   1      40.221  43.480  51.340  0.00  0.00     0.052 A 
HETATM   21  C   UNK N   1      39.981  43.394  52.721  0.00  0.00     0.069 A 
HETATM   22  C   UNK N   1      40.636  44.262  53.597  0.00  0.00     0.073 A 
HETATM   23  C   UNK N   1      41.531  45.218  53.107  0.00  0.00     0.069 A 
HETATM   24  C   UNK N   1      41.771  45.305  51.730  0.00  0.00     0.052 A 
BRANCH  21  25
HETATM   25  O   UNK N   1      39.121  42.478  53.212  0.00  0.00    -0.361 OA
HETATM   26  H   UNK N   1      38.702  42.585  54.078  0.00  0.00     0.217 HD
ENDBRANCH  21  25
BRANCH  23  27
HETATM   27  O   UNK N   1      42.155  46.048  53.966  0.00  0.00    -0.361 OA
HETATM   28  H   UNK N   1      43.012  46.447  53.757  0.00  0.00     0.217 HD
ENDBRANCH  23  27
ENDBRANCH  17  19
ENDBRANCH  11  17
ENDBRANCH   7   8
ENDBRANCH   4   7
BRANCH   5  29
HETATM   29  O   UNK N   1      40.861  50.654  44.431  0.00  0.00    -0.390 OA
HETATM   30  H   UNK N   1      40.362  51.333  44.954  0.00  0.00     0.210 HD
ENDBRANCH   5  29
BRANCH   2  31
HETATM   31  C   UNK N   1      36.367  47.522  43.145  0.00  0.00     0.198 C 
BRANCH  31  32
HETATM   32  O   UNK N   1      36.561  47.454  41.760  0.00  0.00    -0.398 OA
HETATM   33  H   UNK N   1      37.503  47.728  41.603  0.00  0.00     0.209 HD
ENDBRANCH  31  32
ENDBRANCH   2  31
BRANCH   6  34
HETATM   34  O   UNK N   1      38.928  51.722  42.599  0.00  0.00    -0.390 OA
HETATM   35  H   UNK N   1      39.875  51.983  42.750  0.00  0.00     0.210 HD
ENDBRANCH   6  34
BRANCH   1  36
HETATM   36  O   UNK N   1      36.424  50.353  42.596  0.00  0.00    -0.307 OA
BRANCH  36  37
HETATM   37  C   UNK N   1      35.434  50.500  43.519  0.00  0.00     0.293 C 
HETATM   38  O   UNK N   1      35.696  50.828  44.667  0.00  0.00    -0.259 OA
BRANCH  37  39
HETATM   39  C   UNK N   1      34.027  50.277  43.109  0.00  0.00     0.039 A 
HETATM   40  C   UNK N   1      33.481  48.979  43.071  0.00  0.00     0.017 A 
HETATM   41  C   UNK N   1      32.150  48.788  42.682  0.00  0.00     0.001 A 
HETATM   42  C   UNK N   1      31.359  49.882  42.325  0.00  0.00     0.000 A 
HETATM   43  C   UNK N   1      31.895  51.172  42.357  0.00  0.00     0.001 A 
HETATM   44  C   UNK N   1      33.221  51.370  42.747  0.00  0.00     0.017 A 
ENDBRANCH  37  39
ENDBRANCH  36  37
ENDBRANCH   1  36
TORSDOF 14
ENDMDL
MODEL 6
REMARK VINA RESULT:      -6.1      1.967     10.484
REMARK  14 active torsions:
REMARK  status: ('A' for Active; 'I' for Inactive)
REMARK    1  A    between atoms: C_2  and  O_3 
REMARK    2  A    between atoms: C_2  and  C_39 
REMARK    3  A    between atoms: O_3  and  C_4 
REMARK    4  A    between atoms: C_5  and  C_36 
REMARK    5  A    between atoms: C_7  and  C_14 
REMARK    6  A    between atoms: C_8  and  O_9 
REMARK    7  A    between atoms: C_11  and  O_12 
REMARK    8  A    between atoms: C_14  and  C_15 
REMARK    9  A    between atoms: C_17  and  O_18 
REMARK   10  A    between atoms: C_20  and  C_21 
REMARK   11  A    between atoms: C_21  and  C_23 
REMARK   12  A    between atoms: C_25  and  O_26 
REMARK   13  A    between atoms: C_29  and  O_31 
REMARK   14  A    between atoms: C_36  and  O_37 
ROOT
HETATM    1  C   UNK N   1      29.758  42.085  56.924  0.00  0.00     0.194 C 
HETATM    2  C   UNK N   1      30.993  42.699  57.627  0.00  0.00     0.177 C 
HETATM    3  O   UNK N   1      30.622  43.410  58.809  0.00  0.00    -0.373 OA
HETATM    4  C   UNK N   1      29.980  42.579  59.774  0.00  0.00     0.157 C 
HETATM    5  C   UNK N   1      28.724  41.888  59.187  0.00  0.00     0.178 C 
HETATM    6  C   UNK N   1      29.064  41.124  57.903  0.00  0.00     0.181 C 
ENDROOT
BRANCH   4   7
HETATM    7  C   UNK N   1      30.976  41.642  60.511  0.00  0.00     0.073 C 
BRANCH   7   8
HETATM    8  C   UNK N   1      31.975  42.452  61.306  0.00  0.00    -0.052 A 
HETATM    9  C   UNK N   1      31.692  42.884  62.609  0.00  0.00     0.044 A 
HETATM   10  C   UNK N   1      32.648  43.613  63.338  0.00  0.00     0.081 A 
HETATM   11  C   UNK N   1      33.900  43.904  62.764  0.00  0.00     0.054 A 
HETATM   12  C   UNK N   1      34.192  43.467  61.454  0.00  0.00    -0.044 A 
HETATM   13  C   UNK N   1      33.225  42.750  60.736  0.00  0.00     0.015 A 
HETATM   14  C   UNK N   1      35.532  43.746  60.822  0.00  0.00     0.049 C 
BRANCH  10  15
HETATM   15  O   UNK N   1      32.374  44.028  64.593  0.00  0.00    -0.360 OA
HETATM   16  H   UNK N   1      32.814  43.645  65.366  0.00  0.00     0.217 HD
ENDBRANCH  10  15
BRANCH  11  17
HETATM   17  C   UNK N   1      34.915  44.645  63.549  0.00  0.00     0.195 C 
HETATM   18  O   UNK N   1      35.520  44.059  64.435  0.00  0.00    -0.287 OA
BRANCH  17  19
HETATM   19  C   UNK N   1      35.192  46.083  63.275  0.00  0.00     0.020 A 
HETATM   20  C   UNK N   1      34.269  47.074  63.664  0.00  0.00     0.052 A 
HETATM   21  C   UNK N   1      34.531  48.429  63.409  0.00  0.00     0.069 A 
HETATM   22  C   UNK N   1      35.715  48.801  62.766  0.00  0.00     0.073 A 
HETATM   23  C   UNK N   1      36.640  47.829  62.373  0.00  0.00     0.069 A 
HETATM   24  C   UNK N   1      36.380  46.476  62.626  0.00  0.00     0.052 A 
BRANCH  21  25
HETATM   25  O   UNK N   1      33.650  49.380  63.780  0.00  0.00    -0.361 OA
HETATM   26  H   UNK N   1      32.975  49.716  63.173  0.00  0.00     0.217 HD
ENDBRANCH  21  25
BRANCH  23  27
HETATM   27  O   UNK N   1      37.776  48.205  61.754  0.00  0.00    -0.361 OA
HETATM   28  H   UNK N   1      38.644  48.090  62.169  0.00  0.00     0.217 HD
ENDBRANCH  23  27
ENDBRANCH  17  19
ENDBRANCH  11  17
ENDBRANCH   7   8
ENDBRANCH   4   7
BRANCH   5  29
HETATM   29  O   UNK N   1      28.148  41.039  60.149  0.00  0.00    -0.390 OA
HETATM   30  H   UNK N   1      27.580  40.386  59.666  0.00  0.00     0.210 HD
ENDBRANCH   5  29
BRANCH   2  31
HETATM   31  C   UNK N   1      31.706  43.669  56.673  0.00  0.00     0.198 C 
BRANCH  31  32
HETATM   32  O   UNK N   1      32.536  42.951  55.804  0.00  0.00    -0.398 OA
HETATM   33  H   UNK N   1      33.458  43.056  56.157  0.00  0.00     0.209 HD
ENDBRANCH  31  32
ENDBRANCH   2  31
BRANCH   6  34
HETATM   34  O   UNK N   1      27.907  40.566  57.329  0.00  0.00    -0.390 OA
HETATM   35  H   UNK N   1      27.834  39.627  57.646  0.00  0.00     0.210 HD
ENDBRANCH   6  34
BRANCH   1  36
HETATM   36  O   UNK N   1      30.168  41.391  55.797  0.00  0.00    -0.307 OA
BRANCH  36  37
HETATM   37  C   UNK N   1      29.343  40.893  54.835  0.00  0.00     0.293 C 
HETATM   38  O   UNK N   1      29.145  39.691  54.746  0.00  0.00    -0.259 OA
BRANCH  37  39
HETATM   39  C   UNK N   1      28.670  41.832  53.907  0.00  0.00     0.039 A 
HETATM   40  C   UNK N   1      27.404  42.370  54.211  0.00  0.00     0.017 A 
HETATM   41  C   UNK N   1      26.785  43.255  53.321  0.00  0.00     0.001 A 
HETATM   42  C   UNK N   1      27.417  43.608  52.127  0.00  0.00     0.000 A 
HETATM   43  C   UNK N   1      28.672  43.076  51.817  0.00  0.00     0.001 A 
HETATM   44  C   UNK N   1      29.295  42.194  52.701  0.00  0.00     0.017 A 
ENDBRANCH  37  39
ENDBRANCH  36  37
ENDBRANCH   1  36
TORSDOF 14
ENDMDL
MODEL 7
REMARK VINA RESULT:      -6.1      1.870      3.446
REMARK  14 active torsions:
REMARK  status: ('A' for Active; 'I' for Inactive)
REMARK    1  A    between atoms: C_2  and  O_3 
REMARK    2  A    between atoms: C_2  and  C_39 
REMARK    3  A    between atoms: O_3  and  C_4 
REMARK    4  A    between atoms: C_5  and  C_36 
REMARK    5  A    between atoms: C_7  and  C_14 
REMARK    6  A    between atoms: C_8  and  O_9 
REMARK    7  A    between atoms: C_11  and  O_12 
REMARK    8  A    between atoms: C_14  and  C_15 
REMARK    9  A    between atoms: C_17  and  O_18 
REMARK   10  A    between atoms: C_20  and  C_21 
REMARK   11  A    between atoms: C_21  and  C_23 
REMARK   12  A    between atoms: C_25  and  O_26 
REMARK   13  A    between atoms: C_29  and  O_31 
REMARK   14  A    between atoms: C_36  and  O_37 
ROOT
HETATM    1  C   UNK N   1      31.797  43.241  59.681  0.00  0.00     0.194 C 
HETATM    2  C   UNK N   1      30.380  42.632  59.550  0.00  0.00     0.177 C 
HETATM    3  O   UNK N   1      29.681  43.171  58.427  0.00  0.00    -0.373 OA
HETATM    4  C   UNK N   1      30.346  42.918  57.191  0.00  0.00     0.157 C 
HETATM    5  C   UNK N   1      31.792  43.471  57.196  0.00  0.00     0.178 C 
HETATM    6  C   UNK N   1      32.583  42.937  58.396  0.00  0.00     0.181 C 
ENDROOT
BRANCH   4   7
HETATM    7  C   UNK N   1      30.195  41.444  56.724  0.00  0.00     0.073 C 
BRANCH   7   8
HETATM    8  C   UNK N   1      29.244  41.354  55.551  0.00  0.00    -0.052 A 
HETATM    9  C   UNK N   1      27.986  40.750  55.677  0.00  0.00     0.044 A 
HETATM   10  C   UNK N   1      27.108  40.703  54.579  0.00  0.00     0.081 A 
HETATM   11  C   UNK N   1      27.489  41.271  53.349  0.00  0.00     0.054 A 
HETATM   12  C   UNK N   1      28.753  41.885  53.219  0.00  0.00    -0.044 A 
HETATM   13  C   UNK N   1      29.620  41.916  54.319  0.00  0.00     0.015 A 
HETATM   14  C   UNK N   1      29.178  42.521  51.919  0.00  0.00     0.049 C 
BRANCH  10  15
HETATM   15  O   UNK N   1      25.896  40.122  54.702  0.00  0.00    -0.360 OA
HETATM   16  H   UNK N   1      25.748  39.193  54.474  0.00  0.00     0.217 HD
ENDBRANCH  10  15
BRANCH  11  17
HETATM   17  C   UNK N   1      26.547  41.247  52.205  0.00  0.00     0.195 C 
HETATM   18  O   UNK N   1      26.450  40.225  51.543  0.00  0.00    -0.287 OA
BRANCH  17  19
HETATM   19  C   UNK N   1      25.736  42.447  51.857  0.00  0.00     0.020 A 
HETATM   20  C   UNK N   1      25.225  43.280  52.871  0.00  0.00     0.052 A 
HETATM   21  C   UNK N   1      24.463  44.413  52.543  0.00  0.00     0.069 A 
HETATM   22  C   UNK N   1      24.209  44.718  51.203  0.00  0.00     0.073 A 
HETATM   23  C   UNK N   1      24.708  43.899  50.186  0.00  0.00     0.069 A 
HETATM   24  C   UNK N   1      25.468  42.768  50.511  0.00  0.00     0.052 A 
BRANCH  21  25
HETATM   25  O   UNK N   1      23.974  45.215  53.511  0.00  0.00    -0.361 OA
HETATM   26  H   UNK N   1      24.535  45.557  54.222  0.00  0.00     0.217 HD
ENDBRANCH  21  25
BRANCH  23  27
HETATM   27  O   UNK N   1      24.453  44.207  48.899  0.00  0.00    -0.361 OA
HETATM   28  H   UNK N   1      24.748  43.640  48.172  0.00  0.00     0.217 HD
ENDBRANCH  23  27
ENDBRANCH  17  19
ENDBRANCH  11  17
ENDBRANCH   7   8
ENDBRANCH   4   7
BRANCH   5  29
HETATM   29  O   UNK N   1      32.431  43.160  55.983  0.00  0.00    -0.390 OA
HETATM   30  H   UNK N   1      33.405  43.287  56.119  0.00  0.00     0.210 HD
ENDBRANCH   5  29
BRANCH   2  31
HETATM   31  C   UNK N   1      29.569  42.922  60.821  0.00  0.00     0.198 C 
BRANCH  31  32
HETATM   32  O   UNK N   1      29.610  41.811  61.671  0.00  0.00    -0.398 OA
HETATM   33  H   UNK N   1      30.456  41.336  61.459  0.00  0.00     0.209 HD
ENDBRANCH  31  32
ENDBRANCH   2  31
BRANCH   6  34
HETATM   34  O   UNK N   1      33.869  43.505  58.442  0.00  0.00    -0.390 OA
HETATM   35  H   UNK N   1      34.433  43.036  57.771  0.00  0.00     0.210 HD
ENDBRANCH   6  34
BRANCH   1  36
HETATM   36  O   UNK N   1      32.442  42.675  60.769  0.00  0.00    -0.307 OA
BRANCH  36  37
HETATM   37  C   UNK N   1      32.692  43.304  61.951  0.00  0.00     0.293 C 
HETATM   38  O   UNK N   1      31.891  43.241  62.871  0.00  0.00    -0.259 OA
BRANCH  37  39
HETATM   39  C   UNK N   1      33.961  44.052  62.114  0.00  0.00     0.039 A 
HETATM   40  C   UNK N   1      34.087  45.061  63.089  0.00  0.00     0.017 A 
HETATM   41  C   UNK N   1      35.294  45.756  63.229  0.00  0.00     0.001 A 
HETATM   42  C   UNK N   1      36.378  45.455  62.400  0.00  0.00     0.000 A 
HETATM   43  C   UNK N   1      36.259  44.458  61.429  0.00  0.00     0.001 A 
HETATM   44  C   UNK N   1      35.059  43.759  61.286  0.00  0.00     0.017 A 
ENDBRANCH  37  39
ENDBRANCH  36  37
ENDBRANCH   1  36
TORSDOF 14
ENDMDL
MODEL 8
REMARK VINA RESULT:      -5.9      1.547      2.881
REMARK  14 active torsions:
REMARK  status: ('A' for Active; 'I' for Inactive)
REMARK    1  A    between atoms: C_2  and  O_3 
REMARK    2  A    between atoms: C_2  and  C_39 
REMARK    3  A    between atoms: O_3  and  C_4 
REMARK    4  A    between atoms: C_5  and  C_36 
REMARK    5  A    between atoms: C_7  and  C_14 
REMARK    6  A    between atoms: C_8  and  O_9 
REMARK    7  A    between atoms: C_11  and  O_12 
REMARK    8  A    between atoms: C_14  and  C_15 
REMARK    9  A    between atoms: C_17  and  O_18 
REMARK   10  A    between atoms: C_20  and  C_21 
REMARK   11  A    between atoms: C_21  and  C_23 
REMARK   12  A    between atoms: C_25  and  O_26 
REMARK   13  A    between atoms: C_29  and  O_31 
REMARK   14  A    between atoms: C_36  and  O_37 
ROOT
HETATM    1  C   UNK N   1      33.551  44.060  61.921  0.00  0.00     0.194 C 
HETATM    2  C   UNK N   1      32.022  43.961  62.145  0.00  0.00     0.177 C 
HETATM    3  O   UNK N   1      31.296  44.391  60.993  0.00  0.00    -0.373 OA
HETATM    4  C   UNK N   1      31.586  43.610  59.835  0.00  0.00     0.157 C 
HETATM    5  C   UNK N   1      33.099  43.616  59.507  0.00  0.00     0.178 C 
HETATM    6  C   UNK N   1      33.929  43.179  60.720  0.00  0.00     0.181 C 
ENDROOT
BRANCH   4   7
HETATM    7  C   UNK N   1      30.916  42.209  59.878  0.00  0.00     0.073 C 
BRANCH   7   8
HETATM    8  C   UNK N   1      29.958  42.045  58.719  0.00  0.00    -0.052 A 
HETATM    9  C   UNK N   1      30.000  40.913  57.893  0.00  0.00     0.044 A 
HETATM   10  C   UNK N   1      29.081  40.770  56.838  0.00  0.00     0.081 A 
HETATM   11  C   UNK N   1      28.108  41.762  56.613  0.00  0.00     0.054 A 
HETATM   12  C   UNK N   1      28.059  42.901  57.445  0.00  0.00    -0.044 A 
HETATM   13  C   UNK N   1      28.988  43.034  58.486  0.00  0.00     0.015 A 
HETATM   14  C   UNK N   1      27.014  43.969  57.241  0.00  0.00     0.049 C 
BRANCH  10  15
HETATM   15  O   UNK N   1      29.121  39.679  56.044  0.00  0.00    -0.360 OA
HETATM   16  H   UNK N   1      29.954  39.328  55.698  0.00  0.00     0.217 HD
ENDBRANCH  10  15
BRANCH  11  17
HETATM   17  C   UNK N   1      27.122  41.591  55.520  0.00  0.00     0.195 C 
HETATM   18  O   UNK N   1      26.159  40.861  55.702  0.00  0.00    -0.287 OA
BRANCH  17  19
HETATM   19  C   UNK N   1      27.301  42.286  54.214  0.00  0.00     0.020 A 
HETATM   20  C   UNK N   1      28.437  42.032  53.421  0.00  0.00     0.052 A 
HETATM   21  C   UNK N   1      28.604  42.685  52.189  0.00  0.00     0.069 A 
HETATM   22  C   UNK N   1      27.639  43.593  51.746  0.00  0.00     0.073 A 
HETATM   23  C   UNK N   1      26.507  43.856  52.522  0.00  0.00     0.069 A 
HETATM   24  C   UNK N   1      26.339  43.207  53.752  0.00  0.00     0.052 A 
BRANCH  21  25
HETATM   25  O   UNK N   1      29.689  42.442  51.426  0.00  0.00    -0.361 OA
HETATM   26  H   UNK N   1      30.173  41.606  51.479  0.00  0.00     0.217 HD
ENDBRANCH  21  25
BRANCH  23  27
HETATM   27  O   UNK N   1      25.587  44.736  52.080  0.00  0.00    -0.361 OA
HETATM   28  H   UNK N   1      24.735  44.849  52.527  0.00  0.00     0.217 HD
ENDBRANCH  23  27
ENDBRANCH  17  19
ENDBRANCH  11  17
ENDBRANCH   7   8
ENDBRANCH   4   7
BRANCH   5  29
HETATM   29  O   UNK N   1      33.353  42.797  58.393  0.00  0.00    -0.390 OA
HETATM   30  H   UNK N   1      34.301  42.510  58.445  0.00  0.00     0.210 HD
ENDBRANCH   5  29
BRANCH   2  31
HETATM   31  C   UNK N   1      31.613  44.834  63.340  0.00  0.00     0.198 C 
BRANCH  31  32
HETATM   32  O   UNK N   1      31.662  44.078  64.517  0.00  0.00    -0.398 OA
HETATM   33  H   UNK N   1      32.135  43.237  64.281  0.00  0.00     0.209 HD
ENDBRANCH  31  32
ENDBRANCH   2  31
BRANCH   6  34
HETATM   34  O   UNK N   1      35.306  43.264  60.443  0.00  0.00    -0.390 OA
HETATM   35  H   UNK N   1      35.722  43.826  61.149  0.00  0.00     0.210 HD
ENDBRANCH   6  34
BRANCH   1  36
HETATM   36  O   UNK N   1      34.211  43.615  63.055  0.00  0.00    -0.307 OA
BRANCH  36  37
HETATM   37  C   UNK N   1      35.151  44.318  63.745  0.00  0.00     0.293 C 
HETATM   38  O   UNK N   1      35.688  43.837  64.732  0.00  0.00    -0.259 OA
BRANCH  37  39
HETATM   39  C   UNK N   1      35.530  45.671  63.273  0.00  0.00     0.039 A 
HETATM   40  C   UNK N   1      34.815  46.811  63.690  0.00  0.00     0.017 A 
HETATM   41  C   UNK N   1      35.189  48.080  63.233  0.00  0.00     0.001 A 
HETATM   42  C   UNK N   1      36.270  48.222  62.360  0.00  0.00     0.000 A 
HETATM   43  C   UNK N   1      36.982  47.096  61.940  0.00  0.00     0.001 A 
HETATM   44  C   UNK N   1      36.615  45.827  62.394  0.00  0.00     0.017 A 
ENDBRANCH  37  39
ENDBRANCH  36  37
ENDBRANCH   1  36
TORSDOF 14
ENDMDL
MODEL 9
REMARK VINA RESULT:      -5.8     13.001     15.478
REMARK  14 active torsions:
REMARK  status: ('A' for Active; 'I' for Inactive)
REMARK    1  A    between atoms: C_2  and  O_3 
REMARK    2  A    between atoms: C_2  and  C_39 
REMARK    3  A    between atoms: O_3  and  C_4 
REMARK    4  A    between atoms: C_5  and  C_36 
REMARK    5  A    between atoms: C_7  and  C_14 
REMARK    6  A    between atoms: C_8  and  O_9 
REMARK    7  A    between atoms: C_11  and  O_12 
REMARK    8  A    between atoms: C_14  and  C_15 
REMARK    9  A    between atoms: C_17  and  O_18 
REMARK   10  A    between atoms: C_20  and  C_21 
REMARK   11  A    between atoms: C_21  and  C_23 
REMARK   12  A    between atoms: C_25  and  O_26 
REMARK   13  A    between atoms: C_29  and  O_31 
REMARK   14  A    between atoms: C_36  and  O_37 
ROOT
HETATM    1  C   UNK N   1      40.755  45.835  48.990  0.00  0.00     0.194 C 
HETATM    2  C   UNK N   1      39.788  46.294  47.872  0.00  0.00     0.177 C 
HETATM    3  O   UNK N   1      39.754  47.718  47.761  0.00  0.00    -0.373 OA
HETATM    4  C   UNK N   1      41.028  48.277  47.448  0.00  0.00     0.157 C 
HETATM    5  C   UNK N   1      42.100  47.879  48.492  0.00  0.00     0.178 C 
HETATM    6  C   UNK N   1      42.164  46.357  48.664  0.00  0.00     0.181 C 
ENDROOT
BRANCH   4   7
HETATM    7  C   UNK N   1      41.427  48.055  45.963  0.00  0.00     0.073 C 
BRANCH   7   8
HETATM    8  C   UNK N   1      40.305  48.481  45.043  0.00  0.00    -0.052 A 
HETATM    9  C   UNK N   1      39.172  47.678  44.854  0.00  0.00     0.044 A 
HETATM   10  C   UNK N   1      38.129  48.108  44.015  0.00  0.00     0.081 A 
HETATM   11  C   UNK N   1      38.217  49.354  43.365  0.00  0.00     0.054 A 
HETATM   12  C   UNK N   1      39.354  50.168  43.556  0.00  0.00    -0.044 A 
HETATM   13  C   UNK N   1      40.389  49.721  44.388  0.00  0.00     0.015 A 
HETATM   14  C   UNK N   1      39.464  51.517  42.890  0.00  0.00     0.049 C 
BRANCH  10  15
HETATM   15  O   UNK N   1      37.037  47.334  43.835  0.00  0.00    -0.360 OA
HETATM   16  H   UNK N   1      36.183  47.553  44.234  0.00  0.00     0.217 HD
ENDBRANCH  10  15
BRANCH  11  17
HETATM   17  C   UNK N   1      37.100  49.815  42.507  0.00  0.00     0.195 C 
HETATM   18  O   UNK N   1      37.308  50.001  41.317  0.00  0.00    -0.287 OA
BRANCH  17  19
HETATM   19  C   UNK N   1      35.747  50.061  43.080  0.00  0.00     0.020 A 
HETATM   20  C   UNK N   1      34.663  49.234  42.726  0.00  0.00     0.052 A 
HETATM   21  C   UNK N   1      33.388  49.463  43.267  0.00  0.00     0.069 A 
HETATM   22  C   UNK N   1      33.191  50.517  44.164  0.00  0.00     0.073 A 
HETATM   23  C   UNK N   1      34.257  51.346  44.524  0.00  0.00     0.069 A 
HETATM   24  C   UNK N   1      35.529  51.120  43.984  0.00  0.00     0.052 A 
BRANCH  21  25
HETATM   25  O   UNK N   1      32.348  48.673  42.932  0.00  0.00    -0.361 OA
HETATM   26  H   UNK N   1      31.855  48.169  43.596  0.00  0.00     0.217 HD
ENDBRANCH  21  25
BRANCH  23  27
HETATM   27  O   UNK N   1      34.049  52.358  45.389  0.00  0.00    -0.361 OA
HETATM   28  H   UNK N   1      34.704  52.594  46.063  0.00  0.00     0.217 HD
ENDBRANCH  23  27
ENDBRANCH  17  19
ENDBRANCH  11  17
ENDBRANCH   7   8
ENDBRANCH   4   7
BRANCH   5  29
HETATM   29  O   UNK N   1      43.350  48.405  48.124  0.00  0.00    -0.390 OA
HETATM   30  H   UNK N   1      44.046  47.794  48.480  0.00  0.00     0.210 HD
ENDBRANCH   5  29
BRANCH   2  31
HETATM   31  C   UNK N   1      38.369  45.789  48.171  0.00  0.00     0.198 C 
BRANCH  31  32
HETATM   32  O   UNK N   1      38.300  44.410  47.944  0.00  0.00    -0.398 OA
HETATM   33  H   UNK N   1      39.116  44.178  47.426  0.00  0.00     0.209 HD
ENDBRANCH  31  32
ENDBRANCH   2  31
BRANCH   6  34
HETATM   34  O   UNK N   1      43.080  46.004  49.673  0.00  0.00    -0.390 OA
HETATM   35  H   UNK N   1      43.857  45.565  49.235  0.00  0.00     0.210 HD
ENDBRANCH   6  34
BRANCH   1  36
HETATM   36  O   UNK N   1      40.770  44.451  49.046  0.00  0.00    -0.307 OA
BRANCH  36  37
HETATM   37  C   UNK N   1      41.431  43.708  49.976  0.00  0.00     0.293 C 
HETATM   38  O   UNK N   1      42.366  42.992  49.649  0.00  0.00    -0.259 OA
BRANCH  37  39
HETATM   39  C   UNK N   1      41.015  43.792  51.395  0.00  0.00     0.039 A 
HETATM   40  C   UNK N   1      41.634  44.697  52.280  0.00  0.00     0.017 A 
HETATM   41  C   UNK N   1      41.226  44.762  53.617  0.00  0.00     0.001 A 
HETATM   42  C   UNK N   1      40.206  43.928  54.082  0.00  0.00     0.000 A 
HETATM   43  C   UNK N   1      39.590  43.026  53.211  0.00  0.00     0.001 A 
HETATM   44  C   UNK N   1      39.991  42.958  51.875  0.00  0.00     0.017 A 
ENDBRANCH  37  39
ENDBRANCH  36  37
ENDBRANCH   1  36
TORSDOF 14
ENDMDL
