MODEL 1
REMARK VINA RESULT:      -6.1      0.000      0.000
REMARK  7 active torsions:
REMARK  status: ('A' for Active; 'I' for Inactive)
REMARK    1  A    between atoms: C_2  and  O_3 
REMARK    2  A    between atoms: C_2  and  C_22 
REMARK    3  A    between atoms: O_3  and  C_4 
REMARK    4  A    between atoms: C_6  and  O_7 
REMARK    5  A    between atoms: C_6  and  C_9 
REMARK    6  A    between atoms: C_24  and  O_25 
REMARK    7  A    between atoms: C_27  and  O_28 
ROOT
HETATM    1  C   UNK N   1      30.993  52.306  42.114  0.00  0.00     0.142 C 
HETATM    2  C   UNK N   1      31.553  53.680  42.597  0.00  0.00     0.058 C 
HETATM    3  C   UNK N   1      30.589  54.925  42.612  0.00  0.00     0.067 C 
HETATM    4  C   UNK N   1      31.260  55.883  43.660  0.00  0.00     0.039 C 
HETATM    5  C   UNK N   1      32.565  55.209  44.071  0.00  0.00     0.012 C 
HETATM    6  C   UNK N   1      32.255  53.708  43.986  0.00  0.00    -0.033 C 
HETATM    7  C   UNK N   1      33.576  52.888  43.998  0.00  0.00     0.044 C 
HETATM    8  C   UNK N   1      33.359  51.383  44.186  0.00  0.00     0.157 A 
HETATM    9  O   UNK N   1      34.034  50.572  43.235  0.00  0.00    -0.370 OA
HETATM   10  C   UNK N   1      32.629  50.630  43.146  0.00  0.00     0.086 A 
HETATM   11  C   UNK N   1      32.135  51.302  41.863  0.00  0.00     0.073 C 
HETATM   12  C   UNK N   1      31.934  49.340  43.590  0.00  0.00     0.049 C 
HETATM   13  C   UNK N   1      31.340  53.274  45.173  0.00  0.00     0.016 C 
ENDROOT
BRANCH   1  14
HETATM   14  O   UNK N   1      30.332  52.461  40.908  0.00  0.00    -0.311 OA
BRANCH  14  15
HETATM   15  C   UNK N   1      29.306  51.665  40.485  0.00  0.00     0.293 C 
HETATM   16  O   UNK N   1      29.451  50.454  40.396  0.00  0.00    -0.259 OA
BRANCH  15  17
HETATM   17  C   UNK N   1      28.005  52.276  40.138  0.00  0.00     0.042 A 
HETATM   18  C   UNK N   1      27.464  53.282  40.950  0.00  0.00     0.057 A 
HETATM   19  C   UNK N   1      26.214  53.857  40.645  0.00  0.00     0.102 A 
HETATM   20  C   UNK N   1      25.507  53.404  39.518  0.00  0.00     0.099 A 
HETATM   21  C   UNK N   1      26.055  52.408  38.699  0.00  0.00     0.040 A 
HETATM   22  C   UNK N   1      27.298  51.851  39.001  0.00  0.00     0.020 A 
BRANCH  19  23
HETATM   23  O   UNK N   1      25.669  54.841  41.410  0.00  0.00    -0.353 OA
HETATM   24  C   UNK N   1      26.036  56.171  41.367  0.00  0.00     0.210 C 
ENDBRANCH  19  23
BRANCH  20  25
HETATM   25  O   UNK N   1      24.299  53.933  39.230  0.00  0.00    -0.358 OA
HETATM   26  H   UNK N   1      23.817  54.477  39.869  0.00  0.00     0.218 HD
ENDBRANCH  20  25
ENDBRANCH  15  17
ENDBRANCH  14  15
ENDBRANCH   1  14
BRANCH   3  27
HETATM   27  O   UNK N   1      29.340  54.478  43.101  0.00  0.00    -0.389 OA
HETATM   28  H   UNK N   1      29.434  53.547  43.430  0.00  0.00     0.210 HD
ENDBRANCH   3  27
BRANCH   3  29
HETATM   29  C   UNK N   1      30.374  55.611  41.200  0.00  0.00     0.012 C 
HETATM   30  C   UNK N   1      29.644  56.968  41.319  0.00  0.00     0.012 C 
HETATM   31  C   UNK N   1      31.672  55.845  40.395  0.00  0.00     0.012 C 
ENDBRANCH   3  29
TORSDOF 7
ENDMDL
MODEL 2
REMARK VINA RESULT:      -6.0      1.620      2.795
REMARK  7 active torsions:
REMARK  status: ('A' for Active; 'I' for Inactive)
REMARK    1  A    between atoms: C_2  and  O_3 
REMARK    2  A    between atoms: C_2  and  C_22 
REMARK    3  A    between atoms: O_3  and  C_4 
REMARK    4  A    between atoms: C_6  and  O_7 
REMARK    5  A    between atoms: C_6  and  C_9 
REMARK    6  A    between atoms: C_24  and  O_25 
REMARK    7  A    between atoms: C_27  and  O_28 
ROOT
HETATM    1  C   UNK N   1      30.978  52.057  42.226  0.00  0.00     0.142 C 
HETATM    2  C   UNK N   1      32.284  51.994  43.079  0.00  0.00     0.058 C 
HETATM    3  C   UNK N   1      32.492  53.057  44.222  0.00  0.00     0.067 C 
HETATM    4  C   UNK N   1      33.513  52.351  45.185  0.00  0.00     0.039 C 
HETATM    5  C   UNK N   1      33.895  51.042  44.504  0.00  0.00     0.012 C 
HETATM    6  C   UNK N   1      32.627  50.628  43.744  0.00  0.00    -0.033 C 
HETATM    7  C   UNK N   1      32.966  49.529  42.697  0.00  0.00     0.044 C 
HETATM    8  C   UNK N   1      31.727  48.870  42.082  0.00  0.00     0.157 A 
HETATM    9  O   UNK N   1      31.737  48.818  40.663  0.00  0.00    -0.370 OA
HETATM   10  C   UNK N   1      30.810  49.690  41.267  0.00  0.00     0.086 A 
HETATM   11  C   UNK N   1      31.094  51.165  40.975  0.00  0.00     0.073 C 
HETATM   12  C   UNK N   1      29.360  49.208  41.166  0.00  0.00     0.049 C 
HETATM   13  C   UNK N   1      31.542  50.111  44.738  0.00  0.00     0.016 C 
ENDROOT
BRANCH   1  14
HETATM   14  O   UNK N   1      30.771  53.348  41.773  0.00  0.00    -0.311 OA
BRANCH  14  15
HETATM   15  C   UNK N   1      30.269  53.660  40.542  0.00  0.00     0.293 C 
HETATM   16  O   UNK N   1      31.010  54.019  39.637  0.00  0.00    -0.259 OA
BRANCH  15  17
HETATM   17  C   UNK N   1      28.814  53.553  40.300  0.00  0.00     0.042 A 
HETATM   18  C   UNK N   1      27.920  54.328  41.053  0.00  0.00     0.057 A 
HETATM   19  C   UNK N   1      26.529  54.220  40.850  0.00  0.00     0.102 A 
HETATM   20  C   UNK N   1      26.044  53.318  39.889  0.00  0.00     0.099 A 
HETATM   21  C   UNK N   1      26.939  52.554  39.127  0.00  0.00     0.040 A 
HETATM   22  C   UNK N   1      28.315  52.673  39.325  0.00  0.00     0.020 A 
BRANCH  19  23
HETATM   23  O   UNK N   1      25.639  54.966  41.559  0.00  0.00    -0.353 OA
HETATM   24  C   UNK N   1      25.603  56.346  41.579  0.00  0.00     0.210 C 
ENDBRANCH  19  23
BRANCH  20  25
HETATM   25  O   UNK N   1      24.713  53.192  39.703  0.00  0.00    -0.358 OA
HETATM   26  H   UNK N   1      24.231  52.406  39.997  0.00  0.00     0.218 HD
ENDBRANCH  20  25
ENDBRANCH  15  17
ENDBRANCH  14  15
ENDBRANCH   1  14
BRANCH   3  27
HETATM   27  O   UNK N   1      31.247  53.214  44.874  0.00  0.00    -0.389 OA
HETATM   28  H   UNK N   1      30.777  54.001  44.495  0.00  0.00     0.210 HD
ENDBRANCH   3  27
BRANCH   3  29
HETATM   29  C   UNK N   1      32.994  54.474  43.722  0.00  0.00     0.012 C 
HETATM   30  C   UNK N   1      31.851  55.512  43.672  0.00  0.00     0.012 C 
HETATM   31  C   UNK N   1      34.143  55.081  44.561  0.00  0.00     0.012 C 
ENDBRANCH   3  29
TORSDOF 7
ENDMDL
MODEL 3
REMARK VINA RESULT:      -6.0      1.786      6.442
REMARK  7 active torsions:
REMARK  status: ('A' for Active; 'I' for Inactive)
REMARK    1  A    between atoms: C_2  and  O_3 
REMARK    2  A    between atoms: C_2  and  C_22 
REMARK    3  A    between atoms: O_3  and  C_4 
REMARK    4  A    between atoms: C_6  and  O_7 
REMARK    5  A    between atoms: C_6  and  C_9 
REMARK    6  A    between atoms: C_24  and  O_25 
REMARK    7  A    between atoms: C_27  and  O_28 
ROOT
HETATM    1  C   UNK N   1      29.173  53.502  40.404  0.00  0.00     0.142 C 
HETATM    2  C   UNK N   1      28.261  54.172  39.329  0.00  0.00     0.058 C 
HETATM    3  C   UNK N   1      27.233  53.273  38.544  0.00  0.00     0.067 C 
HETATM    4  C   UNK N   1      26.155  54.306  38.058  0.00  0.00     0.039 C 
HETATM    5  C   UNK N   1      26.670  55.679  38.474  0.00  0.00     0.012 C 
HETATM    6  C   UNK N   1      27.436  55.414  39.778  0.00  0.00    -0.033 C 
HETATM    7  C   UNK N   1      28.340  56.631  40.124  0.00  0.00     0.044 C 
HETATM    8  C   UNK N   1      28.933  56.569  41.535  0.00  0.00     0.157 A 
HETATM    9  O   UNK N   1      30.336  56.782  41.589  0.00  0.00    -0.370 OA
HETATM   10  C   UNK N   1      29.873  55.481  41.868  0.00  0.00     0.086 A 
HETATM   11  C   UNK N   1      30.313  54.450  40.827  0.00  0.00     0.073 C 
HETATM   12  C   UNK N   1      29.985  55.097  43.347  0.00  0.00     0.049 C 
HETATM   13  C   UNK N   1      26.440  55.131  40.945  0.00  0.00     0.016 C 
ENDROOT
BRANCH   1  14
HETATM   14  O   UNK N   1      29.774  52.373  39.877  0.00  0.00    -0.311 OA
BRANCH  14  15
HETATM   15  C   UNK N   1      29.605  51.111  40.372  0.00  0.00     0.293 C 
HETATM   16  O   UNK N   1      28.590  50.474  40.126  0.00  0.00    -0.259 OA
BRANCH  15  17
HETATM   17  C   UNK N   1      30.666  50.507  41.207  0.00  0.00     0.042 A 
HETATM   18  C   UNK N   1      31.558  51.330  41.909  0.00  0.00     0.057 A 
HETATM   19  C   UNK N   1      32.589  50.769  42.690  0.00  0.00     0.102 A 
HETATM   20  C   UNK N   1      32.721  49.372  42.752  0.00  0.00     0.099 A 
HETATM   21  C   UNK N   1      31.820  48.550  42.060  0.00  0.00     0.040 A 
HETATM   22  C   UNK N   1      30.795  49.111  41.298  0.00  0.00     0.020 A 
BRANCH  19  23
HETATM   23  O   UNK N   1      33.463  51.542  43.389  0.00  0.00    -0.353 OA
HETATM   24  C   UNK N   1      33.126  52.347  44.459  0.00  0.00     0.210 C 
ENDBRANCH  19  23
BRANCH  20  25
HETATM   25  O   UNK N   1      33.718  48.826  43.479  0.00  0.00    -0.358 OA
HETATM   26  H   UNK N   1      33.866  49.072  44.403  0.00  0.00     0.218 HD
ENDBRANCH  20  25
ENDBRANCH  15  17
ENDBRANCH  14  15
ENDBRANCH   1  14
BRANCH   3  27
HETATM   27  O   UNK N   1      26.659  52.384  39.481  0.00  0.00    -0.389 OA
HETATM   28  H   UNK N   1      27.187  51.545  39.501  0.00  0.00     0.210 HD
ENDBRANCH   3  27
BRANCH   3  29
HETATM   29  C   UNK N   1      27.863  52.434  37.357  0.00  0.00     0.012 C 
HETATM   30  C   UNK N   1      26.787  51.925  36.371  0.00  0.00     0.012 C 
HETATM   31  C   UNK N   1      28.934  53.187  36.535  0.00  0.00     0.012 C 
ENDBRANCH   3  29
TORSDOF 7
ENDMDL
MODEL 4
REMARK VINA RESULT:      -5.6     16.696     19.832
REMARK  7 active torsions:
REMARK  status: ('A' for Active; 'I' for Inactive)
REMARK    1  A    between atoms: C_2  and  O_3 
REMARK    2  A    between atoms: C_2  and  C_22 
REMARK    3  A    between atoms: O_3  and  C_4 
REMARK    4  A    between atoms: C_6  and  O_7 
REMARK    5  A    between atoms: C_6  and  C_9 
REMARK    6  A    between atoms: C_24  and  O_25 
REMARK    7  A    between atoms: C_27  and  O_28 
ROOT
HETATM    1  C   UNK N   1      30.722  45.007  60.243  0.00  0.00     0.142 C 
HETATM    2  C   UNK N   1      30.792  43.449  60.302  0.00  0.00     0.058 C 
HETATM    3  C   UNK N   1      31.281  42.667  59.025  0.00  0.00     0.067 C 
HETATM    4  C   UNK N   1      31.783  41.301  59.615  0.00  0.00     0.039 C 
HETATM    5  C   UNK N   1      31.456  41.340  61.104  0.00  0.00     0.012 C 
HETATM    6  C   UNK N   1      31.594  42.822  61.480  0.00  0.00    -0.033 C 
HETATM    7  C   UNK N   1      30.924  43.088  62.858  0.00  0.00     0.044 C 
HETATM    8  C   UNK N   1      31.243  44.471  63.434  0.00  0.00     0.157 A 
HETATM    9  O   UNK N   1      30.103  45.203  63.861  0.00  0.00    -0.370 OA
HETATM   10  C   UNK N   1      30.773  45.671  62.714  0.00  0.00     0.086 A 
HETATM   11  C   UNK N   1      29.931  45.569  61.441  0.00  0.00     0.073 C 
HETATM   12  C   UNK N   1      31.557  46.966  62.950  0.00  0.00     0.049 C 
HETATM   13  C   UNK N   1      33.097  43.235  61.521  0.00  0.00     0.016 C 
ENDROOT
BRANCH   1  14
HETATM   14  O   UNK N   1      30.048  45.408  59.103  0.00  0.00    -0.311 OA
BRANCH  14  15
HETATM   15  C   UNK N   1      30.567  46.249  58.160  0.00  0.00     0.293 C 
HETATM   16  O   UNK N   1      31.353  45.835  57.319  0.00  0.00    -0.259 OA
BRANCH  15  17
HETATM   17  C   UNK N   1      30.166  47.672  58.153  0.00  0.00     0.042 A 
HETATM   18  C   UNK N   1      30.533  48.499  57.082  0.00  0.00     0.057 A 
HETATM   19  C   UNK N   1      30.179  49.863  57.073  0.00  0.00     0.102 A 
HETATM   20  C   UNK N   1      29.459  50.392  58.157  0.00  0.00     0.099 A 
HETATM   21  C   UNK N   1      29.081  49.562  59.221  0.00  0.00     0.040 A 
HETATM   22  C   UNK N   1      29.425  48.210  59.219  0.00  0.00     0.020 A 
BRANCH  19  23
HETATM   23  O   UNK N   1      30.513  50.686  56.043  0.00  0.00    -0.353 OA
HETATM   24  C   UNK N   1      29.847  50.752  54.835  0.00  0.00     0.210 C 
ENDBRANCH  19  23
BRANCH  20  25
HETATM   25  O   UNK N   1      29.134  51.702  58.168  0.00  0.00    -0.358 OA
HETATM   26  H   UNK N   1      29.046  52.197  58.995  0.00  0.00     0.218 HD
ENDBRANCH  20  25
ENDBRANCH  15  17
ENDBRANCH  14  15
ENDBRANCH   1  14
BRANCH   3  27
HETATM   27  O   UNK N   1      32.373  43.388  58.489  0.00  0.00    -0.389 OA
HETATM   28  H   UNK N   1      33.200  43.138  58.976  0.00  0.00     0.210 HD
ENDBRANCH   3  27
BRANCH   3  29
HETATM   29  C   UNK N   1      30.181  42.485  57.900  0.00  0.00     0.012 C 
HETATM   30  C   UNK N   1      30.786  42.553  56.479  0.00  0.00     0.012 C 
HETATM   31  C   UNK N   1      29.368  41.174  58.002  0.00  0.00     0.012 C 
ENDBRANCH   3  29
TORSDOF 7
ENDMDL
MODEL 5
REMARK VINA RESULT:      -5.3     16.623     19.657
REMARK  7 active torsions:
REMARK  status: ('A' for Active; 'I' for Inactive)
REMARK    1  A    between atoms: C_2  and  O_3 
REMARK    2  A    between atoms: C_2  and  C_22 
REMARK    3  A    between atoms: O_3  and  C_4 
REMARK    4  A    between atoms: C_6  and  O_7 
REMARK    5  A    between atoms: C_6  and  C_9 
REMARK    6  A    between atoms: C_24  and  O_25 
REMARK    7  A    between atoms: C_27  and  O_28 
ROOT
HETATM    1  C   UNK N   1      30.604  44.701  59.573  0.00  0.00     0.142 C 
HETATM    2  C   UNK N   1      31.856  44.395  60.455  0.00  0.00     0.058 C 
HETATM    3  C   UNK N   1      31.701  44.425  62.022  0.00  0.00     0.067 C 
HETATM    4  C   UNK N   1      32.892  43.528  62.514  0.00  0.00     0.039 C 
HETATM    5  C   UNK N   1      33.683  43.156  61.264  0.00  0.00     0.012 C 
HETATM    6  C   UNK N   1      32.622  43.073  60.159  0.00  0.00    -0.033 C 
HETATM    7  C   UNK N   1      33.304  43.084  58.761  0.00  0.00     0.044 C 
HETATM    8  C   UNK N   1      32.350  42.737  57.614  0.00  0.00     0.157 A 
HETATM    9  O   UNK N   1      32.381  43.655  56.531  0.00  0.00    -0.370 OA
HETATM   10  C   UNK N   1      31.219  43.642  57.326  0.00  0.00     0.086 A 
HETATM   11  C   UNK N   1      31.009  44.941  58.106  0.00  0.00     0.073 C 
HETATM   12  C   UNK N   1      30.005  43.025  56.625  0.00  0.00     0.049 C 
HETATM   13  C   UNK N   1      31.760  41.784  60.328  0.00  0.00     0.016 C 
ENDROOT
BRANCH   1  14
HETATM   14  O   UNK N   1      29.990  45.862  60.009  0.00  0.00    -0.311 OA
BRANCH  14  15
HETATM   15  C   UNK N   1      28.961  46.478  59.357  0.00  0.00     0.293 C 
HETATM   16  O   UNK N   1      27.988  45.840  58.981  0.00  0.00    -0.259 OA
BRANCH  15  17
HETATM   17  C   UNK N   1      29.022  47.936  59.112  0.00  0.00     0.042 A 
HETATM   18  C   UNK N   1      29.425  48.420  57.859  0.00  0.00     0.057 A 
HETATM   19  C   UNK N   1      29.511  49.806  57.618  0.00  0.00     0.102 A 
HETATM   20  C   UNK N   1      29.197  50.703  58.652  0.00  0.00     0.099 A 
HETATM   21  C   UNK N   1      28.782  50.218  59.901  0.00  0.00     0.040 A 
HETATM   22  C   UNK N   1      28.688  48.845  60.129  0.00  0.00     0.020 A 
BRANCH  19  23
HETATM   23  O   UNK N   1      29.889  50.303  56.410  0.00  0.00    -0.353 OA
HETATM   24  C   UNK N   1      31.107  50.066  55.804  0.00  0.00     0.210 C 
ENDBRANCH  19  23
BRANCH  20  25
HETATM   25  O   UNK N   1      29.297  52.031  58.438  0.00  0.00    -0.358 OA
HETATM   26  H   UNK N   1      29.026  52.433  57.601  0.00  0.00     0.218 HD
ENDBRANCH  20  25
ENDBRANCH  15  17
ENDBRANCH  14  15
ENDBRANCH   1  14
BRANCH   3  27
HETATM   27  O   UNK N   1      30.471  43.802  62.330  0.00  0.00    -0.389 OA
HETATM   28  H   UNK N   1      30.071  44.243  63.122  0.00  0.00     0.210 HD
ENDBRANCH   3  27
BRANCH   3  29
HETATM   29  C   UNK N   1      31.719  45.875  62.659  0.00  0.00     0.012 C 
HETATM   30  C   UNK N   1      30.503  46.119  63.581  0.00  0.00     0.012 C 
HETATM   31  C   UNK N   1      32.994  46.207  63.467  0.00  0.00     0.012 C 
ENDBRANCH   3  29
TORSDOF 7
ENDMDL
MODEL 6
REMARK VINA RESULT:      -5.2     15.450     18.680
REMARK  7 active torsions:
REMARK  status: ('A' for Active; 'I' for Inactive)
REMARK    1  A    between atoms: C_2  and  O_3 
REMARK    2  A    between atoms: C_2  and  C_22 
REMARK    3  A    between atoms: O_3  and  C_4 
REMARK    4  A    between atoms: C_6  and  O_7 
REMARK    5  A    between atoms: C_6  and  C_9 
REMARK    6  A    between atoms: C_24  and  O_25 
REMARK    7  A    between atoms: C_27  and  O_28 
ROOT
HETATM    1  C   UNK N   1      29.285  43.366  57.086  0.00  0.00     0.142 C 
HETATM    2  C   UNK N   1      27.796  43.097  57.471  0.00  0.00     0.058 C 
HETATM    3  C   UNK N   1      26.903  44.312  57.927  0.00  0.00     0.067 C 
HETATM    4  C   UNK N   1      25.443  43.808  57.642  0.00  0.00     0.039 C 
HETATM    5  C   UNK N   1      25.581  42.363  57.175  0.00  0.00     0.012 C 
HETATM    6  C   UNK N   1      26.924  42.335  56.431  0.00  0.00    -0.033 C 
HETATM    7  C   UNK N   1      27.392  40.866  56.230  0.00  0.00     0.044 C 
HETATM    8  C   UNK N   1      28.579  40.730  55.269  0.00  0.00     0.157 A 
HETATM    9  O   UNK N   1      29.653  39.951  55.776  0.00  0.00    -0.370 OA
HETATM   10  C   UNK N   1      29.873  41.337  55.642  0.00  0.00     0.086 A 
HETATM   11  C   UNK N   1      30.074  42.046  56.982  0.00  0.00     0.073 C 
HETATM   12  C   UNK N   1      30.819  41.698  54.493  0.00  0.00     0.049 C 
HETATM   13  C   UNK N   1      26.798  43.055  55.053  0.00  0.00     0.016 C 
ENDROOT
BRANCH   1  14
HETATM   14  O   UNK N   1      29.900  44.118  58.071  0.00  0.00    -0.311 OA
BRANCH  14  15
HETATM   15  C   UNK N   1      30.749  45.159  57.825  0.00  0.00     0.293 C 
HETATM   16  O   UNK N   1      31.825  44.972  57.276  0.00  0.00    -0.259 OA
BRANCH  15  17
HETATM   17  C   UNK N   1      30.356  46.528  58.224  0.00  0.00     0.042 A 
HETATM   18  C   UNK N   1      30.418  47.574  57.293  0.00  0.00     0.057 A 
HETATM   19  C   UNK N   1      30.068  48.889  57.664  0.00  0.00     0.102 A 
HETATM   20  C   UNK N   1      29.666  49.144  58.986  0.00  0.00     0.099 A 
HETATM   21  C   UNK N   1      29.592  48.095  59.912  0.00  0.00     0.040 A 
HETATM   22  C   UNK N   1      29.928  46.794  59.535  0.00  0.00     0.020 A 
BRANCH  19  23
HETATM   23  O   UNK N   1      30.110  49.921  56.780  0.00  0.00    -0.353 OA
HETATM   24  C   UNK N   1      31.101  50.116  55.839  0.00  0.00     0.210 C 
ENDBRANCH  19  23
BRANCH  20  25
HETATM   25  O   UNK N   1      29.351  50.402  59.357  0.00  0.00    -0.358 OA
HETATM   26  H   UNK N   1      29.966  51.138  59.232  0.00  0.00     0.218 HD
ENDBRANCH  20  25
ENDBRANCH  15  17
ENDBRANCH  14  15
ENDBRANCH   1  14
BRANCH   3  27
HETATM   27  O   UNK N   1      27.211  45.397  57.074  0.00  0.00    -0.389 OA
HETATM   28  H   UNK N   1      27.992  45.158  56.512  0.00  0.00     0.210 HD
ENDBRANCH   3  27
BRANCH   3  29
HETATM   29  C   UNK N   1      27.117  44.762  59.431  0.00  0.00     0.012 C 
HETATM   30  C   UNK N   1      25.963  45.653  59.941  0.00  0.00     0.012 C 
HETATM   31  C   UNK N   1      27.288  43.596  60.432  0.00  0.00     0.012 C 
ENDBRANCH   3  29
TORSDOF 7
ENDMDL
MODEL 7
REMARK VINA RESULT:      -5.1     18.550     22.555
REMARK  7 active torsions:
REMARK  status: ('A' for Active; 'I' for Inactive)
REMARK    1  A    between atoms: C_2  and  O_3 
REMARK    2  A    between atoms: C_2  and  C_22 
REMARK    3  A    between atoms: O_3  and  C_4 
REMARK    4  A    between atoms: C_6  and  O_7 
REMARK    5  A    between atoms: C_6  and  C_9 
REMARK    6  A    between atoms: C_24  and  O_25 
REMARK    7  A    between atoms: C_27  and  O_28 
ROOT
HETATM    1  C   UNK N   1      31.604  42.451  59.488  0.00  0.00     0.142 C 
HETATM    2  C   UNK N   1      30.719  41.226  59.096  0.00  0.00     0.058 C 
HETATM    3  C   UNK N   1      29.918  40.480  60.229  0.00  0.00     0.067 C 
HETATM    4  C   UNK N   1      28.757  39.776  59.439  0.00  0.00     0.039 C 
HETATM    5  C   UNK N   1      29.023  40.054  57.964  0.00  0.00     0.012 C 
HETATM    6  C   UNK N   1      29.682  41.441  57.956  0.00  0.00    -0.033 C 
HETATM    7  C   UNK N   1      30.360  41.701  56.580  0.00  0.00     0.044 C 
HETATM    8  C   UNK N   1      30.808  43.154  56.388  0.00  0.00     0.157 A 
HETATM    9  O   UNK N   1      32.153  43.297  55.954  0.00  0.00    -0.370 OA
HETATM   10  C   UNK N   1      31.857  43.702  57.270  0.00  0.00     0.086 A 
HETATM   11  C   UNK N   1      32.545  42.843  58.333  0.00  0.00     0.073 C 
HETATM   12  C   UNK N   1      31.871  45.222  57.461  0.00  0.00     0.049 C 
HETATM   13  C   UNK N   1      28.623  42.547  58.254  0.00  0.00     0.016 C 
ENDROOT
BRANCH   1  14
HETATM   14  O   UNK N   1      32.412  42.126  60.564  0.00  0.00    -0.311 OA
BRANCH  14  15
HETATM   15  C   UNK N   1      32.525  42.881  61.696  0.00  0.00     0.293 C 
HETATM   16  O   UNK N   1      31.615  42.926  62.511  0.00  0.00    -0.259 OA
BRANCH  15  17
HETATM   17  C   UNK N   1      33.767  43.647  61.939  0.00  0.00     0.042 A 
HETATM   18  C   UNK N   1      33.876  44.464  63.073  0.00  0.00     0.057 A 
HETATM   19  C   UNK N   1      35.044  45.218  63.306  0.00  0.00     0.102 A 
HETATM   20  C   UNK N   1      36.100  45.150  62.382  0.00  0.00     0.099 A 
HETATM   21  C   UNK N   1      35.996  44.322  61.255  0.00  0.00     0.040 A 
HETATM   22  C   UNK N   1      34.841  43.570  61.037  0.00  0.00     0.020 A 
BRANCH  19  23
HETATM   23  O   UNK N   1      35.181  46.012  64.402  0.00  0.00    -0.353 OA
HETATM   24  C   UNK N   1      34.517  45.829  65.599  0.00  0.00     0.210 C 
ENDBRANCH  19  23
BRANCH  20  25
HETATM   25  O   UNK N   1      37.214  45.885  62.585  0.00  0.00    -0.358 OA
HETATM   26  H   UNK N   1      37.436  46.638  62.019  0.00  0.00     0.218 HD
ENDBRANCH  20  25
ENDBRANCH  15  17
ENDBRANCH  14  15
ENDBRANCH   1  14
BRANCH   3  27
HETATM   27  O   UNK N   1      29.385  41.472  61.083  0.00  0.00    -0.389 OA
HETATM   28  H   UNK N   1      28.847  42.109  60.546  0.00  0.00     0.210 HD
ENDBRANCH   3  27
BRANCH   3  29
HETATM   29  C   UNK N   1      30.780  39.467  61.090  0.00  0.00     0.012 C 
HETATM   30  C   UNK N   1      29.896  38.471  61.873  0.00  0.00     0.012 C 
HETATM   31  C   UNK N   1      31.807  38.645  60.277  0.00  0.00     0.012 C 
ENDBRANCH   3  29
TORSDOF 7
ENDMDL
MODEL 8
REMARK VINA RESULT:      -5.1     16.311     19.523
REMARK  7 active torsions:
REMARK  status: ('A' for Active; 'I' for Inactive)
REMARK    1  A    between atoms: C_2  and  O_3 
REMARK    2  A    between atoms: C_2  and  C_22 
REMARK    3  A    between atoms: O_3  and  C_4 
REMARK    4  A    between atoms: C_6  and  O_7 
REMARK    5  A    between atoms: C_6  and  C_9 
REMARK    6  A    between atoms: C_24  and  O_25 
REMARK    7  A    between atoms: C_27  and  O_28 
ROOT
HETATM    1  C   UNK N   1      29.770  43.416  58.370  0.00  0.00     0.142 C 
HETATM    2  C   UNK N   1      30.514  42.171  58.947  0.00  0.00     0.058 C 
HETATM    3  C   UNK N   1      31.212  42.294  60.354  0.00  0.00     0.067 C 
HETATM    4  C   UNK N   1      31.295  40.803  60.842  0.00  0.00     0.039 C 
HETATM    5  C   UNK N   1      30.773  39.954  59.688  0.00  0.00     0.012 C 
HETATM    6  C   UNK N   1      29.712  40.839  59.020  0.00  0.00    -0.033 C 
HETATM    7  C   UNK N   1      29.362  40.282  57.610  0.00  0.00     0.044 C 
HETATM    8  C   UNK N   1      28.129  40.941  56.983  0.00  0.00     0.157 A 
HETATM    9  O   UNK N   1      28.326  41.402  55.655  0.00  0.00    -0.370 OA
HETATM   10  C   UNK N   1      28.175  42.380  56.658  0.00  0.00     0.086 A 
HETATM   11  C   UNK N   1      29.437  43.216  56.878  0.00  0.00     0.073 C 
HETATM   12  C   UNK N   1      26.832  43.115  56.598  0.00  0.00     0.049 C 
HETATM   13  C   UNK N   1      28.429  40.914  59.905  0.00  0.00     0.016 C 
ENDROOT
BRANCH   1  14
HETATM   14  O   UNK N   1      30.584  44.532  58.446  0.00  0.00    -0.311 OA
BRANCH  14  15
HETATM   15  C   UNK N   1      30.251  45.683  59.102  0.00  0.00     0.293 C 
HETATM   16  O   UNK N   1      30.537  45.836  60.281  0.00  0.00    -0.259 OA
BRANCH  15  17
HETATM   17  C   UNK N   1      29.543  46.757  58.372  0.00  0.00     0.042 A 
HETATM   18  C   UNK N   1      30.246  47.889  57.936  0.00  0.00     0.057 A 
HETATM   19  C   UNK N   1      29.580  48.932  57.260  0.00  0.00     0.102 A 
HETATM   20  C   UNK N   1      28.197  48.831  57.035  0.00  0.00     0.099 A 
HETATM   21  C   UNK N   1      27.498  47.693  57.460  0.00  0.00     0.040 A 
HETATM   22  C   UNK N   1      28.165  46.659  58.119  0.00  0.00     0.020 A 
BRANCH  19  23
HETATM   23  O   UNK N   1      30.238  50.037  56.818  0.00  0.00    -0.353 OA
HETATM   24  C   UNK N   1      31.148  50.053  55.780  0.00  0.00     0.210 C 
ENDBRANCH  19  23
BRANCH  20  25
HETATM   25  O   UNK N   1      27.547  49.834  56.409  0.00  0.00    -0.358 OA
HETATM   26  H   UNK N   1      26.748  50.232  56.782  0.00  0.00     0.218 HD
ENDBRANCH  20  25
ENDBRANCH  15  17
ENDBRANCH  14  15
ENDBRANCH   1  14
BRANCH   3  27
HETATM   27  O   UNK N   1      30.335  43.024  61.189  0.00  0.00    -0.389 OA
HETATM   28  H   UNK N   1      30.779  43.193  62.060  0.00  0.00     0.210 HD
ENDBRANCH   3  27
BRANCH   3  29
HETATM   29  C   UNK N   1      32.622  43.014  60.332  0.00  0.00     0.012 C 
HETATM   30  C   UNK N   1      33.095  43.411  61.748  0.00  0.00     0.012 C 
HETATM   31  C   UNK N   1      33.753  42.192  59.672  0.00  0.00     0.012 C 
ENDBRANCH   3  29
TORSDOF 7
ENDMDL
MODEL 9
REMARK VINA RESULT:      -4.9     17.018     20.837
REMARK  7 active torsions:
REMARK  status: ('A' for Active; 'I' for Inactive)
REMARK    1  A    between atoms: C_2  and  O_3 
REMARK    2  A    between atoms: C_2  and  C_22 
REMARK    3  A    between atoms: O_3  and  C_4 
REMARK    4  A    between atoms: C_6  and  O_7 
REMARK    5  A    between atoms: C_6  and  C_9 
REMARK    6  A    between atoms: C_24  and  O_25 
REMARK    7  A    between atoms: C_27  and  O_28 
ROOT
HETATM    1  C   UNK N   1      29.949  40.654  57.261  0.00  0.00     0.142 C 
HETATM    2  C   UNK N   1      28.943  40.257  56.136  0.00  0.00     0.058 C 
HETATM    3  C   UNK N   1      29.173  40.822  54.684  0.00  0.00     0.067 C 
HETATM    4  C   UNK N   1      28.409  39.792  53.776  0.00  0.00     0.039 C 
HETATM    5  C   UNK N   1      27.726  38.817  54.730  0.00  0.00     0.012 C 
HETATM    6  C   UNK N   1      28.679  38.736  55.931  0.00  0.00    -0.033 C 
HETATM    7  C   UNK N   1      27.952  38.093  57.146  0.00  0.00     0.044 C 
HETATM    8  C   UNK N   1      28.895  37.729  58.298  0.00  0.00     0.157 A 
HETATM    9  O   UNK N   1      28.474  38.203  59.569  0.00  0.00    -0.370 OA
HETATM   10  C   UNK N   1      29.612  38.810  59.003  0.00  0.00     0.086 A 
HETATM   11  C   UNK N   1      29.397  40.283  58.651  0.00  0.00     0.073 C 
HETATM   12  C   UNK N   1      30.920  38.426  59.701  0.00  0.00     0.049 C 
HETATM   13  C   UNK N   1      29.950  37.911  55.563  0.00  0.00     0.016 C 
ENDROOT
BRANCH   1  14
HETATM   14  O   UNK N   1      30.138  42.025  57.265  0.00  0.00    -0.311 OA
BRANCH  14  15
HETATM   15  C   UNK N   1      31.361  42.633  57.280  0.00  0.00     0.293 C 
HETATM   16  O   UNK N   1      31.897  42.986  56.240  0.00  0.00    -0.259 OA
BRANCH  15  17
HETATM   17  C   UNK N   1      32.039  42.871  58.573  0.00  0.00     0.042 A 
HETATM   18  C   UNK N   1      31.321  43.399  59.655  0.00  0.00     0.057 A 
HETATM   19  C   UNK N   1      31.960  43.653  60.886  0.00  0.00     0.102 A 
HETATM   20  C   UNK N   1      33.331  43.380  61.016  0.00  0.00     0.099 A 
HETATM   21  C   UNK N   1      34.046  42.840  59.938  0.00  0.00     0.040 A 
HETATM   22  C   UNK N   1      33.405  42.580  58.726  0.00  0.00     0.020 A 
BRANCH  19  23
HETATM   23  O   UNK N   1      31.286  44.156  61.955  0.00  0.00    -0.353 OA
HETATM   24  C   UNK N   1      30.567  45.335  61.953  0.00  0.00     0.210 C 
ENDBRANCH  19  23
BRANCH  20  25
HETATM   25  O   UNK N   1      33.956  43.641  62.183  0.00  0.00    -0.358 OA
HETATM   26  H   UNK N   1      34.625  43.043  62.546  0.00  0.00     0.218 HD
ENDBRANCH  20  25
ENDBRANCH  15  17
ENDBRANCH  14  15
ENDBRANCH   1  14
BRANCH   3  27
HETATM   27  O   UNK N   1      30.561  40.752  54.426  0.00  0.00    -0.389 OA
HETATM   28  H   UNK N   1      31.058  40.969  55.256  0.00  0.00     0.210 HD
ENDBRANCH   3  27
BRANCH   3  29
HETATM   29  C   UNK N   1      28.683  42.313  54.470  0.00  0.00     0.012 C 
HETATM   30  C   UNK N   1      28.501  42.656  52.974  0.00  0.00     0.012 C 
HETATM   31  C   UNK N   1      27.365  42.667  55.197  0.00  0.00     0.012 C 
ENDBRANCH   3  29
TORSDOF 7
ENDMDL
