MODEL 1
REMARK VINA RESULT:      -6.8      0.000      0.000
REMARK  3 active torsions:
REMARK  status: ('A' for Active; 'I' for Inactive)
REMARK    1  A    between atoms: C_11  and  C_12 
REMARK    2  A    between atoms: C_12  and  C_13 
REMARK    3  A    between atoms: C_13  and  O_15 
ROOT
HETATM    1  O   UNK N   1      38.488  45.711  45.803  0.00  0.00    -0.288 OA
HETATM    2  C   UNK N   1      39.290  45.231  46.590  0.00  0.00     0.177 C 
HETATM    3  C   UNK N   1      39.016  45.209  48.049  0.00  0.00    -0.012 C 
HETATM    4  C   UNK N   1      38.004  45.931  48.568  0.00  0.00     0.023 C 
HETATM    5  C   UNK N   1      39.936  44.318  48.883  0.00  0.00     0.034 C 
HETATM    6  C   UNK N   1      41.421  44.550  48.460  0.00  0.00    -0.018 C 
HETATM    7  C   UNK N   1      41.548  44.322  46.952  0.00  0.00    -0.013 C 
HETATM    8  C   UNK N   1      40.565  44.668  46.094  0.00  0.00     0.052 C 
HETATM    9  C   UNK N   1      42.320  43.520  49.202  0.00  0.00     0.014 C 
HETATM   10  C   UNK N   1      42.141  43.564  50.731  0.00  0.00     0.010 C 
HETATM   11  C   UNK N   1      40.657  43.357  51.113  0.00  0.00     0.025 C 
HETATM   12  C   UNK N   1      39.751  44.391  50.418  0.00  0.00     0.020 C 
HETATM   13  C   UNK N   1      41.895  45.996  48.752  0.00  0.00     0.020 C 
ENDROOT
BRANCH  11  14
HETATM   14  C   UNK N   1      40.433  43.380  52.623  0.00  0.00     0.010 C 
HETATM   15  C   UNK N   1      39.336  42.811  53.166  0.00  0.00     0.026 C 
BRANCH  14  16
HETATM   16  C   UNK N   1      41.456  44.008  53.511  0.00  0.00     0.171 C 
HETATM   17  O   UNK N   1      41.489  45.220  53.660  0.00  0.00    -0.646 OA
BRANCH  16  18
HETATM   18  O   UNK N   1      42.325  43.230  54.194  0.00  0.00    -0.773 OA
HETATM   19  H   UNK N   1      43.256  43.173  53.938  0.00  0.00     0.167 HD
ENDBRANCH  16  18
ENDBRANCH  14  16
ENDBRANCH  11  14
TORSDOF 3
ENDMDL
MODEL 2
REMARK VINA RESULT:      -6.4      3.383      5.543
REMARK  3 active torsions:
REMARK  status: ('A' for Active; 'I' for Inactive)
REMARK    1  A    between atoms: C_11  and  C_12 
REMARK    2  A    between atoms: C_12  and  C_13 
REMARK    3  A    between atoms: C_13  and  O_15 
ROOT
HETATM    1  O   UNK N   1      38.216  46.168  49.029  0.00  0.00    -0.288 OA
HETATM    2  C   UNK N   1      38.983  45.873  48.125  0.00  0.00     0.177 C 
HETATM    3  C   UNK N   1      39.930  44.738  48.260  0.00  0.00    -0.012 C 
HETATM    4  C   UNK N   1      40.144  44.162  49.458  0.00  0.00     0.023 C 
HETATM    5  C   UNK N   1      40.606  44.281  46.967  0.00  0.00     0.034 C 
HETATM    6  C   UNK N   1      41.123  45.524  46.175  0.00  0.00    -0.018 C 
HETATM    7  C   UNK N   1      39.955  46.488  45.949  0.00  0.00    -0.013 C 
HETATM    8  C   UNK N   1      38.986  46.661  46.872  0.00  0.00     0.052 C 
HETATM    9  C   UNK N   1      41.658  45.050  44.793  0.00  0.00     0.014 C 
HETATM   10  C   UNK N   1      42.734  43.954  44.914  0.00  0.00     0.010 C 
HETATM   11  C   UNK N   1      42.199  42.752  45.725  0.00  0.00     0.025 C 
HETATM   12  C   UNK N   1      41.697  43.192  47.114  0.00  0.00     0.020 C 
HETATM   13  C   UNK N   1      42.220  46.299  46.947  0.00  0.00     0.020 C 
ENDROOT
BRANCH  11  14
HETATM   14  C   UNK N   1      43.229  41.633  45.860  0.00  0.00     0.010 C 
HETATM   15  C   UNK N   1      42.890  40.447  46.408  0.00  0.00     0.026 C 
BRANCH  14  16
HETATM   16  C   UNK N   1      44.616  41.842  45.349  0.00  0.00     0.171 C 
HETATM   17  O   UNK N   1      45.501  42.229  46.096  0.00  0.00    -0.646 OA
BRANCH  16  18
HETATM   18  O   UNK N   1      44.910  41.557  44.061  0.00  0.00    -0.773 OA
HETATM   19  H   UNK N   1      44.221  41.291  43.436  0.00  0.00     0.167 HD
ENDBRANCH  16  18
ENDBRANCH  14  16
ENDBRANCH  11  14
TORSDOF 3
ENDMDL
MODEL 3
REMARK VINA RESULT:      -5.8     14.017     16.467
REMARK  3 active torsions:
REMARK  status: ('A' for Active; 'I' for Inactive)
REMARK    1  A    between atoms: C_11  and  C_12 
REMARK    2  A    between atoms: C_12  and  C_13 
REMARK    3  A    between atoms: C_13  and  O_15 
ROOT
HETATM    1  O   UNK N   1      28.909  52.509  37.994  0.00  0.00    -0.288 OA
HETATM    2  C   UNK N   1      29.147  53.337  38.860  0.00  0.00     0.177 C 
HETATM    3  C   UNK N   1      29.850  52.960  40.112  0.00  0.00    -0.012 C 
HETATM    4  C   UNK N   1      30.023  51.664  40.437  0.00  0.00     0.023 C 
HETATM    5  C   UNK N   1      30.358  54.123  40.963  0.00  0.00     0.034 C 
HETATM    6  C   UNK N   1      29.241  55.207  41.096  0.00  0.00    -0.018 C 
HETATM    7  C   UNK N   1      28.788  55.625  39.694  0.00  0.00    -0.013 C 
HETATM    8  C   UNK N   1      28.722  54.743  38.675  0.00  0.00     0.052 C 
HETATM    9  C   UNK N   1      29.832  56.448  41.824  0.00  0.00     0.014 C 
HETATM   10  C   UNK N   1      30.461  56.097  43.186  0.00  0.00     0.010 C 
HETATM   11  C   UNK N   1      31.542  55.004  43.022  0.00  0.00     0.025 C 
HETATM   12  C   UNK N   1      30.969  53.749  42.336  0.00  0.00     0.020 C 
HETATM   13  C   UNK N   1      27.994  54.677  41.847  0.00  0.00     0.020 C 
ENDROOT
BRANCH  11  14
HETATM   14  C   UNK N   1      32.203  54.633  44.348  0.00  0.00     0.010 C 
HETATM   15  C   UNK N   1      31.656  53.697  45.152  0.00  0.00     0.026 C 
BRANCH  14  16
HETATM   16  C   UNK N   1      33.486  55.288  44.741  0.00  0.00     0.171 C 
HETATM   17  O   UNK N   1      33.592  55.848  45.820  0.00  0.00    -0.646 OA
BRANCH  16  18
HETATM   18  O   UNK N   1      34.556  55.222  43.917  0.00  0.00    -0.773 OA
HETATM   19  H   UNK N   1      34.602  55.754  43.110  0.00  0.00     0.167 HD
ENDBRANCH  16  18
ENDBRANCH  14  16
ENDBRANCH  11  14
TORSDOF 3
ENDMDL
MODEL 4
REMARK VINA RESULT:      -5.8      2.853      7.075
REMARK  3 active torsions:
REMARK  status: ('A' for Active; 'I' for Inactive)
REMARK    1  A    between atoms: C_11  and  C_12 
REMARK    2  A    between atoms: C_12  and  C_13 
REMARK    3  A    between atoms: C_13  and  O_15 
ROOT
HETATM    1  O   UNK N   1      43.118  45.301  50.243  0.00  0.00    -0.288 OA
HETATM    2  C   UNK N   1      42.225  45.357  49.411  0.00  0.00     0.177 C 
HETATM    3  C   UNK N   1      41.830  46.648  48.792  0.00  0.00    -0.012 C 
HETATM    4  C   UNK N   1      42.266  47.815  49.303  0.00  0.00     0.023 C 
HETATM    5  C   UNK N   1      40.932  46.545  47.559  0.00  0.00     0.034 C 
HETATM    6  C   UNK N   1      39.781  45.525  47.829  0.00  0.00    -0.018 C 
HETATM    7  C   UNK N   1      40.393  44.188  48.255  0.00  0.00    -0.013 C 
HETATM    8  C   UNK N   1      41.509  44.125  49.011  0.00  0.00     0.052 C 
HETATM    9  C   UNK N   1      38.980  45.314  46.512  0.00  0.00     0.014 C 
HETATM   10  C   UNK N   1      38.454  46.634  45.916  0.00  0.00     0.010 C 
HETATM   11  C   UNK N   1      39.615  47.629  45.686  0.00  0.00     0.025 C 
HETATM   12  C   UNK N   1      40.401  47.882  46.988  0.00  0.00     0.020 C 
HETATM   13  C   UNK N   1      38.840  45.988  48.970  0.00  0.00     0.020 C 
ENDROOT
BRANCH  11  14
HETATM   14  C   UNK N   1      39.143  48.949  45.083  0.00  0.00     0.010 C 
HETATM   15  C   UNK N   1      39.038  50.057  45.846  0.00  0.00     0.026 C 
BRANCH  14  16
HETATM   16  C   UNK N   1      38.826  49.023  43.625  0.00  0.00     0.171 C 
HETATM   17  O   UNK N   1      39.606  49.548  42.846  0.00  0.00    -0.646 OA
BRANCH  16  18
HETATM   18  O   UNK N   1      37.690  48.463  43.154  0.00  0.00    -0.773 OA
HETATM   19  H   UNK N   1      37.456  48.517  42.216  0.00  0.00     0.167 HD
ENDBRANCH  16  18
ENDBRANCH  14  16
ENDBRANCH  11  14
TORSDOF 3
ENDMDL
MODEL 5
REMARK VINA RESULT:      -5.8      2.276      6.172
REMARK  3 active torsions:
REMARK  status: ('A' for Active; 'I' for Inactive)
REMARK    1  A    between atoms: C_11  and  C_12 
REMARK    2  A    between atoms: C_12  and  C_13 
REMARK    3  A    between atoms: C_13  and  O_15 
ROOT
HETATM    1  O   UNK N   1      41.880  43.608  52.330  0.00  0.00    -0.288 OA
HETATM    2  C   UNK N   1      41.542  43.848  51.181  0.00  0.00     0.177 C 
HETATM    3  C   UNK N   1      41.760  45.188  50.578  0.00  0.00    -0.012 C 
HETATM    4  C   UNK N   1      42.105  46.238  51.349  0.00  0.00     0.023 C 
HETATM    5  C   UNK N   1      41.584  45.269  49.062  0.00  0.00     0.034 C 
HETATM    6  C   UNK N   1      40.277  44.526  48.642  0.00  0.00    -0.018 C 
HETATM    7  C   UNK N   1      40.329  43.092  49.177  0.00  0.00    -0.013 C 
HETATM    8  C   UNK N   1      40.892  42.797  50.367  0.00  0.00     0.052 C 
HETATM    9  C   UNK N   1      40.204  44.481  47.089  0.00  0.00     0.014 C 
HETATM   10  C   UNK N   1      40.306  45.877  46.446  0.00  0.00     0.010 C 
HETATM   11  C   UNK N   1      41.597  46.595  46.903  0.00  0.00     0.025 C 
HETATM   12  C   UNK N   1      41.673  46.684  48.440  0.00  0.00     0.020 C 
HETATM   13  C   UNK N   1      39.007  45.194  49.228  0.00  0.00     0.020 C 
ENDROOT
BRANCH  11  14
HETATM   14  C   UNK N   1      41.749  47.980  46.280  0.00  0.00     0.010 C 
HETATM   15  C   UNK N   1      42.964  48.556  46.167  0.00  0.00     0.026 C 
BRANCH  14  16
HETATM   16  C   UNK N   1      40.543  48.690  45.759  0.00  0.00     0.171 C 
HETATM   17  O   UNK N   1      40.461  48.993  44.579  0.00  0.00    -0.646 OA
BRANCH  16  18
HETATM   18  O   UNK N   1      39.510  48.961  46.588  0.00  0.00    -0.773 OA
HETATM   19  H   UNK N   1      39.279  49.871  46.823  0.00  0.00     0.167 HD
ENDBRANCH  16  18
ENDBRANCH  14  16
ENDBRANCH  11  14
TORSDOF 3
ENDMDL
MODEL 6
REMARK VINA RESULT:      -5.7     11.546     13.215
REMARK  3 active torsions:
REMARK  status: ('A' for Active; 'I' for Inactive)
REMARK    1  A    between atoms: C_11  and  C_12 
REMARK    2  A    between atoms: C_12  and  C_13 
REMARK    3  A    between atoms: C_13  and  O_15 
ROOT
HETATM    1  O   UNK N   1      31.116  48.506  40.851  0.00  0.00    -0.288 OA
HETATM    2  C   UNK N   1      31.630  49.141  41.759  0.00  0.00     0.177 C 
HETATM    3  C   UNK N   1      31.604  50.625  41.771  0.00  0.00    -0.012 C 
HETATM    4  C   UNK N   1      31.238  51.313  40.673  0.00  0.00     0.023 C 
HETATM    5  C   UNK N   1      31.998  51.284  43.093  0.00  0.00     0.034 C 
HETATM    6  C   UNK N   1      33.289  50.609  43.655  0.00  0.00    -0.018 C 
HETATM    7  C   UNK N   1      33.050  49.101  43.769  0.00  0.00    -0.013 C 
HETATM    8  C   UNK N   1      32.303  48.429  42.869  0.00  0.00     0.052 C 
HETATM    9  C   UNK N   1      33.576  51.181  45.073  0.00  0.00     0.014 C 
HETATM   10  C   UNK N   1      33.675  52.718  45.087  0.00  0.00     0.010 C 
HETATM   11  C   UNK N   1      32.393  53.353  44.501  0.00  0.00     0.025 C 
HETATM   12  C   UNK N   1      32.108  52.828  43.080  0.00  0.00     0.020 C 
HETATM   13  C   UNK N   1      34.512  50.816  42.727  0.00  0.00     0.020 C 
ENDROOT
BRANCH  11  14
HETATM   14  C   UNK N   1      32.440  54.879  44.507  0.00  0.00     0.010 C 
HETATM   15  C   UNK N   1      31.415  55.602  44.008  0.00  0.00     0.026 C 
BRANCH  14  16
HETATM   16  C   UNK N   1      33.618  55.578  45.101  0.00  0.00     0.171 C 
HETATM   17  O   UNK N   1      33.573  56.011  46.242  0.00  0.00    -0.646 OA
BRANCH  16  18
HETATM   18  O   UNK N   1      34.762  55.694  44.391  0.00  0.00    -0.773 OA
HETATM   19  H   UNK N   1      35.484  55.059  44.496  0.00  0.00     0.167 HD
ENDBRANCH  16  18
ENDBRANCH  14  16
ENDBRANCH  11  14
TORSDOF 3
ENDMDL
MODEL 7
REMARK VINA RESULT:      -5.5      2.091      6.239
REMARK  3 active torsions:
REMARK  status: ('A' for Active; 'I' for Inactive)
REMARK    1  A    between atoms: C_11  and  C_12 
REMARK    2  A    between atoms: C_12  and  C_13 
REMARK    3  A    between atoms: C_13  and  O_15 
ROOT
HETATM    1  O   UNK N   1      42.421  45.403  52.834  0.00  0.00    -0.288 OA
HETATM    2  C   UNK N   1      41.872  45.006  51.817  0.00  0.00     0.177 C 
HETATM    3  C   UNK N   1      42.192  45.593  50.491  0.00  0.00    -0.012 C 
HETATM    4  C   UNK N   1      42.902  46.734  50.400  0.00  0.00     0.023 C 
HETATM    5  C   UNK N   1      41.680  44.814  49.281  0.00  0.00     0.034 C 
HETATM    6  C   UNK N   1      40.194  44.395  49.513  0.00  0.00    -0.018 C 
HETATM    7  C   UNK N   1      40.098  43.617  50.828  0.00  0.00    -0.013 C 
HETATM    8  C   UNK N   1      40.861  43.929  51.896  0.00  0.00     0.052 C 
HETATM    9  C   UNK N   1      39.747  43.467  48.347  0.00  0.00     0.014 C 
HETATM   10  C   UNK N   1      39.957  44.108  46.961  0.00  0.00     0.010 C 
HETATM   11  C   UNK N   1      41.431  44.534  46.775  0.00  0.00     0.025 C 
HETATM   12  C   UNK N   1      41.885  45.484  47.900  0.00  0.00     0.020 C 
HETATM   13  C   UNK N   1      39.249  45.618  49.628  0.00  0.00     0.020 C 
ENDROOT
BRANCH  11  14
HETATM   14  C   UNK N   1      41.690  45.163  45.408  0.00  0.00     0.010 C 
HETATM   15  C   UNK N   1      41.668  46.503  45.251  0.00  0.00     0.026 C 
BRANCH  14  16
HETATM   16  C   UNK N   1      42.005  44.287  44.241  0.00  0.00     0.171 C 
HETATM   17  O   UNK N   1      42.043  44.747  43.111  0.00  0.00    -0.646 OA
BRANCH  16  18
HETATM   18  O   UNK N   1      42.296  42.982  44.437  0.00  0.00    -0.773 OA
HETATM   19  H   UNK N   1      42.943  42.523  43.883  0.00  0.00     0.167 HD
ENDBRANCH  16  18
ENDBRANCH  14  16
ENDBRANCH  11  14
TORSDOF 3
ENDMDL
MODEL 8
REMARK VINA RESULT:      -5.4     11.564     15.285
REMARK  3 active torsions:
REMARK  status: ('A' for Active; 'I' for Inactive)
REMARK    1  A    between atoms: C_11  and  C_12 
REMARK    2  A    between atoms: C_12  and  C_13 
REMARK    3  A    between atoms: C_13  and  O_15 
ROOT
HETATM    1  O   UNK N   1      33.918  49.590  43.615  0.00  0.00    -0.288 OA
HETATM    2  C   UNK N   1      33.515  50.708  43.900  0.00  0.00     0.177 C 
HETATM    3  C   UNK N   1      32.544  51.420  43.033  0.00  0.00    -0.012 C 
HETATM    4  C   UNK N   1      32.270  50.967  41.794  0.00  0.00     0.023 C 
HETATM    5  C   UNK N   1      31.889  52.658  43.647  0.00  0.00     0.034 C 
HETATM    6  C   UNK N   1      32.976  53.540  44.339  0.00  0.00    -0.018 C 
HETATM    7  C   UNK N   1      33.738  52.682  45.353  0.00  0.00    -0.013 C 
HETATM    8  C   UNK N   1      34.006  51.380  45.125  0.00  0.00     0.052 C 
HETATM    9  C   UNK N   1      32.270  54.703  45.094  0.00  0.00     0.014 C 
HETATM   10  C   UNK N   1      31.347  55.533  44.182  0.00  0.00     0.010 C 
HETATM   11  C   UNK N   1      30.302  54.626  43.493  0.00  0.00     0.025 C 
HETATM   12  C   UNK N   1      30.980  53.487  42.707  0.00  0.00     0.020 C 
HETATM   13  C   UNK N   1      34.013  54.095  43.330  0.00  0.00     0.020 C 
ENDROOT
BRANCH  11  14
HETATM   14  C   UNK N   1      29.355  55.409  42.586  0.00  0.00     0.010 C 
HETATM   15  C   UNK N   1      29.752  56.561  42.007  0.00  0.00     0.026 C 
BRANCH  14  16
HETATM   16  C   UNK N   1      27.987  54.876  42.313  0.00  0.00     0.171 C 
HETATM   17  O   UNK N   1      27.771  54.202  41.318  0.00  0.00    -0.646 OA
BRANCH  16  18
HETATM   18  O   UNK N   1      26.988  55.100  43.195  0.00  0.00    -0.773 OA
HETATM   19  H   UNK N   1      26.631  54.385  43.741  0.00  0.00     0.167 HD
ENDBRANCH  16  18
ENDBRANCH  14  16
ENDBRANCH  11  14
TORSDOF 3
ENDMDL
MODEL 9
REMARK VINA RESULT:      -5.1     16.453     18.364
REMARK  3 active torsions:
REMARK  status: ('A' for Active; 'I' for Inactive)
REMARK    1  A    between atoms: C_11  and  C_12 
REMARK    2  A    between atoms: C_12  and  C_13 
REMARK    3  A    between atoms: C_13  and  O_15 
ROOT
HETATM    1  O   UNK N   1      28.863  58.039  41.863  0.00  0.00    -0.288 OA
HETATM    2  C   UNK N   1      29.065  56.963  41.322  0.00  0.00     0.177 C 
HETATM    3  C   UNK N   1      28.070  55.863  41.400  0.00  0.00    -0.012 C 
HETATM    4  C   UNK N   1      27.040  55.931  42.266  0.00  0.00     0.023 C 
HETATM    5  C   UNK N   1      28.295  54.697  40.438  0.00  0.00     0.034 C 
HETATM    6  C   UNK N   1      29.798  54.274  40.463  0.00  0.00    -0.018 C 
HETATM    7  C   UNK N   1      30.662  55.499  40.154  0.00  0.00    -0.013 C 
HETATM    8  C   UNK N   1      30.326  56.734  40.582  0.00  0.00     0.052 C 
HETATM    9  C   UNK N   1      30.034  53.201  39.363  0.00  0.00     0.014 C 
HETATM   10  C   UNK N   1      29.091  51.990  39.498  0.00  0.00     0.010 C 
HETATM   11  C   UNK N   1      27.614  52.446  39.496  0.00  0.00     0.025 C 
HETATM   12  C   UNK N   1      27.347  53.484  40.604  0.00  0.00     0.020 C 
HETATM   13  C   UNK N   1      30.234  53.738  41.850  0.00  0.00     0.020 C 
ENDROOT
BRANCH  11  14
HETATM   14  C   UNK N   1      26.640  51.276  39.614  0.00  0.00     0.010 C 
HETATM   15  C   UNK N   1      25.756  51.013  38.629  0.00  0.00     0.026 C 
BRANCH  14  16
HETATM   16  C   UNK N   1      26.690  50.395  40.818  0.00  0.00     0.171 C 
HETATM   17  O   UNK N   1      25.927  50.576  41.754  0.00  0.00    -0.646 OA
BRANCH  16  18
HETATM   18  O   UNK N   1      27.555  49.356  40.858  0.00  0.00    -0.773 OA
HETATM   19  H   UNK N   1      27.490  48.675  41.542  0.00  0.00     0.167 HD
ENDBRANCH  16  18
ENDBRANCH  14  16
ENDBRANCH  11  14
TORSDOF 3
ENDMDL
