MODEL 1
REMARK VINA RESULT:      -5.7      0.000      0.000
REMARK  7 active torsions:
REMARK  status: ('A' for Active; 'I' for Inactive)
REMARK    1  A    between atoms: C_2  and  O_3 
REMARK    2  A    between atoms: O_3  and  C_4 
REMARK    3  A    between atoms: C_4  and  C_5 
REMARK    4  A    between atoms: C_10  and  O_11 
REMARK    5  A    between atoms: C_21  and  O_22 
REMARK    6  A    between atoms: C_24  and  O_25 
REMARK    7  A    between atoms: C_27  and  O_28 
ROOT
HETATM    1  C   UNK N   1      31.966  54.225  43.879  0.00  0.00     0.060 C 
HETATM    2  C   UNK N   1      31.051  54.025  45.114  0.00  0.00     0.046 C 
HETATM    3  C   UNK N   1      32.859  55.450  44.192  0.00  0.00     0.046 C 
ENDROOT
BRANCH   1   4
HETATM    4  O   UNK N   1      32.889  53.142  43.688  0.00  0.00    -0.348 OA
BRANCH   4   5
HETATM    5  C   UNK N   1      32.340  51.843  43.490  0.00  0.00     0.292 C 
HETATM    6  O   UNK N   1      32.898  51.244  42.326  0.00  0.00    -0.351 OA
HETATM    7  C   UNK N   1      32.335  49.973  42.022  0.00  0.00     0.152 C 
HETATM    8  C   UNK N   1      32.620  48.974  43.161  0.00  0.00     0.178 C 
HETATM    9  C   UNK N   1      30.855  50.056  41.593  0.00  0.00     0.042 C 
HETATM   10  C   UNK N   1      32.110  49.558  44.497  0.00  0.00     0.183 C 
HETATM   11  C   UNK N   1      32.684  50.978  44.721  0.00  0.00     0.204 C 
BRANCH   8  12
HETATM   12  O   UNK N   1      34.010  48.766  43.218  0.00  0.00    -0.390 OA
HETATM   13  H   UNK N   1      34.435  49.447  42.635  0.00  0.00     0.210 HD
ENDBRANCH   8  12
BRANCH  10  14
HETATM   14  O   UNK N   1      32.381  48.701  45.578  0.00  0.00    -0.390 OA
HETATM   15  H   UNK N   1      31.575  48.147  45.745  0.00  0.00     0.210 HD
ENDBRANCH  10  14
BRANCH  11  16
HETATM   16  O   UNK N   1      34.079  50.916  44.890  0.00  0.00    -0.388 OA
HETATM   17  H   UNK N   1      34.425  51.842  44.795  0.00  0.00     0.210 HD
ENDBRANCH  11  16
ENDBRANCH   4   5
ENDBRANCH   1   4
BRANCH   1  18
HETATM   18  C   UNK N   1      31.099  54.457  42.588  0.00  0.00     0.021 C 
HETATM   19  C   UNK N   1      29.579  54.540  42.720  0.00  0.00     0.022 C 
HETATM   20  C   UNK N   1      29.092  55.159  41.365  0.00  0.00    -0.012 C 
HETATM   21  C   UNK N   1      28.062  56.264  41.710  0.00  0.00    -0.052 C 
HETATM   22  C   UNK N   1      28.389  54.135  40.379  0.00  0.00    -0.006 C 
HETATM   23  C   UNK N   1      30.413  55.693  40.712  0.00  0.00     0.015 C 
HETATM   24  C   UNK N   1      28.319  57.585  41.588  0.00  0.00     0.017 C 
HETATM   25  C   UNK N   1      26.693  55.829  42.201  0.00  0.00     0.147 C 
HETATM   26  C   UNK N   1      26.084  54.905  41.142  0.00  0.00     0.037 C 
HETATM   27  C   UNK N   1      26.994  53.698  40.892  0.00  0.00     0.008 C 
HETATM   28  C   UNK N   1      29.196  52.846  40.078  0.00  0.00     0.011 C 
HETATM   29  C   UNK N   1      31.410  55.766  41.846  0.00  0.00     0.009 C 
BRANCH  25  30
HETATM   30  O   UNK N   1      26.818  55.157  43.428  0.00  0.00    -0.391 OA
HETATM   31  H   UNK N   1      26.454  55.761  44.127  0.00  0.00     0.210 HD
ENDBRANCH  25  30
ENDBRANCH   1  18
TORSDOF 7
ENDMDL
MODEL 2
REMARK VINA RESULT:      -5.6     14.714     18.564
REMARK  7 active torsions:
REMARK  status: ('A' for Active; 'I' for Inactive)
REMARK    1  A    between atoms: C_2  and  O_3 
REMARK    2  A    between atoms: O_3  and  C_4 
REMARK    3  A    between atoms: C_4  and  C_5 
REMARK    4  A    between atoms: C_10  and  O_11 
REMARK    5  A    between atoms: C_21  and  O_22 
REMARK    6  A    between atoms: C_24  and  O_25 
REMARK    7  A    between atoms: C_27  and  O_28 
ROOT
HETATM    1  C   UNK N   1      29.718  41.921  55.726  0.00  0.00     0.060 C 
HETATM    2  C   UNK N   1      29.267  40.591  56.383  0.00  0.00     0.046 C 
HETATM    3  C   UNK N   1      30.726  41.537  54.616  0.00  0.00     0.046 C 
ENDROOT
BRANCH   1   4
HETATM    4  O   UNK N   1      28.653  42.590  55.034  0.00  0.00    -0.348 OA
BRANCH   4   5
HETATM    5  C   UNK N   1      28.057  41.906  53.935  0.00  0.00     0.292 C 
HETATM    6  O   UNK N   1      26.741  41.484  54.272  0.00  0.00    -0.351 OA
HETATM    7  C   UNK N   1      26.113  40.724  53.247  0.00  0.00     0.152 C 
HETATM    8  C   UNK N   1      25.944  41.577  51.974  0.00  0.00     0.178 C 
HETATM    9  C   UNK N   1      26.781  39.351  53.020  0.00  0.00     0.042 C 
HETATM   10  C   UNK N   1      27.317  42.147  51.552  0.00  0.00     0.183 C 
HETATM   11  C   UNK N   1      27.988  42.879  52.740  0.00  0.00     0.204 C 
BRANCH   8  12
HETATM   12  O   UNK N   1      25.051  42.623  52.268  0.00  0.00    -0.390 OA
HETATM   13  H   UNK N   1      25.565  43.324  52.746  0.00  0.00     0.210 HD
ENDBRANCH   8  12
BRANCH  10  14
HETATM   14  O   UNK N   1      27.213  42.968  50.414  0.00  0.00    -0.390 OA
HETATM   15  H   UNK N   1      27.059  42.386  49.625  0.00  0.00     0.210 HD
ENDBRANCH  10  14
BRANCH  11  16
HETATM   16  O   UNK N   1      27.242  44.019  53.090  0.00  0.00    -0.388 OA
HETATM   17  H   UNK N   1      26.414  43.700  53.535  0.00  0.00     0.210 HD
ENDBRANCH  11  16
ENDBRANCH   4   5
ENDBRANCH   1   4
BRANCH   1  18
HETATM   18  C   UNK N   1      30.371  42.866  56.799  0.00  0.00     0.021 C 
HETATM   19  C   UNK N   1      30.642  42.322  58.201  0.00  0.00     0.022 C 
HETATM   20  C   UNK N   1      31.626  43.356  58.849  0.00  0.00    -0.012 C 
HETATM   21  C   UNK N   1      32.758  42.546  59.531  0.00  0.00    -0.052 C 
HETATM   22  C   UNK N   1      30.977  44.297  59.947  0.00  0.00    -0.006 C 
HETATM   23  C   UNK N   1      32.101  44.221  57.631  0.00  0.00     0.015 C 
HETATM   24  C   UNK N   1      34.018  42.476  59.049  0.00  0.00     0.017 C 
HETATM   25  C   UNK N   1      32.424  41.801  60.811  0.00  0.00     0.147 C 
HETATM   26  C   UNK N   1      31.874  42.817  61.817  0.00  0.00     0.037 C 
HETATM   27  C   UNK N   1      30.640  43.526  61.248  0.00  0.00     0.008 C 
HETATM   28  C   UNK N   1      29.692  45.042  59.505  0.00  0.00     0.011 C 
HETATM   29  C   UNK N   1      31.758  43.400  56.409  0.00  0.00     0.009 C 
BRANCH  25  30
HETATM   30  O   UNK N   1      31.471  40.804  60.548  0.00  0.00    -0.391 OA
HETATM   31  H   UNK N   1      31.944  39.932  60.596  0.00  0.00     0.210 HD
ENDBRANCH  25  30
ENDBRANCH   1  18
TORSDOF 7
ENDMDL
MODEL 3
REMARK VINA RESULT:      -5.3     14.148     17.356
REMARK  7 active torsions:
REMARK  status: ('A' for Active; 'I' for Inactive)
REMARK    1  A    between atoms: C_2  and  O_3 
REMARK    2  A    between atoms: O_3  and  C_4 
REMARK    3  A    between atoms: C_4  and  C_5 
REMARK    4  A    between atoms: C_10  and  O_11 
REMARK    5  A    between atoms: C_21  and  O_22 
REMARK    6  A    between atoms: C_24  and  O_25 
REMARK    7  A    between atoms: C_27  and  O_28 
ROOT
HETATM    1  C   UNK N   1      29.165  41.073  55.310  0.00  0.00     0.060 C 
HETATM    2  C   UNK N   1      27.729  40.642  55.705  0.00  0.00     0.046 C 
HETATM    3  C   UNK N   1      29.948  39.769  55.027  0.00  0.00     0.046 C 
ENDROOT
BRANCH   1   4
HETATM    4  O   UNK N   1      29.208  41.799  54.072  0.00  0.00    -0.348 OA
BRANCH   4   5
HETATM    5  C   UNK N   1      28.018  41.829  53.291  0.00  0.00     0.292 C 
HETATM    6  O   UNK N   1      27.504  43.154  53.226  0.00  0.00    -0.351 OA
HETATM    7  C   UNK N   1      26.269  43.245  52.525  0.00  0.00     0.152 C 
HETATM    8  C   UNK N   1      26.454  42.817  51.055  0.00  0.00     0.178 C 
HETATM    9  C   UNK N   1      25.106  42.546  53.259  0.00  0.00     0.042 C 
HETATM   10  C   UNK N   1      27.074  41.403  51.006  0.00  0.00     0.183 C 
HETATM   11  C   UNK N   1      28.361  41.347  51.866  0.00  0.00     0.204 C 
BRANCH   8  12
HETATM   12  O   UNK N   1      27.308  43.747  50.436  0.00  0.00    -0.390 OA
HETATM   13  H   UNK N   1      28.180  43.296  50.292  0.00  0.00     0.210 HD
ENDBRANCH   8  12
BRANCH  10  14
HETATM   14  O   UNK N   1      27.301  40.978  49.685  0.00  0.00    -0.390 OA
HETATM   15  H   UNK N   1      27.543  41.772  49.141  0.00  0.00     0.210 HD
ENDBRANCH  10  14
BRANCH  11  16
HETATM   16  O   UNK N   1      29.354  42.172  51.306  0.00  0.00    -0.388 OA
HETATM   17  H   UNK N   1      28.916  42.719  50.603  0.00  0.00     0.210 HD
ENDBRANCH  11  16
ENDBRANCH   4   5
ENDBRANCH   1   4
BRANCH   1  18
HETATM   18  C   UNK N   1      29.824  41.903  56.471  0.00  0.00     0.021 C 
HETATM   19  C   UNK N   1      29.286  43.298  56.784  0.00  0.00     0.022 C 
HETATM   20  C   UNK N   1      29.875  43.648  58.194  0.00  0.00    -0.012 C 
HETATM   21  C   UNK N   1      28.717  44.231  59.043  0.00  0.00    -0.052 C 
HETATM   22  C   UNK N   1      31.049  44.714  58.182  0.00  0.00    -0.006 C 
HETATM   23  C   UNK N   1      30.421  42.273  58.713  0.00  0.00     0.015 C 
HETATM   24  C   UNK N   1      28.130  43.564  60.060  0.00  0.00     0.017 C 
HETATM   25  C   UNK N   1      28.229  45.630  58.709  0.00  0.00     0.147 C 
HETATM   26  C   UNK N   1      29.428  46.580  58.796  0.00  0.00     0.037 C 
HETATM   27  C   UNK N   1      30.539  46.136  57.839  0.00  0.00     0.008 C 
HETATM   28  C   UNK N   1      32.220  44.398  57.217  0.00  0.00     0.011 C 
HETATM   29  C   UNK N   1      29.745  41.232  57.851  0.00  0.00     0.009 C 
BRANCH  25  30
HETATM   30  O   UNK N   1      27.680  45.648  57.417  0.00  0.00    -0.391 OA
HETATM   31  H   UNK N   1      27.476  44.706  57.176  0.00  0.00     0.210 HD
ENDBRANCH  25  30
ENDBRANCH   1  18
TORSDOF 7
ENDMDL
MODEL 4
REMARK VINA RESULT:      -5.1     14.149     18.085
REMARK  7 active torsions:
REMARK  status: ('A' for Active; 'I' for Inactive)
REMARK    1  A    between atoms: C_2  and  O_3 
REMARK    2  A    between atoms: O_3  and  C_4 
REMARK    3  A    between atoms: C_4  and  C_5 
REMARK    4  A    between atoms: C_10  and  O_11 
REMARK    5  A    between atoms: C_21  and  O_22 
REMARK    6  A    between atoms: C_24  and  O_25 
REMARK    7  A    between atoms: C_27  and  O_28 
ROOT
HETATM    1  C   UNK N   1      28.106  42.137  56.261  0.00  0.00     0.060 C 
HETATM    2  C   UNK N   1      26.777  42.932  56.188  0.00  0.00     0.046 C 
HETATM    3  C   UNK N   1      27.844  40.937  57.201  0.00  0.00     0.046 C 
ENDROOT
BRANCH   1   4
HETATM    4  O   UNK N   1      28.470  41.543  55.006  0.00  0.00    -0.348 OA
BRANCH   4   5
HETATM    5  C   UNK N   1      27.708  41.916  53.862  0.00  0.00     0.292 C 
HETATM    6  O   UNK N   1      28.530  42.602  52.924  0.00  0.00    -0.351 OA
HETATM    7  C   UNK N   1      27.816  43.075  51.789  0.00  0.00     0.152 C 
HETATM    8  C   UNK N   1      27.216  41.893  51.002  0.00  0.00     0.178 C 
HETATM    9  C   UNK N   1      26.813  44.197  52.131  0.00  0.00     0.042 C 
HETATM   10  C   UNK N   1      26.349  41.033  51.949  0.00  0.00     0.183 C 
HETATM   11  C   UNK N   1      27.156  40.633  53.208  0.00  0.00     0.204 C 
BRANCH   8  12
HETATM   12  O   UNK N   1      28.279  41.129  50.487  0.00  0.00    -0.390 OA
HETATM   13  H   UNK N   1      29.114  41.466  50.905  0.00  0.00     0.210 HD
ENDBRANCH   8  12
BRANCH  10  14
HETATM   14  O   UNK N   1      25.807  39.915  51.289  0.00  0.00    -0.390 OA
HETATM   15  H   UNK N   1      25.759  39.166  51.938  0.00  0.00     0.210 HD
ENDBRANCH  10  14
BRANCH  11  16
HETATM   16  O   UNK N   1      28.216  39.779  52.853  0.00  0.00    -0.388 OA
HETATM   17  H   UNK N   1      28.512  39.321  53.682  0.00  0.00     0.210 HD
ENDBRANCH  11  16
ENDBRANCH   4   5
ENDBRANCH   1   4
BRANCH   1  18
HETATM   18  C   UNK N   1      29.262  43.055  56.804  0.00  0.00     0.021 C 
HETATM   19  C   UNK N   1      29.373  43.297  58.308  0.00  0.00     0.022 C 
HETATM   20  C   UNK N   1      30.809  43.890  58.514  0.00  0.00    -0.012 C 
HETATM   21  C   UNK N   1      31.442  43.149  59.719  0.00  0.00    -0.052 C 
HETATM   22  C   UNK N   1      30.852  45.444  58.827  0.00  0.00    -0.006 C 
HETATM   23  C   UNK N   1      31.519  43.611  57.145  0.00  0.00     0.015 C 
HETATM   24  C   UNK N   1      32.432  42.237  59.596  0.00  0.00     0.017 C 
HETATM   25  C   UNK N   1      30.920  43.478  61.107  0.00  0.00     0.147 C 
HETATM   26  C   UNK N   1      31.075  44.986  61.323  0.00  0.00     0.037 C 
HETATM   27  C   UNK N   1      30.316  45.766  60.244  0.00  0.00     0.008 C 
HETATM   28  C   UNK N   1      30.081  46.342  57.826  0.00  0.00     0.011 C 
HETATM   29  C   UNK N   1      30.676  42.551  56.475  0.00  0.00     0.009 C 
BRANCH  25  30
HETATM   30  O   UNK N   1      29.572  43.101  61.211  0.00  0.00    -0.391 OA
HETATM   31  H   UNK N   1      29.102  43.836  61.687  0.00  0.00     0.210 HD
ENDBRANCH  25  30
ENDBRANCH   1  18
TORSDOF 7
ENDMDL
MODEL 5
REMARK VINA RESULT:      -5.1     14.487     18.675
REMARK  7 active torsions:
REMARK  status: ('A' for Active; 'I' for Inactive)
REMARK    1  A    between atoms: C_2  and  O_3 
REMARK    2  A    between atoms: O_3  and  C_4 
REMARK    3  A    between atoms: C_4  and  C_5 
REMARK    4  A    between atoms: C_10  and  O_11 
REMARK    5  A    between atoms: C_21  and  O_22 
REMARK    6  A    between atoms: C_24  and  O_25 
REMARK    7  A    between atoms: C_27  and  O_28 
ROOT
HETATM    1  C   UNK N   1      28.103  40.800  56.530  0.00  0.00     0.060 C 
HETATM    2  C   UNK N   1      26.569  41.012  56.584  0.00  0.00     0.046 C 
HETATM    3  C   UNK N   1      28.324  39.291  56.266  0.00  0.00     0.046 C 
ENDROOT
BRANCH   1   4
HETATM    4  O   UNK N   1      28.718  41.458  55.412  0.00  0.00    -0.348 OA
BRANCH   4   5
HETATM    5  C   UNK N   1      27.913  41.673  54.257  0.00  0.00     0.292 C 
HETATM    6  O   UNK N   1      27.567  43.049  54.146  0.00  0.00    -0.351 OA
HETATM    7  C   UNK N   1      26.696  43.325  53.056  0.00  0.00     0.152 C 
HETATM    8  C   UNK N   1      27.382  42.977  51.720  0.00  0.00     0.178 C 
HETATM    9  C   UNK N   1      25.291  42.713  53.237  0.00  0.00     0.042 C 
HETATM   10  C   UNK N   1      27.863  41.510  51.755  0.00  0.00     0.183 C 
HETATM   11  C   UNK N   1      28.726  41.253  53.015  0.00  0.00     0.204 C 
BRANCH   8  12
HETATM   12  O   UNK N   1      28.477  43.845  51.556  0.00  0.00    -0.390 OA
HETATM   13  H   UNK N   1      28.141  44.664  51.109  0.00  0.00     0.210 HD
ENDBRANCH   8  12
BRANCH  10  14
HETATM   14  O   UNK N   1      28.533  41.151  50.572  0.00  0.00    -0.390 OA
HETATM   15  H   UNK N   1      28.803  41.984  50.104  0.00  0.00     0.210 HD
ENDBRANCH  10  14
BRANCH  11  16
HETATM   16  O   UNK N   1      29.917  41.997  52.946  0.00  0.00    -0.388 OA
HETATM   17  H   UNK N   1      30.294  41.860  52.038  0.00  0.00     0.210 HD
ENDBRANCH  11  16
ENDBRANCH   4   5
ENDBRANCH   1   4
BRANCH   1  18
HETATM   18  C   UNK N   1      28.765  41.253  57.882  0.00  0.00     0.021 C 
HETATM   19  C   UNK N   1      30.227  41.697  57.881  0.00  0.00     0.022 C 
HETATM   20  C   UNK N   1      30.423  42.434  59.250  0.00  0.00    -0.012 C 
HETATM   21  C   UNK N   1      31.189  43.749  58.956  0.00  0.00    -0.052 C 
HETATM   22  C   UNK N   1      31.253  41.624  60.332  0.00  0.00    -0.006 C 
HETATM   23  C   UNK N   1      28.958  42.646  59.764  0.00  0.00     0.015 C 
HETATM   24  C   UNK N   1      30.615  44.971  59.006  0.00  0.00     0.017 C 
HETATM   25  C   UNK N   1      32.663  43.648  58.604  0.00  0.00     0.147 C 
HETATM   26  C   UNK N   1      33.371  42.913  59.746  0.00  0.00     0.037 C 
HETATM   27  C   UNK N   1      32.754  41.526  59.960  0.00  0.00     0.008 C 
HETATM   28  C   UNK N   1      30.751  40.185  60.609  0.00  0.00     0.011 C 
HETATM   29  C   UNK N   1      28.084  42.460  58.545  0.00  0.00     0.009 C 
BRANCH  25  30
HETATM   30  O   UNK N   1      32.817  42.947  57.397  0.00  0.00    -0.391 OA
HETATM   31  H   UNK N   1      32.031  43.168  56.831  0.00  0.00     0.210 HD
ENDBRANCH  25  30
ENDBRANCH   1  18
TORSDOF 7
ENDMDL
MODEL 6
REMARK VINA RESULT:      -5.0     15.397     19.136
REMARK  7 active torsions:
REMARK  status: ('A' for Active; 'I' for Inactive)
REMARK    1  A    between atoms: C_2  and  O_3 
REMARK    2  A    between atoms: O_3  and  C_4 
REMARK    3  A    between atoms: C_4  and  C_5 
REMARK    4  A    between atoms: C_10  and  O_11 
REMARK    5  A    between atoms: C_21  and  O_22 
REMARK    6  A    between atoms: C_24  and  O_25 
REMARK    7  A    between atoms: C_27  and  O_28 
ROOT
HETATM    1  C   UNK N   1      28.340  45.720  58.638  0.00  0.00     0.060 C 
HETATM    2  C   UNK N   1      28.227  46.099  60.137  0.00  0.00     0.046 C 
HETATM    3  C   UNK N   1      26.899  45.439  58.150  0.00  0.00     0.046 C 
ENDROOT
BRANCH   1   4
HETATM    4  O   UNK N   1      28.795  46.808  57.820  0.00  0.00    -0.348 OA
BRANCH   4   5
HETATM    5  C   UNK N   1      28.478  48.127  58.254  0.00  0.00     0.292 C 
HETATM    6  O   UNK N   1      29.656  48.804  58.676  0.00  0.00    -0.351 OA
HETATM    7  C   UNK N   1      29.403  50.103  59.198  0.00  0.00     0.152 C 
HETATM    8  C   UNK N   1      28.792  51.009  58.110  0.00  0.00     0.178 C 
HETATM    9  C   UNK N   1      28.622  50.077  60.529  0.00  0.00     0.042 C 
HETATM   10  C   UNK N   1      27.530  50.333  57.529  0.00  0.00     0.183 C 
HETATM   11  C   UNK N   1      27.852  48.890  57.068  0.00  0.00     0.204 C 
BRANCH   8  12
HETATM   12  O   UNK N   1      29.757  51.188  57.103  0.00  0.00    -0.390 OA
HETATM   13  H   UNK N   1      29.448  50.686  56.305  0.00  0.00     0.210 HD
ENDBRANCH   8  12
BRANCH  10  14
HETATM   14  O   UNK N   1      26.954  51.101  56.501  0.00  0.00    -0.390 OA
HETATM   15  H   UNK N   1      25.997  50.850  56.426  0.00  0.00     0.210 HD
ENDBRANCH  10  14
BRANCH  11  16
HETATM   16  O   UNK N   1      28.751  48.917  55.986  0.00  0.00    -0.388 OA
HETATM   17  H   UNK N   1      28.448  48.227  55.339  0.00  0.00     0.210 HD
ENDBRANCH  11  16
ENDBRANCH   4   5
ENDBRANCH   1   4
BRANCH   1  18
HETATM   18  C   UNK N   1      29.265  44.461  58.462  0.00  0.00     0.021 C 
HETATM   19  C   UNK N   1      30.488  44.305  59.365  0.00  0.00     0.022 C 
HETATM   20  C   UNK N   1      30.922  42.808  59.198  0.00  0.00    -0.012 C 
HETATM   21  C   UNK N   1      31.195  42.250  60.619  0.00  0.00    -0.052 C 
HETATM   22  C   UNK N   1      32.231  42.585  58.332  0.00  0.00    -0.006 C 
HETATM   23  C   UNK N   1      29.696  42.151  58.476  0.00  0.00     0.015 C 
HETATM   24  C   UNK N   1      30.379  41.372  61.242  0.00  0.00     0.017 C 
HETATM   25  C   UNK N   1      32.452  42.714  61.333  0.00  0.00     0.147 C 
HETATM   26  C   UNK N   1      33.651  42.386  60.438  0.00  0.00     0.037 C 
HETATM   27  C   UNK N   1      33.506  43.064  59.071  0.00  0.00     0.008 C 
HETATM   28  C   UNK N   1      32.224  43.260  56.938  0.00  0.00     0.011 C 
HETATM   29  C   UNK N   1      28.553  43.118  58.684  0.00  0.00     0.009 C 
BRANCH  25  30
HETATM   30  O   UNK N   1      32.381  44.096  61.574  0.00  0.00    -0.391 OA
HETATM   31  H   UNK N   1      32.900  44.273  62.402  0.00  0.00     0.210 HD
ENDBRANCH  25  30
ENDBRANCH   1  18
TORSDOF 7
ENDMDL
MODEL 7
REMARK VINA RESULT:      -4.9     22.661     24.322
REMARK  7 active torsions:
REMARK  status: ('A' for Active; 'I' for Inactive)
REMARK    1  A    between atoms: C_2  and  O_3 
REMARK    2  A    between atoms: O_3  and  C_4 
REMARK    3  A    between atoms: C_4  and  C_5 
REMARK    4  A    between atoms: C_10  and  O_11 
REMARK    5  A    between atoms: C_21  and  O_22 
REMARK    6  A    between atoms: C_24  and  O_25 
REMARK    7  A    between atoms: C_27  and  O_28 
ROOT
HETATM    1  C   UNK N   1      43.261  50.991  63.194  0.00  0.00     0.060 C 
HETATM    2  C   UNK N   1      42.364  50.769  61.949  0.00  0.00     0.046 C 
HETATM    3  C   UNK N   1      42.489  50.396  64.397  0.00  0.00     0.046 C 
ENDROOT
BRANCH   1   4
HETATM    4  O   UNK N   1      44.484  50.241  63.140  0.00  0.00    -0.348 OA
BRANCH   4   5
HETATM    5  C   UNK N   1      45.393  50.549  62.088  0.00  0.00     0.292 C 
HETATM    6  O   UNK N   1      46.620  51.031  62.623  0.00  0.00    -0.351 OA
HETATM    7  C   UNK N   1      47.550  51.434  61.624  0.00  0.00     0.152 C 
HETATM    8  C   UNK N   1      47.944  50.233  60.742  0.00  0.00     0.178 C 
HETATM    9  C   UNK N   1      47.093  52.685  60.844  0.00  0.00     0.042 C 
HETATM   10  C   UNK N   1      46.670  49.585  60.157  0.00  0.00     0.183 C 
HETATM   11  C   UNK N   1      45.661  49.259  61.286  0.00  0.00     0.204 C 
BRANCH   8  12
HETATM   12  O   UNK N   1      48.634  49.310  61.549  0.00  0.00    -0.390 OA
HETATM   13  H   UNK N   1      48.695  49.700  62.459  0.00  0.00     0.210 HD
ENDBRANCH   8  12
BRANCH  10  14
HETATM   14  O   UNK N   1      46.970  48.457  59.373  0.00  0.00    -0.390 OA
HETATM   15  H   UNK N   1      46.353  48.446  58.596  0.00  0.00     0.210 HD
ENDBRANCH  10  14
BRANCH  11  16
HETATM   16  O   UNK N   1      46.186  48.266  62.133  0.00  0.00    -0.388 OA
HETATM   17  H   UNK N   1      45.789  48.410  63.031  0.00  0.00     0.210 HD
ENDBRANCH  11  16
ENDBRANCH   4   5
ENDBRANCH   1   4
BRANCH   1  18
HETATM   18  C   UNK N   1      43.550  52.523  63.393  0.00  0.00     0.021 C 
HETATM   19  C   UNK N   1      42.496  53.540  62.956  0.00  0.00     0.022 C 
HETATM   20  C   UNK N   1      42.923  54.881  63.647  0.00  0.00    -0.012 C 
HETATM   21  C   UNK N   1      41.645  55.501  64.270  0.00  0.00    -0.052 C 
HETATM   22  C   UNK N   1      43.558  55.960  62.675  0.00  0.00    -0.006 C 
HETATM   23  C   UNK N   1      43.992  54.426  64.698  0.00  0.00     0.015 C 
HETATM   24  C   UNK N   1      41.404  55.531  65.598  0.00  0.00     0.017 C 
HETATM   25  C   UNK N   1      40.623  56.111  63.328  0.00  0.00     0.147 C 
HETATM   26  C   UNK N   1      41.331  57.182  62.493  0.00  0.00     0.037 C 
HETATM   27  C   UNK N   1      42.505  56.574  61.719  0.00  0.00     0.008 C 
HETATM   28  C   UNK N   1      44.735  55.453  61.803  0.00  0.00     0.011 C 
HETATM   29  C   UNK N   1      43.781  52.937  64.854  0.00  0.00     0.009 C 
BRANCH  25  30
HETATM   30  O   UNK N   1      40.085  55.115  62.497  0.00  0.00    -0.391 OA
HETATM   31  H   UNK N   1      39.568  55.578  61.787  0.00  0.00     0.210 HD
ENDBRANCH  25  30
ENDBRANCH   1  18
TORSDOF 7
ENDMDL
MODEL 8
REMARK VINA RESULT:      -4.8     23.643     25.244
REMARK  7 active torsions:
REMARK  status: ('A' for Active; 'I' for Inactive)
REMARK    1  A    between atoms: C_2  and  O_3 
REMARK    2  A    between atoms: O_3  and  C_4 
REMARK    3  A    between atoms: C_4  and  C_5 
REMARK    4  A    between atoms: C_10  and  O_11 
REMARK    5  A    between atoms: C_21  and  O_22 
REMARK    6  A    between atoms: C_24  and  O_25 
REMARK    7  A    between atoms: C_27  and  O_28 
ROOT
HETATM    1  C   UNK N   1      49.589  53.248  59.263  0.00  0.00     0.060 C 
HETATM    2  C   UNK N   1      50.880  53.975  59.718  0.00  0.00     0.046 C 
HETATM    3  C   UNK N   1      48.465  54.311  59.272  0.00  0.00     0.046 C 
ENDROOT
BRANCH   1   4
HETATM    4  O   UNK N   1      49.652  52.797  57.902  0.00  0.00    -0.348 OA
BRANCH   4   5
HETATM    5  C   UNK N   1      50.724  53.287  57.101  0.00  0.00     0.292 C 
HETATM    6  O   UNK N   1      51.209  52.260  56.245  0.00  0.00    -0.351 OA
HETATM    7  C   UNK N   1      52.335  52.658  55.471  0.00  0.00     0.152 C 
HETATM    8  C   UNK N   1      51.955  53.816  54.527  0.00  0.00     0.178 C 
HETATM    9  C   UNK N   1      53.596  52.909  56.325  0.00  0.00     0.042 C 
HETATM   10  C   UNK N   1      51.348  54.973  55.352  0.00  0.00     0.183 C 
HETATM   11  C   UNK N   1      50.192  54.454  56.243  0.00  0.00     0.204 C 
BRANCH   8  12
HETATM   12  O   UNK N   1      51.013  53.331  53.602  0.00  0.00    -0.390 OA
HETATM   13  H   UNK N   1      50.266  52.934  54.121  0.00  0.00     0.210 HD
ENDBRANCH   8  12
BRANCH  10  14
HETATM   14  O   UNK N   1      50.946  56.043  54.534  0.00  0.00    -0.390 OA
HETATM   15  H   UNK N   1      51.312  56.882  54.918  0.00  0.00     0.210 HD
ENDBRANCH  10  14
BRANCH  11  16
HETATM   16  O   UNK N   1      49.123  54.014  55.442  0.00  0.00    -0.388 OA
HETATM   17  H   UNK N   1      48.383  53.765  56.054  0.00  0.00     0.210 HD
ENDBRANCH  11  16
ENDBRANCH   4   5
ENDBRANCH   1   4
BRANCH   1  18
HETATM   18  C   UNK N   1      49.263  52.055  60.235  0.00  0.00     0.021 C 
HETATM   19  C   UNK N   1      47.807  51.776  60.606  0.00  0.00     0.022 C 
HETATM   20  C   UNK N   1      47.821  50.337  61.227  0.00  0.00    -0.012 C 
HETATM   21  C   UNK N   1      46.640  49.555  60.597  0.00  0.00    -0.052 C 
HETATM   22  C   UNK N   1      47.646  50.289  62.802  0.00  0.00    -0.006 C 
HETATM   23  C   UNK N   1      49.235  49.785  60.840  0.00  0.00     0.015 C 
HETATM   24  C   UNK N   1      46.801  48.569  59.688  0.00  0.00     0.017 C 
HETATM   25  C   UNK N   1      45.233  49.919  61.039  0.00  0.00     0.147 C 
HETATM   26  C   UNK N   1      45.163  49.770  62.561  0.00  0.00     0.037 C 
HETATM   27  C   UNK N   1      46.207  50.664  63.239  0.00  0.00     0.008 C 
HETATM   28  C   UNK N   1      48.621  51.187  63.604  0.00  0.00     0.011 C 
HETATM   29  C   UNK N   1      49.712  50.679  59.718  0.00  0.00     0.009 C 
BRANCH  25  30
HETATM   30  O   UNK N   1      44.942  51.240  60.659  0.00  0.00    -0.391 OA
HETATM   31  H   UNK N   1      44.433  51.650  61.407  0.00  0.00     0.210 HD
ENDBRANCH  25  30
ENDBRANCH   1  18
TORSDOF 7
ENDMDL
MODEL 9
REMARK VINA RESULT:      -4.8     22.889     25.468
REMARK  7 active torsions:
REMARK  status: ('A' for Active; 'I' for Inactive)
REMARK    1  A    between atoms: C_2  and  O_3 
REMARK    2  A    between atoms: O_3  and  C_4 
REMARK    3  A    between atoms: C_4  and  C_5 
REMARK    4  A    between atoms: C_10  and  O_11 
REMARK    5  A    between atoms: C_21  and  O_22 
REMARK    6  A    between atoms: C_24  and  O_25 
REMARK    7  A    between atoms: C_27  and  O_28 
ROOT
HETATM    1  C   UNK N   1      51.740  52.439  58.318  0.00  0.00     0.060 C 
HETATM    2  C   UNK N   1      52.694  51.230  58.495  0.00  0.00     0.046 C 
HETATM    3  C   UNK N   1      52.642  53.691  58.198  0.00  0.00     0.046 C 
ENDROOT
BRANCH   1   4
HETATM    4  O   UNK N   1      51.010  52.398  57.082  0.00  0.00    -0.348 OA
BRANCH   4   5
HETATM    5  C   UNK N   1      51.198  53.481  56.177  0.00  0.00     0.292 C 
HETATM    6  O   UNK N   1      51.501  52.990  54.877  0.00  0.00    -0.351 OA
HETATM    7  C   UNK N   1      51.779  54.021  53.936  0.00  0.00     0.152 C 
HETATM    8  C   UNK N   1      50.541  54.919  53.743  0.00  0.00     0.178 C 
HETATM    9  C   UNK N   1      53.086  54.782  54.243  0.00  0.00     0.042 C 
HETATM   10  C   UNK N   1      50.080  55.460  55.115  0.00  0.00     0.183 C 
HETATM   11  C   UNK N   1      49.888  54.296  56.119  0.00  0.00     0.204 C 
BRANCH   8  12
HETATM   12  O   UNK N   1      49.526  54.140  53.160  0.00  0.00    -0.390 OA
HETATM   13  H   UNK N   1      48.825  54.005  53.849  0.00  0.00     0.210 HD
ENDBRANCH   8  12
BRANCH  10  14
HETATM   14  O   UNK N   1      48.927  56.256  55.002  0.00  0.00    -0.390 OA
HETATM   15  H   UNK N   1      48.444  55.986  54.178  0.00  0.00     0.210 HD
ENDBRANCH  10  14
BRANCH  11  16
HETATM   16  O   UNK N   1      48.827  53.470  55.706  0.00  0.00    -0.388 OA
HETATM   17  H   UNK N   1      48.929  52.605  56.181  0.00  0.00     0.210 HD
ENDBRANCH  11  16
ENDBRANCH   4   5
ENDBRANCH   1   4
BRANCH   1  18
HETATM   18  C   UNK N   1      50.762  52.547  59.544  0.00  0.00     0.021 C 
HETATM   19  C   UNK N   1      49.582  51.580  59.640  0.00  0.00     0.022 C 
HETATM   20  C   UNK N   1      49.086  51.699  61.122  0.00  0.00    -0.012 C 
HETATM   21  C   UNK N   1      48.866  50.258  61.648  0.00  0.00    -0.052 C 
HETATM   22  C   UNK N   1      47.727  52.494  61.309  0.00  0.00    -0.006 C 
HETATM   23  C   UNK N   1      50.248  52.471  61.835  0.00  0.00     0.015 C 
HETATM   24  C   UNK N   1      49.679  49.661  62.545  0.00  0.00     0.017 C 
HETATM   25  C   UNK N   1      47.664  49.489  61.126  0.00  0.00     0.147 C 
HETATM   26  C   UNK N   1      46.410  50.317  61.423  0.00  0.00     0.037 C 
HETATM   27  C   UNK N   1      46.510  51.701  60.772  0.00  0.00     0.008 C 
HETATM   28  C   UNK N   1      47.687  53.899  60.657  0.00  0.00     0.011 C 
HETATM   29  C   UNK N   1      51.435  52.337  60.909  0.00  0.00     0.009 C 
BRANCH  25  30
HETATM   30  O   UNK N   1      47.798  49.276  59.745  0.00  0.00    -0.391 OA
HETATM   31  H   UNK N   1      47.041  48.696  59.466  0.00  0.00     0.210 HD
ENDBRANCH  25  30
ENDBRANCH   1  18
TORSDOF 7
ENDMDL
