MODEL 1
REMARK VINA RESULT:      -5.8      0.000      0.000
REMARK  8 active torsions:
REMARK  status: ('A' for Active; 'I' for Inactive)
REMARK    1  A    between atoms: C_2  and  O_3 
REMARK    2  A    between atoms: C_2  and  C_25 
REMARK    3  A    between atoms: O_3  and  C_4 
REMARK    4  A    between atoms: C_6  and  O_7 
REMARK    5  A    between atoms: C_6  and  C_9 
REMARK    6  A    between atoms: C_13  and  O_14 
REMARK    7  A    between atoms: O_14  and  C_15 
REMARK    8  A    between atoms: C_28  and  O_29 
ROOT
HETATM    1  C   UNK N   1      28.402  56.261  40.007  0.00  0.00     0.144 C 
HETATM    2  C   UNK N   1      27.060  55.477  39.789  0.00  0.00     0.061 C 
HETATM    3  C   UNK N   1      26.280  55.176  41.129  0.00  0.00     0.070 C 
HETATM    4  C   UNK N   1      26.889  53.823  41.507  0.00  0.00     0.072 C 
HETATM    5  C   UNK N   1      26.772  53.033  40.210  0.00  0.00     0.143 C 
HETATM    6  C   UNK N   1      27.219  54.051  39.098  0.00  0.00    -0.005 C 
HETATM    7  C   UNK N   1      28.667  53.714  38.622  0.00  0.00     0.039 C 
HETATM    8  C   UNK N   1      29.220  54.570  37.517  0.00  0.00    -0.023 C 
HETATM    9  C   UNK N   1      29.392  55.909  37.556  0.00  0.00    -0.085 C 
HETATM   10  C   UNK N   1      29.018  56.819  38.708  0.00  0.00     0.066 C 
HETATM   11  C   UNK N   1      29.991  56.593  36.350  0.00  0.00     0.043 C 
HETATM   12  C   UNK N   1      26.264  53.931  37.885  0.00  0.00     0.019 C 
ENDROOT
BRANCH   1  13
HETATM   13  O   UNK N   1      29.324  55.552  40.757  0.00  0.00    -0.311 OA
BRANCH  13  14
HETATM   14  C   UNK N   1      29.910  56.003  41.900  0.00  0.00     0.293 C 
HETATM   15  O   UNK N   1      29.737  57.155  42.272  0.00  0.00    -0.259 OA
BRANCH  14  16
HETATM   16  C   UNK N   1      30.743  55.079  42.706  0.00  0.00     0.039 A 
HETATM   17  C   UNK N   1      30.832  53.716  42.366  0.00  0.00     0.020 A 
HETATM   18  C   UNK N   1      31.617  52.850  43.132  0.00  0.00     0.037 A 
HETATM   19  C   UNK N   1      32.318  53.331  44.247  0.00  0.00     0.065 A 
HETATM   20  C   UNK N   1      32.232  54.684  44.587  0.00  0.00     0.037 A 
HETATM   21  C   UNK N   1      31.453  55.554  43.821  0.00  0.00     0.020 A 
BRANCH  19  22
HETATM   22  O   UNK N   1      33.075  52.503  44.994  0.00  0.00    -0.361 OA
HETATM   23  H   UNK N   1      33.650  51.837  44.591  0.00  0.00     0.217 HD
ENDBRANCH  19  22
ENDBRANCH  14  16
ENDBRANCH  13  14
ENDBRANCH   1  13
BRANCH   3  24
HETATM   24  O   UNK N   1      24.911  54.959  40.849  0.00  0.00    -0.389 OA
HETATM   25  H   UNK N   1      24.492  54.528  41.639  0.00  0.00     0.210 HD
ENDBRANCH   3  24
BRANCH   3  26
HETATM   26  C   UNK N   1      26.395  56.222  42.302  0.00  0.00     0.012 C 
HETATM   27  C   UNK N   1      25.132  57.090  42.465  0.00  0.00     0.012 C 
HETATM   28  C   UNK N   1      26.679  55.542  43.657  0.00  0.00     0.012 C 
ENDBRANCH   3  26
BRANCH   5  29
HETATM   29  O   UNK N   1      27.506  51.852  40.243  0.00  0.00    -0.315 OA
BRANCH  29  30
HETATM   30  C   UNK N   1      26.990  50.631  40.564  0.00  0.00     0.255 C 
HETATM   31  O   UNK N   1      27.707  49.644  40.630  0.00  0.00    -0.266 OA
HETATM   32  C   UNK N   1      25.521  50.491  40.812  0.00  0.00     0.126 C 
ENDBRANCH  29  30
ENDBRANCH   5  29
TORSDOF 8
ENDMDL
MODEL 2
REMARK VINA RESULT:      -5.5     18.162     22.116
REMARK  8 active torsions:
REMARK  status: ('A' for Active; 'I' for Inactive)
REMARK    1  A    between atoms: C_2  and  O_3 
REMARK    2  A    between atoms: C_2  and  C_25 
REMARK    3  A    between atoms: O_3  and  C_4 
REMARK    4  A    between atoms: C_6  and  O_7 
REMARK    5  A    between atoms: C_6  and  C_9 
REMARK    6  A    between atoms: C_13  and  O_14 
REMARK    7  A    between atoms: O_14  and  C_15 
REMARK    8  A    between atoms: C_28  and  O_29 
ROOT
HETATM    1  C   UNK N   1      31.044  42.720  59.740  0.00  0.00     0.144 C 
HETATM    2  C   UNK N   1      29.852  43.471  59.046  0.00  0.00     0.061 C 
HETATM    3  C   UNK N   1      30.042  43.653  57.488  0.00  0.00     0.070 C 
HETATM    4  C   UNK N   1      30.773  44.997  57.453  0.00  0.00     0.072 C 
HETATM    5  C   UNK N   1      29.908  45.868  58.354  0.00  0.00     0.143 C 
HETATM    6  C   UNK N   1      29.581  44.944  59.584  0.00  0.00    -0.005 C 
HETATM    7  C   UNK N   1      30.452  45.364  60.809  0.00  0.00     0.039 C 
HETATM    8  C   UNK N   1      30.216  44.603  62.084  0.00  0.00    -0.023 C 
HETATM    9  C   UNK N   1      30.360  43.272  62.257  0.00  0.00    -0.085 C 
HETATM   10  C   UNK N   1      30.745  42.274  61.185  0.00  0.00     0.066 C 
HETATM   11  C   UNK N   1      30.101  42.692  63.628  0.00  0.00     0.043 C 
HETATM   12  C   UNK N   1      28.089  45.113  59.963  0.00  0.00     0.019 C 
ENDROOT
BRANCH   1  13
HETATM   13  O   UNK N   1      32.241  43.409  59.646  0.00  0.00    -0.311 OA
BRANCH  13  14
HETATM   14  C   UNK N   1      33.462  42.893  59.952  0.00  0.00     0.293 C 
HETATM   15  O   UNK N   1      33.865  41.882  59.393  0.00  0.00    -0.259 OA
BRANCH  14  16
HETATM   16  C   UNK N   1      34.314  43.579  60.952  0.00  0.00     0.039 A 
HETATM   17  C   UNK N   1      33.845  43.797  62.261  0.00  0.00     0.020 A 
HETATM   18  C   UNK N   1      34.652  44.447  63.199  0.00  0.00     0.037 A 
HETATM   19  C   UNK N   1      35.933  44.892  62.840  0.00  0.00     0.065 A 
HETATM   20  C   UNK N   1      36.402  44.678  61.542  0.00  0.00     0.037 A 
HETATM   21  C   UNK N   1      35.601  44.023  60.603  0.00  0.00     0.020 A 
BRANCH  19  22
HETATM   22  O   UNK N   1      36.718  45.523  63.736  0.00  0.00    -0.361 OA
HETATM   23  H   UNK N   1      37.684  45.464  63.697  0.00  0.00     0.217 HD
ENDBRANCH  19  22
ENDBRANCH  14  16
ENDBRANCH  13  14
ENDBRANCH   1  13
BRANCH   3  24
HETATM   24  O   UNK N   1      28.784  43.840  56.870  0.00  0.00    -0.389 OA
HETATM   25  H   UNK N   1      28.489  44.773  57.031  0.00  0.00     0.210 HD
ENDBRANCH   3  24
BRANCH   3  26
HETATM   26  C   UNK N   1      30.828  42.534  56.704  0.00  0.00     0.012 C 
HETATM   27  C   UNK N   1      30.026  41.943  55.529  0.00  0.00     0.012 C 
HETATM   28  C   UNK N   1      32.169  43.054  56.146  0.00  0.00     0.012 C 
ENDBRANCH   3  26
BRANCH   5  29
HETATM   29  O   UNK N   1      30.528  47.070  58.681  0.00  0.00    -0.315 OA
BRANCH  29  30
HETATM   30  C   UNK N   1      29.960  48.299  58.527  0.00  0.00     0.255 C 
HETATM   31  O   UNK N   1      29.287  48.797  59.417  0.00  0.00    -0.266 OA
HETATM   32  C   UNK N   1      30.139  49.041  57.240  0.00  0.00     0.126 C 
ENDBRANCH  29  30
ENDBRANCH   5  29
TORSDOF 8
ENDMDL
MODEL 3
REMARK VINA RESULT:      -5.5      1.892      5.741
REMARK  8 active torsions:
REMARK  status: ('A' for Active; 'I' for Inactive)
REMARK    1  A    between atoms: C_2  and  O_3 
REMARK    2  A    between atoms: C_2  and  C_25 
REMARK    3  A    between atoms: O_3  and  C_4 
REMARK    4  A    between atoms: C_6  and  O_7 
REMARK    5  A    between atoms: C_6  and  C_9 
REMARK    6  A    between atoms: C_13  and  O_14 
REMARK    7  A    between atoms: O_14  and  C_15 
REMARK    8  A    between atoms: C_28  and  O_29 
ROOT
HETATM    1  C   UNK N   1      30.163  53.916  40.382  0.00  0.00     0.144 C 
HETATM    2  C   UNK N   1      29.948  55.381  40.904  0.00  0.00     0.061 C 
HETATM    3  C   UNK N   1      30.055  55.513  42.475  0.00  0.00     0.070 C 
HETATM    4  C   UNK N   1      28.597  55.267  42.873  0.00  0.00     0.072 C 
HETATM    5  C   UNK N   1      27.838  56.209  41.948  0.00  0.00     0.143 C 
HETATM    6  C   UNK N   1      28.534  56.020  40.550  0.00  0.00    -0.005 C 
HETATM    7  C   UNK N   1      27.633  55.143  39.625  0.00  0.00     0.039 C 
HETATM    8  C   UNK N   1      28.140  54.914  38.228  0.00  0.00    -0.023 C 
HETATM    9  C   UNK N   1      29.307  54.325  37.890  0.00  0.00    -0.085 C 
HETATM   10  C   UNK N   1      30.358  53.818  38.856  0.00  0.00     0.066 C 
HETATM   11  C   UNK N   1      29.632  54.159  36.423  0.00  0.00     0.043 C 
HETATM   12  C   UNK N   1      28.720  57.405  39.884  0.00  0.00     0.019 C 
ENDROOT
BRANCH   1  13
HETATM   13  O   UNK N   1      29.199  53.035  40.840  0.00  0.00    -0.311 OA
BRANCH  13  14
HETATM   14  C   UNK N   1      29.045  51.754  40.405  0.00  0.00     0.293 C 
HETATM   15  O   UNK N   1      29.994  50.982  40.403  0.00  0.00    -0.259 OA
BRANCH  14  16
HETATM   16  C   UNK N   1      27.710  51.292  39.956  0.00  0.00     0.039 A 
HETATM   17  C   UNK N   1      26.885  50.544  40.817  0.00  0.00     0.020 A 
HETATM   18  C   UNK N   1      25.629  50.109  40.386  0.00  0.00     0.037 A 
HETATM   19  C   UNK N   1      25.184  50.410  39.091  0.00  0.00     0.065 A 
HETATM   20  C   UNK N   1      26.000  51.152  38.233  0.00  0.00     0.037 A 
HETATM   21  C   UNK N   1      27.254  51.593  38.661  0.00  0.00     0.020 A 
BRANCH  19  22
HETATM   22  O   UNK N   1      23.975  49.992  38.664  0.00  0.00    -0.361 OA
HETATM   23  H   UNK N   1      23.573  50.340  37.855  0.00  0.00     0.217 HD
ENDBRANCH  19  22
ENDBRANCH  14  16
ENDBRANCH  13  14
ENDBRANCH   1  13
BRANCH   3  24
HETATM   24  O   UNK N   1      30.369  56.847  42.823  0.00  0.00    -0.389 OA
HETATM   25  H   UNK N   1      31.077  56.833  43.519  0.00  0.00     0.210 HD
ENDBRANCH   3  24
BRANCH   3  26
HETATM   26  C   UNK N   1      31.043  54.547  43.231  0.00  0.00     0.012 C 
HETATM   27  C   UNK N   1      32.515  54.997  43.142  0.00  0.00     0.012 C 
HETATM   28  C   UNK N   1      30.683  54.406  44.725  0.00  0.00     0.012 C 
ENDBRANCH   3  26
BRANCH   5  29
HETATM   29  O   UNK N   1      26.469  55.963  41.952  0.00  0.00    -0.315 OA
BRANCH  29  30
HETATM   30  C   UNK N   1      25.513  56.916  42.144  0.00  0.00     0.255 C 
HETATM   31  O   UNK N   1      24.330  56.664  41.970  0.00  0.00    -0.266 OA
HETATM   32  C   UNK N   1      25.918  58.298  42.548  0.00  0.00     0.126 C 
ENDBRANCH  29  30
ENDBRANCH   5  29
TORSDOF 8
ENDMDL
MODEL 4
REMARK VINA RESULT:      -5.2     18.428     22.144
REMARK  8 active torsions:
REMARK  status: ('A' for Active; 'I' for Inactive)
REMARK    1  A    between atoms: C_2  and  O_3 
REMARK    2  A    between atoms: C_2  and  C_25 
REMARK    3  A    between atoms: O_3  and  C_4 
REMARK    4  A    between atoms: C_6  and  O_7 
REMARK    5  A    between atoms: C_6  and  C_9 
REMARK    6  A    between atoms: C_13  and  O_14 
REMARK    7  A    between atoms: O_14  and  C_15 
REMARK    8  A    between atoms: C_28  and  O_29 
ROOT
HETATM    1  C   UNK N   1      31.210  44.283  58.917  0.00  0.00     0.144 C 
HETATM    2  C   UNK N   1      31.166  44.064  60.471  0.00  0.00     0.061 C 
HETATM    3  C   UNK N   1      32.294  43.094  61.004  0.00  0.00     0.070 C 
HETATM    4  C   UNK N   1      31.573  41.747  60.897  0.00  0.00     0.072 C 
HETATM    5  C   UNK N   1      30.242  42.029  61.581  0.00  0.00     0.143 C 
HETATM    6  C   UNK N   1      29.812  43.435  61.023  0.00  0.00    -0.005 C 
HETATM    7  C   UNK N   1      28.689  43.259  59.953  0.00  0.00     0.039 C 
HETATM    8  C   UNK N   1      28.133  44.524  59.361  0.00  0.00    -0.023 C 
HETATM    9  C   UNK N   1      28.829  45.460  58.682  0.00  0.00    -0.085 C 
HETATM   10  C   UNK N   1      30.322  45.443  58.424  0.00  0.00     0.066 C 
HETATM   11  C   UNK N   1      28.085  46.657  58.136  0.00  0.00     0.043 C 
HETATM   12  C   UNK N   1      29.254  44.293  62.184  0.00  0.00     0.019 C 
ENDROOT
BRANCH   1  13
HETATM   13  O   UNK N   1      30.989  43.119  58.203  0.00  0.00    -0.311 OA
BRANCH  13  14
HETATM   14  C   UNK N   1      31.352  42.919  56.906  0.00  0.00     0.293 C 
HETATM   15  O   UNK N   1      32.514  43.074  56.558  0.00  0.00    -0.259 OA
BRANCH  14  16
HETATM   16  C   UNK N   1      30.332  42.487  55.921  0.00  0.00     0.039 A 
HETATM   17  C   UNK N   1      30.720  41.880  54.711  0.00  0.00     0.020 A 
HETATM   18  C   UNK N   1      29.753  41.478  53.785  0.00  0.00     0.037 A 
HETATM   19  C   UNK N   1      28.391  41.680  54.053  0.00  0.00     0.065 A 
HETATM   20  C   UNK N   1      28.003  42.281  55.253  0.00  0.00     0.037 A 
HETATM   21  C   UNK N   1      28.966  42.680  56.184  0.00  0.00     0.020 A 
BRANCH  19  22
HETATM   22  O   UNK N   1      27.451  41.298  53.165  0.00  0.00    -0.361 OA
HETATM   23  H   UNK N   1      27.029  40.429  53.214  0.00  0.00     0.217 HD
ENDBRANCH  19  22
ENDBRANCH  14  16
ENDBRANCH  13  14
ENDBRANCH   1  13
BRANCH   3  24
HETATM   24  O   UNK N   1      32.529  43.340  62.376  0.00  0.00    -0.389 OA
HETATM   25  H   UNK N   1      32.686  44.312  62.500  0.00  0.00     0.210 HD
ENDBRANCH   3  24
BRANCH   3  26
HETATM   26  C   UNK N   1      33.676  43.084  60.248  0.00  0.00     0.012 C 
HETATM   27  C   UNK N   1      34.850  43.557  61.129  0.00  0.00     0.012 C 
HETATM   28  C   UNK N   1      34.029  41.683  59.706  0.00  0.00     0.012 C 
ENDBRANCH   3  26
BRANCH   5  29
HETATM   29  O   UNK N   1      29.315  41.013  61.370  0.00  0.00    -0.315 OA
BRANCH  29  30
HETATM   30  C   UNK N   1      29.565  39.687  61.563  0.00  0.00     0.255 C 
HETATM   31  O   UNK N   1      29.871  39.259  62.666  0.00  0.00    -0.266 OA
HETATM   32  C   UNK N   1      29.490  38.744  60.403  0.00  0.00     0.126 C 
ENDBRANCH  29  30
ENDBRANCH   5  29
TORSDOF 8
ENDMDL
MODEL 5
REMARK VINA RESULT:      -5.1     17.602     21.262
REMARK  8 active torsions:
REMARK  status: ('A' for Active; 'I' for Inactive)
REMARK    1  A    between atoms: C_2  and  O_3 
REMARK    2  A    between atoms: C_2  and  C_25 
REMARK    3  A    between atoms: O_3  and  C_4 
REMARK    4  A    between atoms: C_6  and  O_7 
REMARK    5  A    between atoms: C_6  and  C_9 
REMARK    6  A    between atoms: C_13  and  O_14 
REMARK    7  A    between atoms: O_14  and  C_15 
REMARK    8  A    between atoms: C_28  and  O_29 
ROOT
HETATM    1  C   UNK N   1      28.457  39.990  57.621  0.00  0.00     0.144 C 
HETATM    2  C   UNK N   1      28.099  41.295  58.417  0.00  0.00     0.061 C 
HETATM    3  C   UNK N   1      27.533  42.455  57.506  0.00  0.00     0.070 C 
HETATM    4  C   UNK N   1      28.833  43.168  57.125  0.00  0.00     0.072 C 
HETATM    5  C   UNK N   1      29.520  43.346  58.473  0.00  0.00     0.143 C 
HETATM    6  C   UNK N   1      29.316  41.964  59.194  0.00  0.00    -0.005 C 
HETATM    7  C   UNK N   1      30.645  41.145  59.156  0.00  0.00     0.039 C 
HETATM    8  C   UNK N   1      30.626  39.815  59.855  0.00  0.00    -0.023 C 
HETATM    9  C   UNK N   1      29.812  38.776  59.570  0.00  0.00    -0.085 C 
HETATM   10  C   UNK N   1      28.723  38.764  58.517  0.00  0.00     0.066 C 
HETATM   11  C   UNK N   1      29.962  37.503  60.370  0.00  0.00     0.043 C 
HETATM   12  C   UNK N   1      28.938  42.214  60.675  0.00  0.00     0.019 C 
ENDROOT
BRANCH   1  13
HETATM   13  O   UNK N   1      29.466  40.185  56.694  0.00  0.00    -0.311 OA
BRANCH  13  14
HETATM   14  C   UNK N   1      29.515  39.608  55.462  0.00  0.00     0.293 C 
HETATM   15  O   UNK N   1      29.879  38.447  55.337  0.00  0.00    -0.259 OA
BRANCH  14  16
HETATM   16  C   UNK N   1      29.100  40.389  54.273  0.00  0.00     0.039 A 
HETATM   17  C   UNK N   1      27.979  39.998  53.516  0.00  0.00     0.020 A 
HETATM   18  C   UNK N   1      27.595  40.738  52.395  0.00  0.00     0.037 A 
HETATM   19  C   UNK N   1      28.326  41.872  52.012  0.00  0.00     0.065 A 
HETATM   20  C   UNK N   1      29.439  42.264  52.761  0.00  0.00     0.037 A 
HETATM   21  C   UNK N   1      29.823  41.530  53.886  0.00  0.00     0.020 A 
BRANCH  19  22
HETATM   22  O   UNK N   1      27.966  42.591  50.930  0.00  0.00    -0.361 OA
HETATM   23  H   UNK N   1      27.508  42.187  50.180  0.00  0.00     0.217 HD
ENDBRANCH  19  22
ENDBRANCH  14  16
ENDBRANCH  13  14
ENDBRANCH   1  13
BRANCH   3  24
HETATM   24  O   UNK N   1      26.773  43.353  58.290  0.00  0.00    -0.389 OA
HETATM   25  H   UNK N   1      25.870  43.437  57.886  0.00  0.00     0.210 HD
ENDBRANCH   3  24
BRANCH   3  26
HETATM   26  C   UNK N   1      26.689  42.053  56.238  0.00  0.00     0.012 C 
HETATM   27  C   UNK N   1      25.263  41.579  56.586  0.00  0.00     0.012 C 
HETATM   28  C   UNK N   1      26.566  43.216  55.232  0.00  0.00     0.012 C 
ENDBRANCH   3  26
BRANCH   5  29
HETATM   29  O   UNK N   1      30.847  43.741  58.341  0.00  0.00    -0.315 OA
BRANCH  29  30
HETATM   30  C   UNK N   1      31.251  44.918  57.784  0.00  0.00     0.255 C 
HETATM   31  O   UNK N   1      32.222  44.963  57.043  0.00  0.00    -0.266 OA
HETATM   32  C   UNK N   1      30.512  46.179  58.103  0.00  0.00     0.126 C 
ENDBRANCH  29  30
ENDBRANCH   5  29
TORSDOF 8
ENDMDL
MODEL 6
REMARK VINA RESULT:      -5.0     16.692     20.201
REMARK  8 active torsions:
REMARK  status: ('A' for Active; 'I' for Inactive)
REMARK    1  A    between atoms: C_2  and  O_3 
REMARK    2  A    between atoms: C_2  and  C_25 
REMARK    3  A    between atoms: O_3  and  C_4 
REMARK    4  A    between atoms: C_6  and  O_7 
REMARK    5  A    between atoms: C_6  and  C_9 
REMARK    6  A    between atoms: C_13  and  O_14 
REMARK    7  A    between atoms: O_14  and  C_15 
REMARK    8  A    between atoms: C_28  and  O_29 
ROOT
HETATM    1  C   UNK N   1      28.977  43.171  58.812  0.00  0.00     0.144 C 
HETATM    2  C   UNK N   1      28.754  44.476  59.657  0.00  0.00     0.061 C 
HETATM    3  C   UNK N   1      27.231  44.836  59.872  0.00  0.00     0.070 C 
HETATM    4  C   UNK N   1      26.976  45.712  58.643  0.00  0.00     0.072 C 
HETATM    5  C   UNK N   1      28.140  46.693  58.689  0.00  0.00     0.143 C 
HETATM    6  C   UNK N   1      29.386  45.797  59.033  0.00  0.00    -0.005 C 
HETATM    7  C   UNK N   1      30.244  45.567  57.749  0.00  0.00     0.039 C 
HETATM    8  C   UNK N   1      31.505  44.768  57.927  0.00  0.00    -0.023 C 
HETATM    9  C   UNK N   1      31.588  43.500  58.380  0.00  0.00    -0.085 C 
HETATM   10  C   UNK N   1      30.425  42.645  58.845  0.00  0.00     0.066 C 
HETATM   11  C   UNK N   1      32.950  42.852  58.464  0.00  0.00     0.043 C 
HETATM   12  C   UNK N   1      30.260  46.524  60.083  0.00  0.00     0.019 C 
ENDROOT
BRANCH   1  13
HETATM   13  O   UNK N   1      28.491  43.277  57.521  0.00  0.00    -0.311 OA
BRANCH  13  14
HETATM   14  C   UNK N   1      28.162  42.224  56.723  0.00  0.00     0.293 C 
HETATM   15  O   UNK N   1      27.521  41.284  57.172  0.00  0.00    -0.259 OA
BRANCH  14  16
HETATM   16  C   UNK N   1      28.565  42.235  55.297  0.00  0.00     0.039 A 
HETATM   17  C   UNK N   1      29.857  41.824  54.917  0.00  0.00     0.020 A 
HETATM   18  C   UNK N   1      30.232  41.839  53.570  0.00  0.00     0.037 A 
HETATM   19  C   UNK N   1      29.326  42.269  52.590  0.00  0.00     0.065 A 
HETATM   20  C   UNK N   1      28.043  42.677  52.963  0.00  0.00     0.037 A 
HETATM   21  C   UNK N   1      27.662  42.658  54.307  0.00  0.00     0.020 A 
BRANCH  19  22
HETATM   22  O   UNK N   1      29.678  42.291  51.289  0.00  0.00    -0.361 OA
HETATM   23  H   UNK N   1      29.384  42.995  50.693  0.00  0.00     0.217 HD
ENDBRANCH  19  22
ENDBRANCH  14  16
ENDBRANCH  13  14
ENDBRANCH   1  13
BRANCH   3  24
HETATM   24  O   UNK N   1      27.089  45.658  61.014  0.00  0.00    -0.389 OA
HETATM   25  H   UNK N   1      27.795  46.355  60.990  0.00  0.00     0.210 HD
ENDBRANCH   3  24
BRANCH   3  26
HETATM   26  C   UNK N   1      26.199  43.649  59.973  0.00  0.00     0.012 C 
HETATM   27  C   UNK N   1      25.376  43.673  61.277  0.00  0.00     0.012 C 
HETATM   28  C   UNK N   1      25.208  43.642  58.791  0.00  0.00     0.012 C 
ENDBRANCH   3  26
BRANCH   5  29
HETATM   29  O   UNK N   1      28.260  47.426  57.512  0.00  0.00    -0.315 OA
BRANCH  29  30
HETATM   30  C   UNK N   1      28.489  48.769  57.458  0.00  0.00     0.255 C 
HETATM   31  O   UNK N   1      27.618  49.567  57.772  0.00  0.00    -0.266 OA
HETATM   32  C   UNK N   1      29.814  49.275  56.985  0.00  0.00     0.126 C 
ENDBRANCH  29  30
ENDBRANCH   5  29
TORSDOF 8
ENDMDL
MODEL 7
REMARK VINA RESULT:      -5.0     18.917     22.690
REMARK  8 active torsions:
REMARK  status: ('A' for Active; 'I' for Inactive)
REMARK    1  A    between atoms: C_2  and  O_3 
REMARK    2  A    between atoms: C_2  and  C_25 
REMARK    3  A    between atoms: O_3  and  C_4 
REMARK    4  A    between atoms: C_6  and  O_7 
REMARK    5  A    between atoms: C_6  and  C_9 
REMARK    6  A    between atoms: C_13  and  O_14 
REMARK    7  A    between atoms: O_14  and  C_15 
REMARK    8  A    between atoms: C_28  and  O_29 
ROOT
HETATM    1  C   UNK N   1      28.689  39.140  58.332  0.00  0.00     0.144 C 
HETATM    2  C   UNK N   1      28.866  40.304  59.370  0.00  0.00     0.061 C 
HETATM    3  C   UNK N   1      28.786  41.744  58.723  0.00  0.00     0.070 C 
HETATM    4  C   UNK N   1      30.258  41.972  58.372  0.00  0.00     0.072 C 
HETATM    5  C   UNK N   1      30.968  41.616  59.672  0.00  0.00     0.143 C 
HETATM    6  C   UNK N   1      30.251  40.302  60.154  0.00  0.00    -0.005 C 
HETATM    7  C   UNK N   1      31.161  39.067  59.869  0.00  0.00     0.039 C 
HETATM    8  C   UNK N   1      30.635  37.734  60.323  0.00  0.00    -0.023 C 
HETATM    9  C   UNK N   1      29.482  37.155  59.926  0.00  0.00    -0.085 C 
HETATM   10  C   UNK N   1      28.467  37.757  58.976  0.00  0.00     0.066 C 
HETATM   11  C   UNK N   1      29.134  35.791  60.477  0.00  0.00     0.043 C 
HETATM   12  C   UNK N   1      30.006  40.388  61.681  0.00  0.00     0.019 C 
ENDROOT
BRANCH   1  13
HETATM   13  O   UNK N   1      29.690  39.113  57.378  0.00  0.00    -0.311 OA
BRANCH  13  14
HETATM   14  C   UNK N   1      29.509  38.793  56.067  0.00  0.00     0.293 C 
HETATM   15  O   UNK N   1      29.476  37.622  55.715  0.00  0.00    -0.259 OA
BRANCH  14  16
HETATM   16  C   UNK N   1      29.328  39.875  55.070  0.00  0.00     0.039 A 
HETATM   17  C   UNK N   1      30.371  40.783  54.803  0.00  0.00     0.020 A 
HETATM   18  C   UNK N   1      30.192  41.802  53.863  0.00  0.00     0.037 A 
HETATM   19  C   UNK N   1      28.972  41.931  53.185  0.00  0.00     0.065 A 
HETATM   20  C   UNK N   1      27.935  41.032  53.447  0.00  0.00     0.037 A 
HETATM   21  C   UNK N   1      28.111  40.008  54.381  0.00  0.00     0.020 A 
BRANCH  19  22
HETATM   22  O   UNK N   1      28.789  42.913  52.279  0.00  0.00    -0.361 OA
HETATM   23  H   UNK N   1      27.908  43.260  52.076  0.00  0.00     0.217 HD
ENDBRANCH  19  22
ENDBRANCH  14  16
ENDBRANCH  13  14
ENDBRANCH   1  13
BRANCH   3  24
HETATM   24  O   UNK N   1      28.434  42.694  59.710  0.00  0.00    -0.389 OA
HETATM   25  H   UNK N   1      29.149  43.381  59.755  0.00  0.00     0.210 HD
ENDBRANCH   3  24
BRANCH   3  26
HETATM   26  C   UNK N   1      27.845  41.941  57.475  0.00  0.00     0.012 C 
HETATM   27  C   UNK N   1      26.348  41.959  57.843  0.00  0.00     0.012 C 
HETATM   28  C   UNK N   1      28.159  43.246  56.714  0.00  0.00     0.012 C 
ENDBRANCH   3  26
BRANCH   5  29
HETATM   29  O   UNK N   1      32.344  41.499  59.507  0.00  0.00    -0.315 OA
BRANCH  29  30
HETATM   30  C   UNK N   1      33.215  42.547  59.518  0.00  0.00     0.255 C 
HETATM   31  O   UNK N   1      33.644  43.019  58.475  0.00  0.00    -0.266 OA
HETATM   32  C   UNK N   1      33.675  43.114  60.824  0.00  0.00     0.126 C 
ENDBRANCH  29  30
ENDBRANCH   5  29
TORSDOF 8
ENDMDL
MODEL 8
REMARK VINA RESULT:      -4.9     18.174     21.163
REMARK  8 active torsions:
REMARK  status: ('A' for Active; 'I' for Inactive)
REMARK    1  A    between atoms: C_2  and  O_3 
REMARK    2  A    between atoms: C_2  and  C_25 
REMARK    3  A    between atoms: O_3  and  C_4 
REMARK    4  A    between atoms: C_6  and  O_7 
REMARK    5  A    between atoms: C_6  and  C_9 
REMARK    6  A    between atoms: C_13  and  O_14 
REMARK    7  A    between atoms: O_14  and  C_15 
REMARK    8  A    between atoms: C_28  and  O_29 
ROOT
HETATM    1  C   UNK N   1      29.006  41.926  56.431  0.00  0.00     0.144 C 
HETATM    2  C   UNK N   1      28.243  40.585  56.719  0.00  0.00     0.061 C 
HETATM    3  C   UNK N   1      28.680  39.888  58.069  0.00  0.00     0.070 C 
HETATM    4  C   UNK N   1      29.827  39.007  57.567  0.00  0.00     0.072 C 
HETATM    5  C   UNK N   1      29.208  38.310  56.363  0.00  0.00     0.143 C 
HETATM    6  C   UNK N   1      28.430  39.454  55.615  0.00  0.00    -0.005 C 
HETATM    7  C   UNK N   1      29.230  39.901  54.351  0.00  0.00     0.039 C 
HETATM    8  C   UNK N   1      28.587  40.957  53.497  0.00  0.00    -0.023 C 
HETATM    9  C   UNK N   1      28.241  42.201  53.891  0.00  0.00    -0.085 C 
HETATM   10  C   UNK N   1      28.392  42.762  55.291  0.00  0.00     0.066 C 
HETATM   11  C   UNK N   1      27.628  43.135  52.874  0.00  0.00     0.043 C 
HETATM   12  C   UNK N   1      27.052  38.916  55.157  0.00  0.00     0.019 C 
ENDROOT
BRANCH   1  13
HETATM   13  O   UNK N   1      30.368  41.746  56.267  0.00  0.00    -0.311 OA
BRANCH  13  14
HETATM   14  C   UNK N   1      31.321  42.657  56.606  0.00  0.00     0.293 C 
HETATM   15  O   UNK N   1      32.139  43.035  55.778  0.00  0.00    -0.259 OA
BRANCH  14  16
HETATM   16  C   UNK N   1      31.347  43.208  57.982  0.00  0.00     0.039 A 
HETATM   17  C   UNK N   1      30.520  44.291  58.334  0.00  0.00     0.020 A 
HETATM   18  C   UNK N   1      30.552  44.808  59.632  0.00  0.00     0.037 A 
HETATM   19  C   UNK N   1      31.412  44.254  60.592  0.00  0.00     0.065 A 
HETATM   20  C   UNK N   1      32.234  43.179  60.246  0.00  0.00     0.037 A 
HETATM   21  C   UNK N   1      32.202  42.656  58.951  0.00  0.00     0.020 A 
BRANCH  19  22
HETATM   22  O   UNK N   1      31.452  44.747  61.846  0.00  0.00    -0.361 OA
HETATM   23  H   UNK N   1      30.856  45.452  62.135  0.00  0.00     0.217 HD
ENDBRANCH  19  22
ENDBRANCH  14  16
ENDBRANCH  13  14
ENDBRANCH   1  13
BRANCH   3  24
HETATM   24  O   UNK N   1      27.652  39.027  58.518  0.00  0.00    -0.389 OA
HETATM   25  H   UNK N   1      26.780  39.390  58.212  0.00  0.00     0.210 HD
ENDBRANCH   3  24
BRANCH   3  26
HETATM   26  C   UNK N   1      29.125  40.810  59.266  0.00  0.00     0.012 C 
HETATM   27  C   UNK N   1      27.941  41.499  59.972  0.00  0.00     0.012 C 
HETATM   28  C   UNK N   1      29.921  40.030  60.332  0.00  0.00     0.012 C 
ENDBRANCH   3  26
BRANCH   5  29
HETATM   29  O   UNK N   1      30.157  37.652  55.588  0.00  0.00    -0.315 OA
BRANCH  29  30
HETATM   30  C   UNK N   1      30.169  36.308  55.358  0.00  0.00     0.255 C 
HETATM   31  O   UNK N   1      31.211  35.672  55.407  0.00  0.00    -0.266 OA
HETATM   32  C   UNK N   1      28.894  35.605  55.015  0.00  0.00     0.126 C 
ENDBRANCH  29  30
ENDBRANCH   5  29
TORSDOF 8
ENDMDL
MODEL 9
REMARK VINA RESULT:      -4.9      1.604      4.415
REMARK  8 active torsions:
REMARK  status: ('A' for Active; 'I' for Inactive)
REMARK    1  A    between atoms: C_2  and  O_3 
REMARK    2  A    between atoms: C_2  and  C_25 
REMARK    3  A    between atoms: O_3  and  C_4 
REMARK    4  A    between atoms: C_6  and  O_7 
REMARK    5  A    between atoms: C_6  and  C_9 
REMARK    6  A    between atoms: C_13  and  O_14 
REMARK    7  A    between atoms: O_14  and  C_15 
REMARK    8  A    between atoms: C_28  and  O_29 
ROOT
HETATM    1  C   UNK N   1      27.182  54.832  41.913  0.00  0.00     0.144 C 
HETATM    2  C   UNK N   1      26.169  54.468  40.771  0.00  0.00     0.061 C 
HETATM    3  C   UNK N   1      26.700  53.351  39.788  0.00  0.00     0.070 C 
HETATM    4  C   UNK N   1      27.409  54.216  38.742  0.00  0.00     0.072 C 
HETATM    5  C   UNK N   1      26.356  55.267  38.413  0.00  0.00     0.143 C 
HETATM    6  C   UNK N   1      25.771  55.677  39.814  0.00  0.00    -0.005 C 
HETATM    7  C   UNK N   1      26.344  57.065  40.241  0.00  0.00     0.039 C 
HETATM    8  C   UNK N   1      25.836  57.621  41.542  0.00  0.00    -0.023 C 
HETATM    9  C   UNK N   1      25.949  57.041  42.756  0.00  0.00    -0.085 C 
HETATM   10  C   UNK N   1      26.573  55.690  43.040  0.00  0.00     0.066 C 
HETATM   11  C   UNK N   1      25.396  57.771  43.958  0.00  0.00     0.043 C 
HETATM   12  C   UNK N   1      24.231  55.794  39.706  0.00  0.00     0.019 C 
ENDROOT
BRANCH   1  13
HETATM   13  O   UNK N   1      28.364  55.370  41.433  0.00  0.00    -0.311 OA
BRANCH  13  14
HETATM   14  C   UNK N   1      29.416  55.753  42.206  0.00  0.00     0.293 C 
HETATM   15  O   UNK N   1      29.651  56.940  42.388  0.00  0.00    -0.259 OA
BRANCH  14  16
HETATM   16  C   UNK N   1      30.265  54.721  42.847  0.00  0.00     0.039 A 
HETATM   17  C   UNK N   1      30.632  54.838  44.201  0.00  0.00     0.020 A 
HETATM   18  C   UNK N   1      31.435  53.863  44.799  0.00  0.00     0.037 A 
HETATM   19  C   UNK N   1      31.884  52.763  44.054  0.00  0.00     0.065 A 
HETATM   20  C   UNK N   1      31.521  52.643  42.710  0.00  0.00     0.037 A 
HETATM   21  C   UNK N   1      30.715  53.613  42.109  0.00  0.00     0.020 A 
BRANCH  19  22
HETATM   22  O   UNK N   1      32.661  51.818  44.620  0.00  0.00    -0.361 OA
HETATM   23  H   UNK N   1      32.357  50.905  44.724  0.00  0.00     0.217 HD
ENDBRANCH  19  22
ENDBRANCH  14  16
ENDBRANCH  13  14
ENDBRANCH   1  13
BRANCH   3  24
HETATM   24  O   UNK N   1      25.610  52.719  39.145  0.00  0.00    -0.389 OA
HETATM   25  H   UNK N   1      25.079  53.411  38.673  0.00  0.00     0.210 HD
ENDBRANCH   3  24
BRANCH   3  26
HETATM   26  C   UNK N   1      27.651  52.241  40.377  0.00  0.00     0.012 C 
HETATM   27  C   UNK N   1      26.962  50.870  40.522  0.00  0.00     0.012 C 
HETATM   28  C   UNK N   1      28.914  52.045  39.513  0.00  0.00     0.012 C 
ENDBRANCH   3  26
BRANCH   5  29
HETATM   29  O   UNK N   1      26.878  56.322  37.671  0.00  0.00    -0.315 OA
BRANCH  29  30
HETATM   30  C   UNK N   1      28.179  56.421  37.279  0.00  0.00     0.255 C 
HETATM   31  O   UNK N   1      28.609  55.753  36.350  0.00  0.00    -0.266 OA
HETATM   32  C   UNK N   1      29.104  57.342  38.011  0.00  0.00     0.126 C 
ENDBRANCH  29  30
ENDBRANCH   5  29
TORSDOF 8
ENDMDL
