MODEL 1
REMARK VINA RESULT:      -5.7      0.000      0.000
REMARK  8 active torsions:
REMARK  status: ('A' for Active; 'I' for Inactive)
REMARK    1  A    between atoms: C_3  and  O_4 
REMARK    2  A    between atoms: C_12  and  O_13 
REMARK    3  A    between atoms: C_15  and  C_16 
REMARK    4  A    between atoms: C_16  and  C_17 
REMARK    5  A    between atoms: C_17  and  C_18 
REMARK    6  A    between atoms: C_19  and  C_33 
REMARK    7  A    between atoms: C_23  and  O_24 
REMARK    8  A    between atoms: C_33  and  O_34 
ROOT
HETATM    1  C   UNK N   1      30.511  46.668  61.352  0.00  0.00     0.009 C 
ENDROOT
BRANCH   1   2
HETATM    2  C   UNK N   1      29.522  45.931  60.369  0.00  0.00     0.030 C 
HETATM    3  C   UNK N   1      30.046  45.698  58.870  0.00  0.00    -0.011 C 
HETATM    4  C   UNK N   1      31.410  44.921  58.923  0.00  0.00     0.015 C 
HETATM    5  C   UNK N   1      28.985  44.868  58.081  0.00  0.00     0.131 C 
HETATM    6  C   UNK N   1      30.300  47.000  58.047  0.00  0.00     0.018 C 
HETATM    7  C   UNK N   1      31.764  44.001  57.724  0.00  0.00     0.035 C 
HETATM    8  C   UNK N   1      31.106  42.594  57.835  0.00  0.00     0.152 C 
HETATM    9  C   UNK N   1      29.553  42.561  57.672  0.00  0.00     0.080 C 
HETATM   10  O   UNK N   1      28.928  43.518  58.533  0.00  0.00    -0.372 OA
HETATM   11  C   UNK N   1      29.019  41.184  58.131  0.00  0.00     0.048 C 
HETATM   12  C   UNK N   1      29.148  42.656  56.164  0.00  0.00     0.048 C 
HETATM   13  C   UNK N   1      27.576  45.469  58.151  0.00  0.00     0.036 C 
HETATM   14  C   UNK N   1      27.109  45.557  59.598  0.00  0.00     0.040 C 
HETATM   15  C   UNK N   1      28.037  46.458  60.445  0.00  0.00     0.059 C 
HETATM   16  C   UNK N   1      27.498  46.397  61.898  0.00  0.00     0.046 C 
BRANCH   8  17
HETATM   17  O   UNK N   1      31.467  42.032  59.075  0.00  0.00    -0.393 OA
HETATM   18  H   UNK N   1      30.631  41.714  59.508  0.00  0.00     0.210 HD
ENDBRANCH   8  17
BRANCH  15  19
HETATM   19  O   UNK N   1      27.982  47.776  59.941  0.00  0.00    -0.390 OA
HETATM   20  H   UNK N   1      28.348  47.804  59.020  0.00  0.00     0.210 HD
ENDBRANCH  15  19
ENDBRANCH   1   2
BRANCH   1  21
HETATM   21  C   UNK N   1      30.933  45.933  62.657  0.00  0.00     0.010 C 
BRANCH  21  22
HETATM   22  C   UNK N   1      32.468  45.604  62.731  0.00  0.00     0.024 C 
HETATM   23  C   UNK N   1      32.780  44.102  62.488  0.00  0.00    -0.056 C 
HETATM   24  C   UNK N   1      34.018  43.689  62.157  0.00  0.00    -0.021 C 
HETATM   25  C   UNK N   1      35.204  44.582  61.995  0.00  0.00     0.035 C 
HETATM   26  C   UNK N   1      35.652  45.184  63.350  0.00  0.00     0.028 C 
HETATM   27  C   UNK N   1      37.016  45.941  63.257  0.00  0.00     0.058 C 
HETATM   28  C   UNK N   1      34.744  46.333  63.843  0.00  0.00     0.001 C 
HETATM   29  C   UNK N   1      36.625  47.228  62.524  0.00  0.00     0.038 C 
HETATM   30  C   UNK N   1      38.169  45.202  62.547  0.00  0.00     0.046 C 
HETATM   31  C   UNK N   1      35.179  47.531  62.961  0.00  0.00     0.009 C 
HETATM   32  C   UNK N   1      33.193  46.136  64.052  0.00  0.00    -0.036 C 
HETATM   33  C   UNK N   1      32.956  45.168  65.238  0.00  0.00     0.016 C 
HETATM   34  C   UNK N   1      32.640  47.518  64.515  0.00  0.00     0.016 C 
BRANCH  23  35
HETATM   35  C   UNK N   1      31.729  43.008  62.664  0.00  0.00     0.198 C 
BRANCH  35  36
HETATM   36  O   UNK N   1      31.970  41.956  61.766  0.00  0.00    -0.397 OA
HETATM   37  H   UNK N   1      32.694  42.237  61.150  0.00  0.00     0.209 HD
ENDBRANCH  35  36
ENDBRANCH  23  35
BRANCH  27  38
HETATM   38  O   UNK N   1      37.456  46.290  64.552  0.00  0.00    -0.390 OA
HETATM   39  H   UNK N   1      37.972  45.520  64.913  0.00  0.00     0.210 HD
ENDBRANCH  27  38
ENDBRANCH  21  22
ENDBRANCH   1  21
TORSDOF 8
ENDMDL
MODEL 2
REMARK VINA RESULT:      -5.1      4.462      7.768
REMARK  8 active torsions:
REMARK  status: ('A' for Active; 'I' for Inactive)
REMARK    1  A    between atoms: C_3  and  O_4 
REMARK    2  A    between atoms: C_12  and  O_13 
REMARK    3  A    between atoms: C_15  and  C_16 
REMARK    4  A    between atoms: C_16  and  C_17 
REMARK    5  A    between atoms: C_17  and  C_18 
REMARK    6  A    between atoms: C_19  and  C_33 
REMARK    7  A    between atoms: C_23  and  O_24 
REMARK    8  A    between atoms: C_33  and  O_34 
ROOT
HETATM    1  C   UNK N   1      29.686  41.911  55.219  0.00  0.00     0.009 C 
ENDROOT
BRANCH   1   2
HETATM    2  C   UNK N   1      28.488  41.120  54.567  0.00  0.00     0.030 C 
HETATM    3  C   UNK N   1      27.125  41.939  54.349  0.00  0.00    -0.011 C 
HETATM    4  C   UNK N   1      27.433  43.222  53.497  0.00  0.00     0.015 C 
HETATM    5  C   UNK N   1      26.096  41.032  53.602  0.00  0.00     0.131 C 
HETATM    6  C   UNK N   1      26.427  42.424  55.659  0.00  0.00     0.018 C 
HETATM    7  C   UNK N   1      26.300  43.779  52.595  0.00  0.00     0.035 C 
HETATM    8  C   UNK N   1      26.212  43.047  51.223  0.00  0.00     0.152 C 
HETATM    9  C   UNK N   1      25.724  41.564  51.281  0.00  0.00     0.080 C 
HETATM   10  O   UNK N   1      26.472  40.816  52.246  0.00  0.00    -0.372 OA
HETATM   11  C   UNK N   1      26.004  40.880  49.922  0.00  0.00     0.048 C 
HETATM   12  C   UNK N   1      24.170  41.494  51.442  0.00  0.00     0.048 C 
HETATM   13  C   UNK N   1      25.892  39.671  54.278  0.00  0.00     0.036 C 
HETATM   14  C   UNK N   1      27.211  38.911  54.349  0.00  0.00     0.040 C 
HETATM   15  C   UNK N   1      28.270  39.679  55.173  0.00  0.00     0.059 C 
HETATM   16  C   UNK N   1      29.572  38.841  55.099  0.00  0.00     0.046 C 
BRANCH   8  17
HETATM   17  O   UNK N   1      27.477  43.107  50.606  0.00  0.00    -0.393 OA
HETATM   18  H   UNK N   1      28.144  42.788  51.270  0.00  0.00     0.210 HD
ENDBRANCH   8  17
BRANCH  15  19
HETATM   19  O   UNK N   1      27.819  39.796  56.505  0.00  0.00    -0.390 OA
HETATM   20  H   UNK N   1      27.924  38.930  56.978  0.00  0.00     0.210 HD
ENDBRANCH  15  19
ENDBRANCH   1   2
BRANCH   1  21
HETATM   21  C   UNK N   1      29.747  42.001  56.772  0.00  0.00     0.010 C 
BRANCH  21  22
HETATM   22  C   UNK N   1      29.888  43.467  57.317  0.00  0.00     0.024 C 
HETATM   23  C   UNK N   1      31.361  43.955  57.375  0.00  0.00    -0.056 C 
HETATM   24  C   UNK N   1      31.663  45.265  57.463  0.00  0.00    -0.021 C 
HETATM   25  C   UNK N   1      30.662  46.371  57.522  0.00  0.00     0.035 C 
HETATM   26  C   UNK N   1      29.872  46.355  58.854  0.00  0.00     0.028 C 
HETATM   27  C   UNK N   1      28.978  47.622  59.047  0.00  0.00     0.058 C 
HETATM   28  C   UNK N   1      28.789  45.254  58.914  0.00  0.00     0.001 C 
HETATM   29  C   UNK N   1      27.829  47.361  58.067  0.00  0.00     0.038 C 
HETATM   30  C   UNK N   1      29.651  48.987  58.794  0.00  0.00     0.046 C 
HETATM   31  C   UNK N   1      27.650  45.831  58.037  0.00  0.00     0.009 C 
HETATM   32  C   UNK N   1      29.140  43.730  58.704  0.00  0.00    -0.036 C 
HETATM   33  C   UNK N   1      29.998  43.235  59.895  0.00  0.00     0.016 C 
HETATM   34  C   UNK N   1      27.789  42.958  58.804  0.00  0.00     0.016 C 
BRANCH  23  35
HETATM   35  C   UNK N   1      32.544  42.990  57.394  0.00  0.00     0.198 C 
BRANCH  35  36
HETATM   36  O   UNK N   1      33.421  43.317  58.440  0.00  0.00    -0.397 OA
HETATM   37  H   UNK N   1      32.913  43.833  59.117  0.00  0.00     0.209 HD
ENDBRANCH  35  36
ENDBRANCH  23  35
BRANCH  27  38
HETATM   38  O   UNK N   1      28.446  47.635  60.354  0.00  0.00    -0.390 OA
HETATM   39  H   UNK N   1      27.591  48.141  60.326  0.00  0.00     0.210 HD
ENDBRANCH  27  38
ENDBRANCH  21  22
ENDBRANCH   1  21
TORSDOF 8
ENDMDL
MODEL 3
REMARK VINA RESULT:      -5.1      3.067      6.268
REMARK  8 active torsions:
REMARK  status: ('A' for Active; 'I' for Inactive)
REMARK    1  A    between atoms: C_3  and  O_4 
REMARK    2  A    between atoms: C_12  and  O_13 
REMARK    3  A    between atoms: C_15  and  C_16 
REMARK    4  A    between atoms: C_16  and  C_17 
REMARK    5  A    between atoms: C_17  and  C_18 
REMARK    6  A    between atoms: C_19  and  C_33 
REMARK    7  A    between atoms: C_23  and  O_24 
REMARK    8  A    between atoms: C_33  and  O_34 
ROOT
HETATM    1  C   UNK N   1      29.679  40.717  60.789  0.00  0.00     0.009 C 
ENDROOT
BRANCH   1   2
HETATM    2  C   UNK N   1      29.538  39.987  59.398  0.00  0.00     0.030 C 
HETATM    3  C   UNK N   1      28.182  40.257  58.583  0.00  0.00    -0.011 C 
HETATM    4  C   UNK N   1      28.008  41.805  58.384  0.00  0.00     0.015 C 
HETATM    5  C   UNK N   1      28.267  39.542  57.198  0.00  0.00     0.131 C 
HETATM    6  C   UNK N   1      26.880  39.741  59.275  0.00  0.00     0.018 C 
HETATM    7  C   UNK N   1      27.240  42.289  57.125  0.00  0.00     0.035 C 
HETATM    8  C   UNK N   1      28.148  42.358  55.861  0.00  0.00     0.152 C 
HETATM    9  C   UNK N   1      28.627  40.982  55.298  0.00  0.00     0.080 C 
HETATM   10  O   UNK N   1      29.202  40.178  56.333  0.00  0.00    -0.372 OA
HETATM   11  C   UNK N   1      29.764  41.214  54.276  0.00  0.00     0.048 C 
HETATM   12  C   UNK N   1      27.492  40.291  54.472  0.00  0.00     0.048 C 
HETATM   13  C   UNK N   1      28.631  38.056  57.308  0.00  0.00     0.036 C 
HETATM   14  C   UNK N   1      29.980  37.891  57.995  0.00  0.00     0.040 C 
HETATM   15  C   UNK N   1      29.966  38.468  59.429  0.00  0.00     0.059 C 
HETATM   16  C   UNK N   1      31.406  38.307  59.979  0.00  0.00     0.046 C 
BRANCH   8  17
HETATM   17  O   UNK N   1      29.264  43.164  56.160  0.00  0.00    -0.393 OA
HETATM   18  H   UNK N   1      28.918  44.032  56.496  0.00  0.00     0.210 HD
ENDBRANCH   8  17
BRANCH  15  19
HETATM   19  O   UNK N   1      29.043  37.738  60.209  0.00  0.00    -0.390 OA
HETATM   20  H   UNK N   1      28.128  37.840  59.839  0.00  0.00     0.210 HD
ENDBRANCH  15  19
ENDBRANCH   1   2
BRANCH   1  21
HETATM   21  C   UNK N   1      30.943  41.592  61.035  0.00  0.00     0.010 C 
BRANCH  21  22
HETATM   22  C   UNK N   1      30.916  42.970  60.282  0.00  0.00     0.024 C 
HETATM   23  C   UNK N   1      32.188  43.220  59.427  0.00  0.00    -0.056 C 
HETATM   24  C   UNK N   1      32.203  44.144  58.447  0.00  0.00    -0.021 C 
HETATM   25  C   UNK N   1      31.050  45.018  58.076  0.00  0.00     0.035 C 
HETATM   26  C   UNK N   1      30.735  46.048  59.189  0.00  0.00     0.028 C 
HETATM   27  C   UNK N   1      29.686  47.119  58.748  0.00  0.00     0.058 C 
HETATM   28  C   UNK N   1      29.996  45.438  60.402  0.00  0.00     0.001 C 
HETATM   29  C   UNK N   1      28.379  46.320  58.763  0.00  0.00     0.038 C 
HETATM   30  C   UNK N   1      29.927  47.800  57.385  0.00  0.00     0.046 C 
HETATM   31  C   UNK N   1      28.543  45.279  59.887  0.00  0.00     0.009 C 
HETATM   32  C   UNK N   1      30.594  44.225  61.216  0.00  0.00    -0.036 C 
HETATM   33  C   UNK N   1      31.865  44.692  61.968  0.00  0.00     0.016 C 
HETATM   34  C   UNK N   1      29.547  43.888  62.320  0.00  0.00     0.016 C 
BRANCH  23  35
HETATM   35  C   UNK N   1      33.502  42.484  59.678  0.00  0.00     0.198 C 
BRANCH  35  36
HETATM   36  O   UNK N   1      34.483  42.920  58.774  0.00  0.00    -0.397 OA
HETATM   37  H   UNK N   1      34.898  43.742  59.143  0.00  0.00     0.209 HD
ENDBRANCH  35  36
ENDBRANCH  23  35
BRANCH  27  38
HETATM   38  O   UNK N   1      29.595  48.130  59.728  0.00  0.00    -0.390 OA
HETATM   39  H   UNK N   1      30.351  48.003  60.362  0.00  0.00     0.210 HD
ENDBRANCH  27  38
ENDBRANCH  21  22
ENDBRANCH   1  21
TORSDOF 8
ENDMDL
MODEL 4
REMARK VINA RESULT:      -5.0      3.415      9.284
REMARK  8 active torsions:
REMARK  status: ('A' for Active; 'I' for Inactive)
REMARK    1  A    between atoms: C_3  and  O_4 
REMARK    2  A    between atoms: C_12  and  O_13 
REMARK    3  A    between atoms: C_15  and  C_16 
REMARK    4  A    between atoms: C_16  and  C_17 
REMARK    5  A    between atoms: C_17  and  C_18 
REMARK    6  A    between atoms: C_19  and  C_33 
REMARK    7  A    between atoms: C_23  and  O_24 
REMARK    8  A    between atoms: C_33  and  O_34 
ROOT
HETATM    1  C   UNK N   1      30.512  42.197  57.565  0.00  0.00     0.009 C 
ENDROOT
BRANCH   1   2
HETATM    2  C   UNK N   1      30.415  43.082  58.867  0.00  0.00     0.030 C 
HETATM    3  C   UNK N   1      30.043  44.628  58.653  0.00  0.00    -0.011 C 
HETATM    4  C   UNK N   1      28.694  44.721  57.852  0.00  0.00     0.015 C 
HETATM    5  C   UNK N   1      29.889  45.315  60.047  0.00  0.00     0.131 C 
HETATM    6  C   UNK N   1      31.098  45.460  57.858  0.00  0.00     0.018 C 
HETATM    7  C   UNK N   1      27.792  45.960  58.100  0.00  0.00     0.035 C 
HETATM    8  C   UNK N   1      26.885  45.798  59.356  0.00  0.00     0.152 C 
HETATM    9  C   UNK N   1      27.629  45.802  60.730  0.00  0.00     0.080 C 
HETATM   10  O   UNK N   1      28.717  44.873  60.725  0.00  0.00    -0.372 OA
HETATM   11  C   UNK N   1      26.667  45.306  61.834  0.00  0.00     0.048 C 
HETATM   12  C   UNK N   1      27.999  47.261  61.158  0.00  0.00     0.048 C 
HETATM   13  C   UNK N   1      31.099  45.096  60.963  0.00  0.00     0.036 C 
HETATM   14  C   UNK N   1      31.319  43.608  61.203  0.00  0.00     0.040 C 
HETATM   15  C   UNK N   1      31.598  42.851  59.885  0.00  0.00     0.059 C 
HETATM   16  C   UNK N   1      31.723  41.352  60.261  0.00  0.00     0.046 C 
BRANCH   8  17
HETATM   17  O   UNK N   1      26.147  44.605  59.219  0.00  0.00    -0.393 OA
HETATM   18  H   UNK N   1      25.737  44.615  58.314  0.00  0.00     0.210 HD
ENDBRANCH   8  17
BRANCH  15  19
HETATM   19  O   UNK N   1      32.799  43.333  59.322  0.00  0.00    -0.390 OA
HETATM   20  H   UNK N   1      33.375  43.723  60.030  0.00  0.00     0.210 HD
ENDBRANCH  15  19
ENDBRANCH   1   2
BRANCH   1  21
HETATM   21  C   UNK N   1      29.357  41.196  57.270  0.00  0.00     0.010 C 
BRANCH  21  22
HETATM   22  C   UNK N   1      28.575  41.504  55.943  0.00  0.00     0.024 C 
HETATM   23  C   UNK N   1      27.049  41.688  56.165  0.00  0.00    -0.056 C 
HETATM   24  C   UNK N   1      26.276  42.300  55.247  0.00  0.00    -0.021 C 
HETATM   25  C   UNK N   1      26.763  42.849  53.947  0.00  0.00     0.035 C 
HETATM   26  C   UNK N   1      27.203  41.721  52.981  0.00  0.00     0.028 C 
HETATM   27  C   UNK N   1      27.506  42.239  51.538  0.00  0.00     0.058 C 
HETATM   28  C   UNK N   1      28.576  41.106  53.337  0.00  0.00     0.001 C 
HETATM   29  C   UNK N   1      28.849  42.952  51.725  0.00  0.00     0.038 C 
HETATM   30  C   UNK N   1      26.448  43.163  50.900  0.00  0.00     0.046 C 
HETATM   31  C   UNK N   1      29.581  42.174  52.835  0.00  0.00     0.009 C 
HETATM   32  C   UNK N   1      28.863  40.476  54.754  0.00  0.00    -0.036 C 
HETATM   33  C   UNK N   1      28.017  39.190  54.922  0.00  0.00     0.016 C 
HETATM   34  C   UNK N   1      30.349  40.006  54.725  0.00  0.00     0.016 C 
BRANCH  23  35
HETATM   35  C   UNK N   1      26.329  41.144  57.397  0.00  0.00     0.198 C 
BRANCH  35  36
HETATM   36  O   UNK N   1      25.526  42.143  57.971  0.00  0.00    -0.397 OA
HETATM   37  H   UNK N   1      24.883  41.705  58.586  0.00  0.00     0.209 HD
ENDBRANCH  35  36
ENDBRANCH  23  35
BRANCH  27  38
HETATM   38  O   UNK N   1      27.706  41.144  50.671  0.00  0.00    -0.390 OA
HETATM   39  H   UNK N   1      28.445  40.593  51.047  0.00  0.00     0.210 HD
ENDBRANCH  27  38
ENDBRANCH  21  22
ENDBRANCH   1  21
TORSDOF 8
ENDMDL
MODEL 5
REMARK VINA RESULT:      -4.9      4.593      7.360
REMARK  8 active torsions:
REMARK  status: ('A' for Active; 'I' for Inactive)
REMARK    1  A    between atoms: C_3  and  O_4 
REMARK    2  A    between atoms: C_12  and  O_13 
REMARK    3  A    between atoms: C_15  and  C_16 
REMARK    4  A    between atoms: C_16  and  C_17 
REMARK    5  A    between atoms: C_17  and  C_18 
REMARK    6  A    between atoms: C_19  and  C_33 
REMARK    7  A    between atoms: C_23  and  O_24 
REMARK    8  A    between atoms: C_33  and  O_34 
ROOT
HETATM    1  C   UNK N   1      28.898  42.445  55.504  0.00  0.00     0.009 C 
ENDROOT
BRANCH   1   2
HETATM    2  C   UNK N   1      27.540  41.812  55.010  0.00  0.00     0.030 C 
HETATM    3  C   UNK N   1      27.654  40.643  53.916  0.00  0.00    -0.011 C 
HETATM    4  C   UNK N   1      28.589  39.511  54.476  0.00  0.00     0.015 C 
HETATM    5  C   UNK N   1      26.229  40.071  53.629  0.00  0.00     0.131 C 
HETATM    6  C   UNK N   1      28.247  41.079  52.539  0.00  0.00     0.018 C 
HETATM    7  C   UNK N   1      28.333  38.059  53.992  0.00  0.00     0.035 C 
HETATM    8  C   UNK N   1      27.207  37.349  54.800  0.00  0.00     0.152 C 
HETATM    9  C   UNK N   1      25.763  37.902  54.574  0.00  0.00     0.080 C 
HETATM   10  O   UNK N   1      25.729  39.324  54.734  0.00  0.00    -0.372 OA
HETATM   11  C   UNK N   1      24.823  37.342  55.667  0.00  0.00     0.048 C 
HETATM   12  C   UNK N   1      25.166  37.369  53.230  0.00  0.00     0.048 C 
HETATM   13  C   UNK N   1      25.207  41.154  53.265  0.00  0.00     0.036 C 
HETATM   14  C   UNK N   1      25.079  42.164  54.399  0.00  0.00     0.040 C 
HETATM   15  C   UNK N   1      26.421  42.875  54.685  0.00  0.00     0.059 C 
HETATM   16  C   UNK N   1      26.171  43.808  55.899  0.00  0.00     0.046 C 
BRANCH   8  17
HETATM   17  O   UNK N   1      27.533  37.417  56.169  0.00  0.00    -0.393 OA
HETATM   18  H   UNK N   1      27.385  38.355  56.461  0.00  0.00     0.210 HD
ENDBRANCH   8  17
BRANCH  15  19
HETATM   19  O   UNK N   1      26.799  43.619  53.547  0.00  0.00    -0.390 OA
HETATM   20  H   UNK N   1      27.444  44.329  53.801  0.00  0.00     0.210 HD
ENDBRANCH  15  19
ENDBRANCH   1   2
BRANCH   1  21
HETATM   21  C   UNK N   1      29.160  42.518  57.036  0.00  0.00     0.010 C 
BRANCH  21  22
HETATM   22  C   UNK N   1      29.460  43.968  57.560  0.00  0.00     0.024 C 
HETATM   23  C   UNK N   1      30.956  44.363  57.432  0.00  0.00    -0.056 C 
HETATM   24  C   UNK N   1      31.349  45.651  57.481  0.00  0.00    -0.021 C 
HETATM   25  C   UNK N   1      30.434  46.816  57.667  0.00  0.00     0.035 C 
HETATM   26  C   UNK N   1      29.819  46.837  59.088  0.00  0.00     0.028 C 
HETATM   27  C   UNK N   1      29.039  48.156  59.394  0.00  0.00     0.058 C 
HETATM   28  C   UNK N   1      28.686  45.806  59.284  0.00  0.00     0.001 C 
HETATM   29  C   UNK N   1      27.761  47.976  58.567  0.00  0.00     0.038 C 
HETATM   30  C   UNK N   1      29.758  49.478  59.059  0.00  0.00     0.046 C 
HETATM   31  C   UNK N   1      27.483  46.460  58.558  0.00  0.00     0.009 C 
HETATM   32  C   UNK N   1      28.911  44.265  59.031  0.00  0.00    -0.036 C 
HETATM   33  C   UNK N   1      29.879  43.707  60.103  0.00  0.00     0.016 C 
HETATM   34  C   UNK N   1      27.537  43.578  59.299  0.00  0.00     0.016 C 
BRANCH  23  35
HETATM   35  C   UNK N   1      32.069  43.325  57.300  0.00  0.00     0.198 C 
BRANCH  35  36
HETATM   36  O   UNK N   1      32.479  43.220  55.962  0.00  0.00    -0.397 OA
HETATM   37  H   UNK N   1      32.706  44.129  55.638  0.00  0.00     0.209 HD
ENDBRANCH  35  36
ENDBRANCH  23  35
BRANCH  27  38
HETATM   38  O   UNK N   1      28.678  48.191  60.758  0.00  0.00    -0.390 OA
HETATM   39  H   UNK N   1      28.281  47.308  60.987  0.00  0.00     0.210 HD
ENDBRANCH  27  38
ENDBRANCH  21  22
ENDBRANCH   1  21
TORSDOF 8
ENDMDL
MODEL 6
REMARK VINA RESULT:      -4.6      3.697      7.802
REMARK  8 active torsions:
REMARK  status: ('A' for Active; 'I' for Inactive)
REMARK    1  A    between atoms: C_3  and  O_4 
REMARK    2  A    between atoms: C_12  and  O_13 
REMARK    3  A    between atoms: C_15  and  C_16 
REMARK    4  A    between atoms: C_16  and  C_17 
REMARK    5  A    between atoms: C_17  and  C_18 
REMARK    6  A    between atoms: C_19  and  C_33 
REMARK    7  A    between atoms: C_23  and  O_24 
REMARK    8  A    between atoms: C_33  and  O_34 
ROOT
HETATM    1  C   UNK N   1      29.975  47.735  58.803  0.00  0.00     0.009 C 
ENDROOT
BRANCH   1   2
HETATM    2  C   UNK N   1      30.014  46.425  59.682  0.00  0.00     0.030 C 
HETATM    3  C   UNK N   1      29.759  45.041  58.912  0.00  0.00    -0.011 C 
HETATM    4  C   UNK N   1      30.792  44.915  57.735  0.00  0.00     0.015 C 
HETATM    5  C   UNK N   1      29.939  43.857  59.914  0.00  0.00     0.131 C 
HETATM    6  C   UNK N   1      28.338  44.884  58.284  0.00  0.00     0.018 C 
HETATM    7  C   UNK N   1      31.225  43.489  57.304  0.00  0.00     0.035 C 
HETATM    8  C   UNK N   1      32.366  42.914  58.195  0.00  0.00     0.152 C 
HETATM    9  C   UNK N   1      31.966  42.576  59.667  0.00  0.00     0.080 C 
HETATM   10  O   UNK N   1      31.303  43.683  60.285  0.00  0.00    -0.372 OA
HETATM   11  C   UNK N   1      33.245  42.342  60.504  0.00  0.00     0.048 C 
HETATM   12  C   UNK N   1      31.197  41.215  59.737  0.00  0.00     0.048 C 
HETATM   13  C   UNK N   1      29.100  44.014  61.188  0.00  0.00     0.036 C 
HETATM   14  C   UNK N   1      29.478  45.297  61.917  0.00  0.00     0.040 C 
HETATM   15  C   UNK N   1      29.225  46.547  61.043  0.00  0.00     0.059 C 
HETATM   16  C   UNK N   1      29.720  47.764  61.867  0.00  0.00     0.046 C 
BRANCH   8  17
HETATM   17  O   UNK N   1      33.436  43.831  58.192  0.00  0.00    -0.393 OA
HETATM   18  H   UNK N   1      34.185  43.411  58.691  0.00  0.00     0.210 HD
ENDBRANCH   8  17
BRANCH  15  19
HETATM   19  O   UNK N   1      27.843  46.648  60.774  0.00  0.00    -0.390 OA
HETATM   20  H   UNK N   1      27.319  46.398  61.580  0.00  0.00     0.210 HD
ENDBRANCH  15  19
ENDBRANCH   1   2
BRANCH   1  21
HETATM   21  C   UNK N   1      28.723  47.983  57.911  0.00  0.00     0.010 C 
BRANCH  21  22
HETATM   22  C   UNK N   1      27.733  49.056  58.492  0.00  0.00     0.024 C 
HETATM   23  C   UNK N   1      26.265  48.556  58.555  0.00  0.00    -0.056 C 
HETATM   24  C   UNK N   1      25.350  49.165  59.334  0.00  0.00    -0.021 C 
HETATM   25  C   UNK N   1      25.616  50.355  60.196  0.00  0.00     0.035 C 
HETATM   26  C   UNK N   1      25.894  51.621  59.348  0.00  0.00     0.028 C 
HETATM   27  C   UNK N   1      25.955  52.926  60.206  0.00  0.00     0.058 C 
HETATM   28  C   UNK N   1      27.308  51.647  58.725  0.00  0.00     0.001 C 
HETATM   29  C   UNK N   1      27.309  52.789  60.910  0.00  0.00     0.038 C 
HETATM   30  C   UNK N   1      24.805  53.147  61.210  0.00  0.00     0.046 C 
HETATM   31  C   UNK N   1      28.215  52.029  59.922  0.00  0.00     0.009 C 
HETATM   32  C   UNK N   1      27.825  50.487  57.789  0.00  0.00    -0.036 C 
HETATM   33  C   UNK N   1      27.021  50.502  56.465  0.00  0.00     0.016 C 
HETATM   34  C   UNK N   1      29.287  50.864  57.402  0.00  0.00     0.016 C 
BRANCH  23  35
HETATM   35  C   UNK N   1      25.757  47.393  57.705  0.00  0.00     0.198 C 
BRANCH  35  36
HETATM   36  O   UNK N   1      24.712  47.821  56.871  0.00  0.00    -0.397 OA
HETATM   37  H   UNK N   1      25.107  48.352  56.132  0.00  0.00     0.209 HD
ENDBRANCH  35  36
ENDBRANCH  23  35
BRANCH  27  38
HETATM   38  O   UNK N   1      26.013  54.052  59.357  0.00  0.00    -0.390 OA
HETATM   39  H   UNK N   1      25.085  54.390  59.241  0.00  0.00     0.210 HD
ENDBRANCH  27  38
ENDBRANCH  21  22
ENDBRANCH   1  21
TORSDOF 8
ENDMDL
MODEL 7
REMARK VINA RESULT:      -4.5     14.682     20.512
REMARK  8 active torsions:
REMARK  status: ('A' for Active; 'I' for Inactive)
REMARK    1  A    between atoms: C_3  and  O_4 
REMARK    2  A    between atoms: C_12  and  O_13 
REMARK    3  A    between atoms: C_15  and  C_16 
REMARK    4  A    between atoms: C_16  and  C_17 
REMARK    5  A    between atoms: C_17  and  C_18 
REMARK    6  A    between atoms: C_19  and  C_33 
REMARK    7  A    between atoms: C_23  and  O_24 
REMARK    8  A    between atoms: C_33  and  O_34 
ROOT
HETATM    1  C   UNK N   1      50.812  52.272  57.857  0.00  0.00     0.009 C 
ENDROOT
BRANCH   1   2
HETATM    2  C   UNK N   1      51.093  53.822  57.768  0.00  0.00     0.030 C 
HETATM    3  C   UNK N   1      50.015  54.698  56.965  0.00  0.00    -0.011 C 
HETATM    4  C   UNK N   1      48.595  54.458  57.592  0.00  0.00     0.015 C 
HETATM    5  C   UNK N   1      50.401  56.208  57.071  0.00  0.00     0.131 C 
HETATM    6  C   UNK N   1      49.898  54.372  55.442  0.00  0.00     0.018 C 
HETATM    7  C   UNK N   1      47.562  55.612  57.503  0.00  0.00     0.035 C 
HETATM    8  C   UNK N   1      47.742  56.665  58.637  0.00  0.00     0.152 C 
HETATM    9  C   UNK N   1      49.037  57.535  58.550  0.00  0.00     0.080 C 
HETATM   10  O   UNK N   1      50.196  56.712  58.387  0.00  0.00    -0.372 OA
HETATM   11  C   UNK N   1      49.244  58.280  59.889  0.00  0.00     0.048 C 
HETATM   12  C   UNK N   1      48.873  58.674  57.489  0.00  0.00     0.048 C 
HETATM   13  C   UNK N   1      51.851  56.488  56.658  0.00  0.00     0.036 C 
HETATM   14  C   UNK N   1      52.815  55.703  57.538  0.00  0.00     0.040 C 
HETATM   15  C   UNK N   1      52.589  54.178  57.414  0.00  0.00     0.059 C 
HETATM   16  C   UNK N   1      53.571  53.509  58.409  0.00  0.00     0.046 C 
BRANCH   8  17
HETATM   17  O   UNK N   1      47.702  55.994  59.875  0.00  0.00    -0.393 OA
HETATM   18  H   UNK N   1      48.365  56.434  60.469  0.00  0.00     0.210 HD
ENDBRANCH   8  17
BRANCH  15  19
HETATM   19  O   UNK N   1      52.863  53.779  56.088  0.00  0.00    -0.390 OA
HETATM   20  H   UNK N   1      53.633  54.293  55.729  0.00  0.00     0.210 HD
ENDBRANCH  15  19
ENDBRANCH   1   2
BRANCH   1  21
HETATM   21  C   UNK N   1      50.997  51.571  59.235  0.00  0.00     0.010 C 
BRANCH  21  22
HETATM   22  C   UNK N   1      49.659  51.382  60.035  0.00  0.00     0.024 C 
HETATM   23  C   UNK N   1      49.295  52.611  60.911  0.00  0.00    -0.056 C 
HETATM   24  C   UNK N   1      48.044  52.795  61.376  0.00  0.00    -0.021 C 
HETATM   25  C   UNK N   1      46.895  51.875  61.127  0.00  0.00     0.035 C 
HETATM   26  C   UNK N   1      47.082  50.521  61.856  0.00  0.00     0.028 C 
HETATM   27  C   UNK N   1      45.805  49.621  61.804  0.00  0.00     0.058 C 
HETATM   28  C   UNK N   1      48.096  49.583  61.163  0.00  0.00     0.001 C 
HETATM   29  C   UNK N   1      45.811  49.132  60.352  0.00  0.00     0.038 C 
HETATM   30  C   UNK N   1      44.469  50.296  62.177  0.00  0.00     0.046 C 
HETATM   31  C   UNK N   1      47.297  49.029  59.956  0.00  0.00     0.009 C 
HETATM   32  C   UNK N   1      49.583  50.029  60.882  0.00  0.00    -0.036 C 
HETATM   33  C   UNK N   1      50.334  50.179  62.228  0.00  0.00     0.016 C 
HETATM   34  C   UNK N   1      50.261  48.832  60.148  0.00  0.00     0.016 C 
BRANCH  23  35
HETATM   35  C   UNK N   1      50.333  53.645  61.342  0.00  0.00     0.198 C 
BRANCH  35  36
HETATM   36  O   UNK N   1      49.998  54.910  60.834  0.00  0.00    -0.397 OA
HETATM   37  H   UNK N   1      50.230  54.925  59.870  0.00  0.00     0.209 HD
ENDBRANCH  35  36
ENDBRANCH  23  35
BRANCH  27  38
HETATM   38  O   UNK N   1      45.976  48.502  62.646  0.00  0.00    -0.390 OA
HETATM   39  H   UNK N   1      45.090  48.285  63.043  0.00  0.00     0.210 HD
ENDBRANCH  27  38
ENDBRANCH  21  22
ENDBRANCH   1  21
TORSDOF 8
ENDMDL
MODEL 8
REMARK VINA RESULT:      -4.5     12.436     15.954
REMARK  8 active torsions:
REMARK  status: ('A' for Active; 'I' for Inactive)
REMARK    1  A    between atoms: C_3  and  O_4 
REMARK    2  A    between atoms: C_12  and  O_13 
REMARK    3  A    between atoms: C_15  and  C_16 
REMARK    4  A    between atoms: C_16  and  C_17 
REMARK    5  A    between atoms: C_17  and  C_18 
REMARK    6  A    between atoms: C_19  and  C_33 
REMARK    7  A    between atoms: C_23  and  O_24 
REMARK    8  A    between atoms: C_33  and  O_34 
ROOT
HETATM    1  C   UNK N   1      42.132  54.103  64.161  0.00  0.00     0.009 C 
ENDROOT
BRANCH   1   2
HETATM    2  C   UNK N   1      42.005  55.465  63.377  0.00  0.00     0.030 C 
HETATM    3  C   UNK N   1      43.285  56.433  63.414  0.00  0.00    -0.011 C 
HETATM    4  C   UNK N   1      44.536  55.641  62.891  0.00  0.00     0.015 C 
HETATM    5  C   UNK N   1      43.015  57.673  62.504  0.00  0.00     0.131 C 
HETATM    6  C   UNK N   1      43.657  56.985  64.826  0.00  0.00     0.018 C 
HETATM    7  C   UNK N   1      45.662  56.449  62.193  0.00  0.00     0.035 C 
HETATM    8  C   UNK N   1      45.363  56.714  60.688  0.00  0.00     0.152 C 
HETATM    9  C   UNK N   1      44.186  57.700  60.397  0.00  0.00     0.080 C 
HETATM   10  O   UNK N   1      43.012  57.323  61.124  0.00  0.00    -0.372 OA
HETATM   11  C   UNK N   1      43.795  57.606  58.904  0.00  0.00     0.048 C 
HETATM   12  C   UNK N   1      44.641  59.185  60.591  0.00  0.00     0.048 C 
HETATM   13  C   UNK N   1      41.697  58.386  62.833  0.00  0.00     0.036 C 
HETATM   14  C   UNK N   1      40.523  57.430  62.670  0.00  0.00     0.040 C 
HETATM   15  C   UNK N   1      40.638  56.215  63.619  0.00  0.00     0.059 C 
HETATM   16  C   UNK N   1      39.433  55.294  63.298  0.00  0.00     0.046 C 
BRANCH   8  17
HETATM   17  O   UNK N   1      45.112  55.478  60.060  0.00  0.00    -0.393 OA
HETATM   18  H   UNK N   1      44.292  55.100  60.473  0.00  0.00     0.210 HD
ENDBRANCH   8  17
BRANCH  15  19
HETATM   19  O   UNK N   1      40.584  56.669  64.955  0.00  0.00    -0.390 OA
HETATM   20  H   UNK N   1      40.240  55.950  65.546  0.00  0.00     0.210 HD
ENDBRANCH  15  19
ENDBRANCH   1   2
BRANCH   1  21
HETATM   21  C   UNK N   1      42.071  52.778  63.346  0.00  0.00     0.010 C 
BRANCH  21  22
HETATM   22  C   UNK N   1      43.481  52.161  63.032  0.00  0.00     0.024 C 
HETATM   23  C   UNK N   1      43.455  51.157  61.848  0.00  0.00    -0.056 C 
HETATM   24  C   UNK N   1      44.584  50.805  61.202  0.00  0.00    -0.021 C 
HETATM   25  C   UNK N   1      45.951  51.308  61.532  0.00  0.00     0.035 C 
HETATM   26  C   UNK N   1      46.440  50.773  62.901  0.00  0.00     0.028 C 
HETATM   27  C   UNK N   1      47.944  51.093  63.177  0.00  0.00     0.058 C 
HETATM   28  C   UNK N   1      45.790  51.485  64.109  0.00  0.00     0.001 C 
HETATM   29  C   UNK N   1      47.905  52.592  63.490  0.00  0.00     0.038 C 
HETATM   30  C   UNK N   1      48.938  50.769  62.043  0.00  0.00     0.046 C 
HETATM   31  C   UNK N   1      46.542  52.839  64.166  0.00  0.00     0.009 C 
HETATM   32  C   UNK N   1      44.225  51.537  64.300  0.00  0.00    -0.036 C 
HETATM   33  C   UNK N   1      43.700  50.112  64.600  0.00  0.00     0.016 C 
HETATM   34  C   UNK N   1      43.976  52.364  65.599  0.00  0.00     0.016 C 
BRANCH  23  35
HETATM   35  C   UNK N   1      42.173  50.469  61.385  0.00  0.00     0.198 C 
BRANCH  35  36
HETATM   36  O   UNK N   1      42.275  50.112  60.031  0.00  0.00    -0.397 OA
HETATM   37  H   UNK N   1      42.587  49.172  59.984  0.00  0.00     0.209 HD
ENDBRANCH  35  36
ENDBRANCH  23  35
BRANCH  27  38
HETATM   38  O   UNK N   1      48.371  50.413  64.337  0.00  0.00    -0.390 OA
HETATM   39  H   UNK N   1      48.863  51.065  64.905  0.00  0.00     0.210 HD
ENDBRANCH  27  38
ENDBRANCH  21  22
ENDBRANCH   1  21
TORSDOF 8
ENDMDL
MODEL 9
REMARK VINA RESULT:      -4.5      3.732      8.687
REMARK  8 active torsions:
REMARK  status: ('A' for Active; 'I' for Inactive)
REMARK    1  A    between atoms: C_3  and  O_4 
REMARK    2  A    between atoms: C_12  and  O_13 
REMARK    3  A    between atoms: C_15  and  C_16 
REMARK    4  A    between atoms: C_16  and  C_17 
REMARK    5  A    between atoms: C_17  and  C_18 
REMARK    6  A    between atoms: C_19  and  C_33 
REMARK    7  A    between atoms: C_23  and  O_24 
REMARK    8  A    between atoms: C_33  and  O_34 
ROOT
HETATM    1  C   UNK N   1      29.243  44.089  56.975  0.00  0.00     0.009 C 
ENDROOT
BRANCH   1   2
HETATM    2  C   UNK N   1      30.211  43.565  58.104  0.00  0.00     0.030 C 
HETATM    3  C   UNK N   1      30.027  44.213  59.561  0.00  0.00    -0.011 C 
HETATM    4  C   UNK N   1      28.536  44.024  60.017  0.00  0.00     0.015 C 
HETATM    5  C   UNK N   1      30.991  43.503  60.563  0.00  0.00     0.131 C 
HETATM    6  C   UNK N   1      30.336  45.741  59.649  0.00  0.00     0.018 C 
HETATM    7  C   UNK N   1      28.256  43.914  61.540  0.00  0.00     0.035 C 
HETATM    8  C   UNK N   1      28.472  42.470  62.085  0.00  0.00     0.152 C 
HETATM    9  C   UNK N   1      29.952  41.972  62.107  0.00  0.00     0.080 C 
HETATM   10  O   UNK N   1      30.577  42.168  60.835  0.00  0.00    -0.372 OA
HETATM   11  C   UNK N   1      29.974  40.444  62.347  0.00  0.00     0.048 C 
HETATM   12  C   UNK N   1      30.724  42.572  63.329  0.00  0.00     0.048 C 
HETATM   13  C   UNK N   1      32.447  43.478  60.082  0.00  0.00     0.036 C 
HETATM   14  C   UNK N   1      32.552  42.751  58.747  0.00  0.00     0.040 C 
HETATM   15  C   UNK N   1      31.718  43.449  57.649  0.00  0.00     0.059 C 
HETATM   16  C   UNK N   1      31.849  42.572  56.377  0.00  0.00     0.046 C 
BRANCH   8  17
HETATM   17  O   UNK N   1      27.684  41.586  61.322  0.00  0.00    -0.393 OA
HETATM   18  H   UNK N   1      26.929  41.293  61.897  0.00  0.00     0.210 HD
ENDBRANCH   8  17
BRANCH  15  19
HETATM   19  O   UNK N   1      32.240  44.741  57.427  0.00  0.00    -0.390 OA
HETATM   20  H   UNK N   1      33.211  44.756  57.628  0.00  0.00     0.210 HD
ENDBRANCH  15  19
ENDBRANCH   1   2
BRANCH   1  21
HETATM   21  C   UNK N   1      28.033  43.195  56.572  0.00  0.00     0.010 C 
BRANCH  21  22
HETATM   22  C   UNK N   1      28.432  41.728  56.177  0.00  0.00     0.024 C 
HETATM   23  C   UNK N   1      28.768  41.575  54.669  0.00  0.00    -0.056 C 
HETATM   24  C   UNK N   1      29.464  40.516  54.210  0.00  0.00    -0.021 C 
HETATM   25  C   UNK N   1      29.974  39.396  55.055  0.00  0.00     0.035 C 
HETATM   26  C   UNK N   1      28.817  38.530  55.611  0.00  0.00     0.028 C 
HETATM   27  C   UNK N   1      29.317  37.225  56.311  0.00  0.00     0.058 C 
HETATM   28  C   UNK N   1      28.063  39.190  56.788  0.00  0.00     0.001 C 
HETATM   29  C   UNK N   1      29.889  37.761  57.628  0.00  0.00     0.038 C 
HETATM   30  C   UNK N   1      30.349  36.379  55.538  0.00  0.00     0.046 C 
HETATM   31  C   UNK N   1      29.029  38.990  57.983  0.00  0.00     0.009 C 
HETATM   32  C   UNK N   1      27.393  40.612  56.652  0.00  0.00    -0.036 C 
HETATM   33  C   UNK N   1      26.197  40.521  55.672  0.00  0.00     0.016 C 
HETATM   34  C   UNK N   1      26.775  40.933  58.047  0.00  0.00     0.016 C 
BRANCH  23  35
HETATM   35  C   UNK N   1      28.287  42.572  53.617  0.00  0.00     0.198 C 
BRANCH  35  36
HETATM   36  O   UNK N   1      29.127  42.535  52.493  0.00  0.00    -0.397 OA
HETATM   37  H   UNK N   1      29.372  41.589  52.323  0.00  0.00     0.209 HD
ENDBRANCH  35  36
ENDBRANCH  23  35
BRANCH  27  38
HETATM   38  O   UNK N   1      28.216  36.396  56.615  0.00  0.00    -0.390 OA
HETATM   39  H   UNK N   1      28.418  35.929  57.470  0.00  0.00     0.210 HD
ENDBRANCH  27  38
ENDBRANCH  21  22
ENDBRANCH   1  21
TORSDOF 8
ENDMDL
