MODEL 1
REMARK VINA RESULT:      -5.5      0.000      0.000
REMARK  11 active torsions:
REMARK  status: ('A' for Active; 'I' for Inactive)
REMARK    1  A    between atoms: C_2  and  O_3 
REMARK    2  A    between atoms: C_2  and  C_36 
REMARK    3  A    between atoms: O_3  and  C_4 
REMARK    4  A    between atoms: C_6  and  O_7 
REMARK    5  A    between atoms: O_7  and  C_8 
REMARK    6  A    between atoms: C_12  and  O_13 
REMARK    7  A    between atoms: C_12  and  C_32 
REMARK    8  A    between atoms: C_16  and  O_17 
REMARK    9  A    between atoms: O_17  and  C_18 
REMARK   10  A    between atoms: C_18  and  C_20 
REMARK   11  A    between atoms: C_23  and  O_24 
ROOT
HETATM    1  C   UNK N   1      30.209  41.759  58.643  0.00  0.00     0.166 C 
HETATM    2  C   UNK N   1      28.688  42.140  58.666  0.00  0.00     0.022 C 
HETATM    3  C   UNK N   1      28.440  43.447  57.821  0.00  0.00     0.146 C 
HETATM    4  C   UNK N   1      27.668  42.985  56.586  0.00  0.00     0.072 C 
HETATM    5  C   UNK N   1      26.695  41.965  57.179  0.00  0.00     0.070 C 
HETATM    6  C   UNK N   1      27.693  41.082  58.020  0.00  0.00     0.064 C 
HETATM    7  C   UNK N   1      28.384  39.895  57.240  0.00  0.00     0.144 C 
HETATM    8  C   UNK N   1      28.979  38.860  58.205  0.00  0.00     0.066 C 
HETATM    9  C   UNK N   1      30.056  39.253  59.200  0.00  0.00    -0.083 C 
HETATM   10  C   UNK N   1      30.564  40.494  59.393  0.00  0.00     0.009 C 
HETATM   11  C   UNK N   1      30.583  38.129  60.061  0.00  0.00     0.043 C 
HETATM   12  C   UNK N   1      28.275  42.408  60.140  0.00  0.00     0.021 C 
ENDROOT
BRANCH   7  13
HETATM   13  O   UNK N   1      29.384  40.267  56.365  0.00  0.00    -0.311 OA
BRANCH  13  14
HETATM   14  C   UNK N   1      29.595  39.806  55.105  0.00  0.00     0.293 C 
HETATM   15  O   UNK N   1      30.247  38.791  54.909  0.00  0.00    -0.259 OA
BRANCH  14  16
HETATM   16  C   UNK N   1      29.059  40.595  53.967  0.00  0.00     0.039 A 
HETATM   17  C   UNK N   1      27.912  40.182  53.266  0.00  0.00     0.020 A 
HETATM   18  C   UNK N   1      27.429  40.946  52.195  0.00  0.00     0.037 A 
HETATM   19  C   UNK N   1      28.091  42.122  51.810  0.00  0.00     0.065 A 
HETATM   20  C   UNK N   1      29.238  42.526  52.494  0.00  0.00     0.037 A 
HETATM   21  C   UNK N   1      29.719  41.771  53.563  0.00  0.00     0.020 A 
BRANCH  19  22
HETATM   22  O   UNK N   1      27.636  42.867  50.783  0.00  0.00    -0.361 OA
HETATM   23  H   UNK N   1      27.178  42.470  50.027  0.00  0.00     0.217 HD
ENDBRANCH  19  22
ENDBRANCH  14  16
ENDBRANCH  13  14
ENDBRANCH   7  13
BRANCH   5  24
HETATM   24  O   UNK N   1      25.820  42.672  58.040  0.00  0.00    -0.389 OA
HETATM   25  H   UNK N   1      26.340  43.010  58.814  0.00  0.00     0.210 HD
ENDBRANCH   5  24
BRANCH   5  26
HETATM   26  C   UNK N   1      25.827  41.227  56.098  0.00  0.00     0.012 C 
HETATM   27  C   UNK N   1      24.633  40.469  56.717  0.00  0.00     0.012 C 
HETATM   28  C   UNK N   1      25.278  42.202  55.038  0.00  0.00     0.012 C 
ENDBRANCH   5  26
BRANCH   1  29
HETATM   29  O   UNK N   1      30.931  42.804  59.203  0.00  0.00    -0.307 OA
BRANCH  29  30
HETATM   30  C   UNK N   1      32.282  42.958  59.135  0.00  0.00     0.294 C 
HETATM   31  O   UNK N   1      32.872  42.806  58.075  0.00  0.00    -0.259 OA
BRANCH  30  32
HETATM   32  C   UNK N   1      33.023  43.348  60.357  0.00  0.00     0.039 A 
HETATM   33  C   UNK N   1      32.339  43.693  61.537  0.00  0.00     0.017 A 
HETATM   34  C   UNK N   1      33.055  44.062  62.682  0.00  0.00     0.001 A 
HETATM   35  C   UNK N   1      34.452  44.091  62.658  0.00  0.00     0.000 A 
HETATM   36  C   UNK N   1      35.138  43.748  61.491  0.00  0.00     0.001 A 
HETATM   37  C   UNK N   1      34.429  43.375  60.345  0.00  0.00     0.017 A 
ENDBRANCH  30  32
ENDBRANCH  29  30
ENDBRANCH   1  29
BRANCH   3  38
HETATM   38  O   UNK N   1      29.594  44.131  57.470  0.00  0.00    -0.315 OA
BRANCH  38  39
HETATM   39  C   UNK N   1      29.841  45.437  57.741  0.00  0.00     0.255 C 
HETATM   40  O   UNK N   1      28.971  46.158  58.207  0.00  0.00    -0.266 OA
HETATM   41  C   UNK N   1      31.210  45.985  57.490  0.00  0.00     0.126 C 
ENDBRANCH  38  39
ENDBRANCH   3  38
TORSDOF 11
ENDMDL
MODEL 2
REMARK VINA RESULT:      -5.0      2.079      5.958
REMARK  11 active torsions:
REMARK  status: ('A' for Active; 'I' for Inactive)
REMARK    1  A    between atoms: C_2  and  O_3 
REMARK    2  A    between atoms: C_2  and  C_36 
REMARK    3  A    between atoms: O_3  and  C_4 
REMARK    4  A    between atoms: C_6  and  O_7 
REMARK    5  A    between atoms: O_7  and  C_8 
REMARK    6  A    between atoms: C_12  and  O_13 
REMARK    7  A    between atoms: C_12  and  C_32 
REMARK    8  A    between atoms: C_16  and  O_17 
REMARK    9  A    between atoms: O_17  and  C_18 
REMARK   10  A    between atoms: C_18  and  C_20 
REMARK   11  A    between atoms: C_23  and  O_24 
ROOT
HETATM    1  C   UNK N   1      29.392  43.243  58.257  0.00  0.00     0.166 C 
HETATM    2  C   UNK N   1      28.256  42.409  57.570  0.00  0.00     0.022 C 
HETATM    3  C   UNK N   1      28.783  41.769  56.229  0.00  0.00     0.146 C 
HETATM    4  C   UNK N   1      28.863  40.269  56.506  0.00  0.00     0.072 C 
HETATM    5  C   UNK N   1      27.586  40.021  57.310  0.00  0.00     0.070 C 
HETATM    6  C   UNK N   1      27.711  41.162  58.391  0.00  0.00     0.064 C 
HETATM    7  C   UNK N   1      28.538  40.793  59.685  0.00  0.00     0.144 C 
HETATM    8  C   UNK N   1      28.250  41.771  60.833  0.00  0.00     0.066 C 
HETATM    9  C   UNK N   1      28.542  43.254  60.684  0.00  0.00    -0.083 C 
HETATM   10  C   UNK N   1      29.013  43.876  59.578  0.00  0.00     0.009 C 
HETATM   11  C   UNK N   1      28.251  44.096  61.903  0.00  0.00     0.043 C 
HETATM   12  C   UNK N   1      27.078  43.368  57.241  0.00  0.00     0.021 C 
ENDROOT
BRANCH   7  13
HETATM   13  O   UNK N   1      29.906  40.744  59.518  0.00  0.00    -0.311 OA
BRANCH  13  14
HETATM   14  C   UNK N   1      30.843  40.422  60.447  0.00  0.00     0.293 C 
HETATM   15  O   UNK N   1      30.796  39.357  61.043  0.00  0.00    -0.259 OA
BRANCH  14  16
HETATM   16  C   UNK N   1      31.897  41.420  60.760  0.00  0.00     0.039 A 
HETATM   17  C   UNK N   1      33.079  41.500  60.001  0.00  0.00     0.020 A 
HETATM   18  C   UNK N   1      34.057  42.451  60.320  0.00  0.00     0.037 A 
HETATM   19  C   UNK N   1      33.870  43.323  61.403  0.00  0.00     0.065 A 
HETATM   20  C   UNK N   1      32.705  43.236  62.167  0.00  0.00     0.037 A 
HETATM   21  C   UNK N   1      31.727  42.294  61.850  0.00  0.00     0.020 A 
BRANCH  19  22
HETATM   22  O   UNK N   1      34.802  44.244  61.720  0.00  0.00    -0.361 OA
HETATM   23  H   UNK N   1      34.684  45.182  61.510  0.00  0.00     0.217 HD
ENDBRANCH  19  22
ENDBRANCH  14  16
ENDBRANCH  13  14
ENDBRANCH   7  13
BRANCH   5  24
HETATM   24  O   UNK N   1      26.492  40.281  56.449  0.00  0.00    -0.389 OA
HETATM   25  H   UNK N   1      26.841  40.590  55.574  0.00  0.00     0.210 HD
ENDBRANCH   5  24
BRANCH   5  26
HETATM   26  C   UNK N   1      27.455  38.549  57.839  0.00  0.00     0.012 C 
HETATM   27  C   UNK N   1      26.047  38.244  58.393  0.00  0.00     0.012 C 
HETATM   28  C   UNK N   1      27.773  37.513  56.742  0.00  0.00     0.012 C 
ENDBRANCH   5  26
BRANCH   1  29
HETATM   29  O   UNK N   1      29.776  44.258  57.391  0.00  0.00    -0.307 OA
BRANCH  29  30
HETATM   30  C   UNK N   1      30.761  45.167  57.625  0.00  0.00     0.294 C 
HETATM   31  O   UNK N   1      31.937  44.850  57.517  0.00  0.00    -0.259 OA
BRANCH  30  32
HETATM   32  C   UNK N   1      30.388  46.557  57.977  0.00  0.00     0.039 A 
HETATM   33  C   UNK N   1      29.858  46.863  59.245  0.00  0.00     0.017 A 
HETATM   34  C   UNK N   1      29.508  48.181  59.560  0.00  0.00     0.001 A 
HETATM   35  C   UNK N   1      29.681  49.198  58.618  0.00  0.00     0.000 A 
HETATM   36  C   UNK N   1      30.208  48.903  57.359  0.00  0.00     0.001 A 
HETATM   37  C   UNK N   1      30.564  47.590  57.039  0.00  0.00     0.017 A 
ENDBRANCH  30  32
ENDBRANCH  29  30
ENDBRANCH   1  29
BRANCH   3  38
HETATM   38  O   UNK N   1      30.000  42.270  55.795  0.00  0.00    -0.315 OA
BRANCH  38  39
HETATM   39  C   UNK N   1      30.590  41.971  54.610  0.00  0.00     0.255 C 
HETATM   40  O   UNK N   1      31.779  41.691  54.553  0.00  0.00    -0.266 OA
HETATM   41  C   UNK N   1      29.760  41.961  53.366  0.00  0.00     0.126 C 
ENDBRANCH  38  39
ENDBRANCH   3  38
TORSDOF 11
ENDMDL
MODEL 3
REMARK VINA RESULT:      -4.8     17.887     22.845
REMARK  11 active torsions:
REMARK  status: ('A' for Active; 'I' for Inactive)
REMARK    1  A    between atoms: C_2  and  O_3 
REMARK    2  A    between atoms: C_2  and  C_36 
REMARK    3  A    between atoms: O_3  and  C_4 
REMARK    4  A    between atoms: C_6  and  O_7 
REMARK    5  A    between atoms: O_7  and  C_8 
REMARK    6  A    between atoms: C_12  and  O_13 
REMARK    7  A    between atoms: C_12  and  C_32 
REMARK    8  A    between atoms: C_16  and  O_17 
REMARK    9  A    between atoms: O_17  and  C_18 
REMARK   10  A    between atoms: C_18  and  C_20 
REMARK   11  A    between atoms: C_23  and  O_24 
ROOT
HETATM    1  C   UNK N   1      51.326  48.733  60.049  0.00  0.00     0.166 C 
HETATM    2  C   UNK N   1      52.156  49.952  60.583  0.00  0.00     0.022 C 
HETATM    3  C   UNK N   1      51.513  51.306  60.092  0.00  0.00     0.146 C 
HETATM    4  C   UNK N   1      50.928  51.950  61.348  0.00  0.00     0.072 C 
HETATM    5  C   UNK N   1      52.011  51.665  62.390  0.00  0.00     0.070 C 
HETATM    6  C   UNK N   1      52.217  50.119  62.162  0.00  0.00     0.064 C 
HETATM    7  C   UNK N   1      51.252  49.170  62.978  0.00  0.00     0.144 C 
HETATM    8  C   UNK N   1      51.791  47.733  63.032  0.00  0.00     0.066 C 
HETATM    9  C   UNK N   1      52.012  46.937  61.758  0.00  0.00    -0.083 C 
HETATM   10  C   UNK N   1      51.828  47.375  60.490  0.00  0.00     0.009 C 
HETATM   11  C   UNK N   1      52.505  45.524  61.956  0.00  0.00     0.043 C 
HETATM   12  C   UNK N   1      53.599  49.846  60.016  0.00  0.00     0.021 C 
ENDROOT
BRANCH   7  13
HETATM   13  O   UNK N   1      49.955  49.108  62.514  0.00  0.00    -0.311 OA
BRANCH  13  14
HETATM   14  C   UNK N   1      48.817  49.397  63.196  0.00  0.00     0.293 C 
HETATM   15  O   UNK N   1      48.829  49.532  64.410  0.00  0.00    -0.259 OA
BRANCH  14  16
HETATM   16  C   UNK N   1      47.544  49.494  62.436  0.00  0.00     0.039 A 
HETATM   17  C   UNK N   1      47.509  49.312  61.042  0.00  0.00     0.020 A 
HETATM   18  C   UNK N   1      46.295  49.409  60.350  0.00  0.00     0.037 A 
HETATM   19  C   UNK N   1      45.108  49.699  61.041  0.00  0.00     0.065 A 
HETATM   20  C   UNK N   1      45.143  49.895  62.422  0.00  0.00     0.037 A 
HETATM   21  C   UNK N   1      46.348  49.794  63.115  0.00  0.00     0.020 A 
BRANCH  19  22
HETATM   22  O   UNK N   1      43.932  49.794  60.388  0.00  0.00    -0.361 OA
HETATM   23  H   UNK N   1      43.280  49.079  60.404  0.00  0.00     0.217 HD
ENDBRANCH  19  22
ENDBRANCH  14  16
ENDBRANCH  13  14
ENDBRANCH   7  13
BRANCH   5  24
HETATM   24  O   UNK N   1      53.170  52.376  61.995  0.00  0.00    -0.389 OA
HETATM   25  H   UNK N   1      52.938  53.335  61.898  0.00  0.00     0.210 HD
ENDBRANCH   5  24
BRANCH   5  26
HETATM   26  C   UNK N   1      51.622  52.126  63.839  0.00  0.00     0.012 C 
HETATM   27  C   UNK N   1      52.641  53.121  64.435  0.00  0.00     0.012 C 
HETATM   28  C   UNK N   1      50.229  52.785  63.878  0.00  0.00     0.012 C 
ENDBRANCH   5  26
BRANCH   1  29
HETATM   29  O   UNK N   1      51.343  48.765  58.662  0.00  0.00    -0.307 OA
BRANCH  29  30
HETATM   30  C   UNK N   1      51.310  47.677  57.845  0.00  0.00     0.294 C 
HETATM   31  O   UNK N   1      52.338  47.076  57.570  0.00  0.00    -0.259 OA
BRANCH  30  32
HETATM   32  C   UNK N   1      50.005  47.211  57.320  0.00  0.00     0.039 A 
HETATM   33  C   UNK N   1      48.906  47.027  58.178  0.00  0.00     0.017 A 
HETATM   34  C   UNK N   1      47.680  46.584  57.666  0.00  0.00     0.001 A 
HETATM   35  C   UNK N   1      47.545  46.321  56.301  0.00  0.00     0.000 A 
HETATM   36  C   UNK N   1      48.630  46.504  55.442  0.00  0.00     0.001 A 
HETATM   37  C   UNK N   1      49.855  46.950  55.946  0.00  0.00     0.017 A 
ENDBRANCH  30  32
ENDBRANCH  29  30
ENDBRANCH   1  29
BRANCH   3  38
HETATM   38  O   UNK N   1      50.552  51.159  59.104  0.00  0.00    -0.315 OA
BRANCH  38  39
HETATM   39  C   UNK N   1      50.363  52.012  58.066  0.00  0.00     0.255 C 
HETATM   40  O   UNK N   1      49.600  52.962  58.165  0.00  0.00    -0.266 OA
HETATM   41  C   UNK N   1      51.124  51.794  56.797  0.00  0.00     0.126 C 
ENDBRANCH  38  39
ENDBRANCH   3  38
TORSDOF 11
ENDMDL
MODEL 4
REMARK VINA RESULT:      -4.8     17.719     22.155
REMARK  11 active torsions:
REMARK  status: ('A' for Active; 'I' for Inactive)
REMARK    1  A    between atoms: C_2  and  O_3 
REMARK    2  A    between atoms: C_2  and  C_36 
REMARK    3  A    between atoms: O_3  and  C_4 
REMARK    4  A    between atoms: C_6  and  O_7 
REMARK    5  A    between atoms: O_7  and  C_8 
REMARK    6  A    between atoms: C_12  and  O_13 
REMARK    7  A    between atoms: C_12  and  C_32 
REMARK    8  A    between atoms: C_16  and  O_17 
REMARK    9  A    between atoms: O_17  and  C_18 
REMARK   10  A    between atoms: C_18  and  C_20 
REMARK   11  A    between atoms: C_23  and  O_24 
ROOT
HETATM    1  C   UNK N   1      47.917  52.328  61.263  0.00  0.00     0.166 C 
HETATM    2  C   UNK N   1      48.782  51.104  61.723  0.00  0.00     0.022 C 
HETATM    3  C   UNK N   1      48.174  49.763  61.159  0.00  0.00     0.146 C 
HETATM    4  C   UNK N   1      49.171  49.281  60.108  0.00  0.00     0.072 C 
HETATM    5  C   UNK N   1      50.513  49.578  60.779  0.00  0.00     0.070 C 
HETATM    6  C   UNK N   1      50.285  51.077  61.208  0.00  0.00     0.064 C 
HETATM    7  C   UNK N   1      50.645  52.164  60.121  0.00  0.00     0.144 C 
HETATM    8  C   UNK N   1      50.804  53.556  60.749  0.00  0.00     0.066 C 
HETATM    9  C   UNK N   1      49.650  54.215  61.484  0.00  0.00    -0.083 C 
HETATM   10  C   UNK N   1      48.428  53.679  61.714  0.00  0.00     0.009 C 
HETATM   11  C   UNK N   1      49.929  55.600  62.018  0.00  0.00     0.043 C 
HETATM   12  C   UNK N   1      48.764  51.050  63.276  0.00  0.00     0.021 C 
ENDROOT
BRANCH   7  13
HETATM   13  O   UNK N   1      49.744  52.282  59.082  0.00  0.00    -0.311 OA
BRANCH  13  14
HETATM   14  C   UNK N   1      49.967  52.803  57.848  0.00  0.00     0.293 C 
HETATM   15  O   UNK N   1      50.749  52.273  57.074  0.00  0.00    -0.259 OA
BRANCH  14  16
HETATM   16  C   UNK N   1      49.274  54.065  57.481  0.00  0.00     0.039 A 
HETATM   17  C   UNK N   1      48.097  54.471  58.136  0.00  0.00     0.020 A 
HETATM   18  C   UNK N   1      47.465  55.666  57.768  0.00  0.00     0.037 A 
HETATM   19  C   UNK N   1      47.995  56.460  56.739  0.00  0.00     0.065 A 
HETATM   20  C   UNK N   1      49.154  56.051  56.078  0.00  0.00     0.037 A 
HETATM   21  C   UNK N   1      49.789  54.866  56.444  0.00  0.00     0.020 A 
BRANCH  19  22
HETATM   22  O   UNK N   1      47.397  57.613  56.377  0.00  0.00    -0.361 OA
HETATM   23  H   UNK N   1      46.540  57.624  55.927  0.00  0.00     0.217 HD
ENDBRANCH  19  22
ENDBRANCH  14  16
ENDBRANCH  13  14
ENDBRANCH   7  13
BRANCH   5  24
HETATM   24  O   UNK N   1      50.602  48.749  61.924  0.00  0.00    -0.389 OA
HETATM   25  H   UNK N   1      51.468  48.267  61.902  0.00  0.00     0.210 HD
ENDBRANCH   5  24
BRANCH   5  26
HETATM   26  C   UNK N   1      51.752  49.279  59.861  0.00  0.00     0.012 C 
HETATM   27  C   UNK N   1      52.724  48.261  60.493  0.00  0.00     0.012 C 
HETATM   28  C   UNK N   1      51.327  48.744  58.479  0.00  0.00     0.012 C 
ENDBRANCH   5  26
BRANCH   1  29
HETATM   29  O   UNK N   1      46.632  52.169  61.762  0.00  0.00    -0.307 OA
BRANCH  29  30
HETATM   30  C   UNK N   1      45.541  52.890  61.384  0.00  0.00     0.294 C 
HETATM   31  O   UNK N   1      45.349  53.154  60.206  0.00  0.00    -0.259 OA
BRANCH  30  32
HETATM   32  C   UNK N   1      44.569  53.320  62.417  0.00  0.00     0.039 A 
HETATM   33  C   UNK N   1      44.520  54.658  62.848  0.00  0.00     0.017 A 
HETATM   34  C   UNK N   1      43.598  55.047  63.827  0.00  0.00     0.001 A 
HETATM   35  C   UNK N   1      42.724  54.108  64.381  0.00  0.00     0.000 A 
HETATM   36  C   UNK N   1      42.766  52.778  63.957  0.00  0.00     0.001 A 
HETATM   37  C   UNK N   1      43.682  52.384  62.977  0.00  0.00     0.017 A 
ENDBRANCH  30  32
ENDBRANCH  29  30
ENDBRANCH   1  29
BRANCH   3  38
HETATM   38  O   UNK N   1      46.899  49.891  60.627  0.00  0.00    -0.315 OA
BRANCH  38  39
HETATM   39  C   UNK N   1      45.870  49.035  60.849  0.00  0.00     0.255 C 
HETATM   40  O   UNK N   1      46.076  47.851  61.076  0.00  0.00    -0.266 OA
HETATM   41  C   UNK N   1      44.471  49.562  60.841  0.00  0.00     0.126 C 
ENDBRANCH  38  39
ENDBRANCH   3  38
TORSDOF 11
ENDMDL
MODEL 5
REMARK VINA RESULT:      -4.4     18.493     23.072
REMARK  11 active torsions:
REMARK  status: ('A' for Active; 'I' for Inactive)
REMARK    1  A    between atoms: C_2  and  O_3 
REMARK    2  A    between atoms: C_2  and  C_36 
REMARK    3  A    between atoms: O_3  and  C_4 
REMARK    4  A    between atoms: C_6  and  O_7 
REMARK    5  A    between atoms: O_7  and  C_8 
REMARK    6  A    between atoms: C_12  and  O_13 
REMARK    7  A    between atoms: C_12  and  C_32 
REMARK    8  A    between atoms: C_16  and  O_17 
REMARK    9  A    between atoms: O_17  and  C_18 
REMARK   10  A    between atoms: C_18  and  C_20 
REMARK   11  A    between atoms: C_23  and  O_24 
ROOT
HETATM    1  C   UNK N   1      50.075  51.524  61.031  0.00  0.00     0.166 C 
HETATM    2  C   UNK N   1      51.392  51.724  60.205  0.00  0.00     0.022 C 
HETATM    3  C   UNK N   1      51.437  50.713  58.996  0.00  0.00     0.146 C 
HETATM    4  C   UNK N   1      51.259  51.574  57.747  0.00  0.00     0.072 C 
HETATM    5  C   UNK N   1      52.118  52.797  58.074  0.00  0.00     0.070 C 
HETATM    6  C   UNK N   1      51.574  53.143  59.512  0.00  0.00     0.064 C 
HETATM    7  C   UNK N   1      50.306  54.083  59.558  0.00  0.00     0.144 C 
HETATM    8  C   UNK N   1      50.116  54.702  60.950  0.00  0.00     0.066 C 
HETATM    9  C   UNK N   1      49.901  53.823  62.170  0.00  0.00    -0.083 C 
HETATM   10  C   UNK N   1      49.902  52.469  62.200  0.00  0.00     0.009 C 
HETATM   11  C   UNK N   1      49.686  54.562  63.470  0.00  0.00     0.043 C 
HETATM   12  C   UNK N   1      52.601  51.445  61.140  0.00  0.00     0.021 C 
ENDROOT
BRANCH   7  13
HETATM   13  O   UNK N   1      49.113  53.484  59.207  0.00  0.00    -0.311 OA
BRANCH  13  14
HETATM   14  C   UNK N   1      47.939  54.095  58.902  0.00  0.00     0.293 C 
HETATM   15  O   UNK N   1      47.748  54.572  57.794  0.00  0.00    -0.259 OA
BRANCH  14  16
HETATM   16  C   UNK N   1      46.911  54.215  59.967  0.00  0.00     0.039 A 
HETATM   17  C   UNK N   1      46.336  55.456  60.293  0.00  0.00     0.020 A 
HETATM   18  C   UNK N   1      45.368  55.540  61.303  0.00  0.00     0.037 A 
HETATM   19  C   UNK N   1      44.974  54.389  62.002  0.00  0.00     0.065 A 
HETATM   20  C   UNK N   1      45.554  53.158  61.691  0.00  0.00     0.037 A 
HETATM   21  C   UNK N   1      46.513  53.070  60.683  0.00  0.00     0.020 A 
BRANCH  19  22
HETATM   22  O   UNK N   1      44.043  54.455  62.975  0.00  0.00    -0.361 OA
HETATM   23  H   UNK N   1      43.148  54.108  62.849  0.00  0.00     0.217 HD
ENDBRANCH  19  22
ENDBRANCH  14  16
ENDBRANCH  13  14
ENDBRANCH   7  13
BRANCH   5  24
HETATM   24  O   UNK N   1      53.462  52.356  58.151  0.00  0.00    -0.389 OA
HETATM   25  H   UNK N   1      53.469  51.369  58.237  0.00  0.00     0.210 HD
ENDBRANCH   5  24
BRANCH   5  26
HETATM   26  C   UNK N   1      52.035  53.929  56.988  0.00  0.00     0.012 C 
HETATM   27  C   UNK N   1      53.370  54.128  56.241  0.00  0.00     0.012 C 
HETATM   28  C   UNK N   1      50.938  53.643  55.944  0.00  0.00     0.012 C 
ENDBRANCH   5  26
BRANCH   1  29
HETATM   29  O   UNK N   1      50.060  50.227  61.525  0.00  0.00    -0.307 OA
BRANCH  29  30
HETATM   30  C   UNK N   1      49.130  49.715  62.378  0.00  0.00     0.294 C 
HETATM   31  O   UNK N   1      49.446  49.373  63.508  0.00  0.00    -0.259 OA
BRANCH  30  32
HETATM   32  C   UNK N   1      47.722  49.612  61.928  0.00  0.00     0.039 A 
HETATM   33  C   UNK N   1      47.412  49.340  60.582  0.00  0.00     0.017 A 
HETATM   34  C   UNK N   1      46.076  49.248  60.174  0.00  0.00     0.001 A 
HETATM   35  C   UNK N   1      45.045  49.429  61.100  0.00  0.00     0.000 A 
HETATM   36  C   UNK N   1      45.345  49.697  62.437  0.00  0.00     0.001 A 
HETATM   37  C   UNK N   1      46.676  49.786  62.852  0.00  0.00     0.017 A 
ENDBRANCH  30  32
ENDBRANCH  29  30
ENDBRANCH   1  29
BRANCH   3  38
HETATM   38  O   UNK N   1      50.488  49.705  59.056  0.00  0.00    -0.315 OA
BRANCH  38  39
HETATM   39  C   UNK N   1      50.734  48.386  58.854  0.00  0.00     0.255 C 
HETATM   40  O   UNK N   1      50.265  47.538  59.599  0.00  0.00    -0.266 OA
HETATM   41  C   UNK N   1      51.569  47.973  57.684  0.00  0.00     0.126 C 
ENDBRANCH  38  39
ENDBRANCH   3  38
TORSDOF 11
ENDMDL
MODEL 6
REMARK VINA RESULT:      -4.4     17.809     22.547
REMARK  11 active torsions:
REMARK  status: ('A' for Active; 'I' for Inactive)
REMARK    1  A    between atoms: C_2  and  O_3 
REMARK    2  A    between atoms: C_2  and  C_36 
REMARK    3  A    between atoms: O_3  and  C_4 
REMARK    4  A    between atoms: C_6  and  O_7 
REMARK    5  A    between atoms: O_7  and  C_8 
REMARK    6  A    between atoms: C_12  and  O_13 
REMARK    7  A    between atoms: C_12  and  C_32 
REMARK    8  A    between atoms: C_16  and  O_17 
REMARK    9  A    between atoms: O_17  and  C_18 
REMARK   10  A    between atoms: C_18  and  C_20 
REMARK   11  A    between atoms: C_23  and  O_24 
ROOT
HETATM    1  C   UNK N   1      48.328  51.850  62.686  0.00  0.00     0.166 C 
HETATM    2  C   UNK N   1      49.121  50.520  62.439  0.00  0.00     0.022 C 
HETATM    3  C   UNK N   1      48.271  49.536  61.546  0.00  0.00     0.146 C 
HETATM    4  C   UNK N   1      48.994  49.488  60.202  0.00  0.00     0.072 C 
HETATM    5  C   UNK N   1      50.463  49.452  60.628  0.00  0.00     0.070 C 
HETATM    6  C   UNK N   1      50.489  50.659  61.642  0.00  0.00     0.064 C 
HETATM    7  C   UNK N   1      50.759  52.081  61.009  0.00  0.00     0.144 C 
HETATM    8  C   UNK N   1      51.188  53.098  62.076  0.00  0.00     0.066 C 
HETATM    9  C   UNK N   1      50.273  53.439  63.239  0.00  0.00    -0.083 C 
HETATM   10  C   UNK N   1      49.063  52.891  63.502  0.00  0.00     0.009 C 
HETATM   11  C   UNK N   1      50.801  54.485  64.192  0.00  0.00     0.043 C 
HETATM   12  C   UNK N   1      49.388  49.848  63.814  0.00  0.00     0.021 C 
ENDROOT
BRANCH   7  13
HETATM   13  O   UNK N   1      49.699  52.631  60.318  0.00  0.00    -0.311 OA
BRANCH  13  14
HETATM   14  C   UNK N   1      49.688  53.072  59.033  0.00  0.00     0.293 C 
HETATM   15  O   UNK N   1      50.168  52.399  58.134  0.00  0.00    -0.259 OA
BRANCH  14  16
HETATM   16  C   UNK N   1      49.124  54.418  58.756  0.00  0.00     0.039 A 
HETATM   17  C   UNK N   1      48.347  54.664  57.609  0.00  0.00     0.020 A 
HETATM   18  C   UNK N   1      47.830  55.944  57.372  0.00  0.00     0.037 A 
HETATM   19  C   UNK N   1      48.090  56.990  58.270  0.00  0.00     0.065 A 
HETATM   20  C   UNK N   1      48.874  56.752  59.400  0.00  0.00     0.037 A 
HETATM   21  C   UNK N   1      49.387  55.479  59.642  0.00  0.00     0.020 A 
BRANCH  19  22
HETATM   22  O   UNK N   1      47.597  58.227  58.055  0.00  0.00    -0.361 OA
HETATM   23  H   UNK N   1      46.672  58.371  57.809  0.00  0.00     0.217 HD
ENDBRANCH  19  22
ENDBRANCH  14  16
ENDBRANCH  13  14
ENDBRANCH   7  13
BRANCH   5  24
HETATM   24  O   UNK N   1      50.670  48.231  61.315  0.00  0.00    -0.389 OA
HETATM   25  H   UNK N   1      49.916  47.620  61.113  0.00  0.00     0.210 HD
ENDBRANCH   5  24
BRANCH   5  26
HETATM   26  C   UNK N   1      51.467  49.513  59.422  0.00  0.00     0.012 C 
HETATM   27  C   UNK N   1      52.935  49.348  59.868  0.00  0.00     0.012 C 
HETATM   28  C   UNK N   1      51.161  48.432  58.366  0.00  0.00     0.012 C 
ENDBRANCH   5  26
BRANCH   1  29
HETATM   29  O   UNK N   1      47.149  51.541  63.350  0.00  0.00    -0.307 OA
BRANCH  29  30
HETATM   30  C   UNK N   1      46.015  52.293  63.342  0.00  0.00     0.294 C 
HETATM   31  O   UNK N   1      45.128  52.089  64.157  0.00  0.00    -0.259 OA
BRANCH  30  32
HETATM   32  C   UNK N   1      45.887  53.389  62.352  0.00  0.00     0.039 A 
HETATM   33  C   UNK N   1      45.903  54.736  62.759  0.00  0.00     0.017 A 
HETATM   34  C   UNK N   1      45.778  55.758  61.811  0.00  0.00     0.001 A 
HETATM   35  C   UNK N   1      45.634  55.445  60.457  0.00  0.00     0.000 A 
HETATM   36  C   UNK N   1      45.619  54.111  60.045  0.00  0.00     0.001 A 
HETATM   37  C   UNK N   1      45.748  53.086  60.985  0.00  0.00     0.017 A 
ENDBRANCH  30  32
ENDBRANCH  29  30
ENDBRANCH   1  29
BRANCH   3  38
HETATM   38  O   UNK N   1      46.943  49.903  61.394  0.00  0.00    -0.315 OA
BRANCH  38  39
HETATM   39  C   UNK N   1      45.905  49.040  61.254  0.00  0.00     0.255 C 
HETATM   40  O   UNK N   1      46.080  47.832  61.314  0.00  0.00    -0.266 OA
HETATM   41  C   UNK N   1      44.527  49.587  61.052  0.00  0.00     0.126 C 
ENDBRANCH  38  39
ENDBRANCH   3  38
TORSDOF 11
ENDMDL
MODEL 7
REMARK VINA RESULT:      -4.3     18.120     21.280
REMARK  11 active torsions:
REMARK  status: ('A' for Active; 'I' for Inactive)
REMARK    1  A    between atoms: C_2  and  O_3 
REMARK    2  A    between atoms: C_2  and  C_36 
REMARK    3  A    between atoms: O_3  and  C_4 
REMARK    4  A    between atoms: C_6  and  O_7 
REMARK    5  A    between atoms: O_7  and  C_8 
REMARK    6  A    between atoms: C_12  and  O_13 
REMARK    7  A    between atoms: C_12  and  C_32 
REMARK    8  A    between atoms: C_16  and  O_17 
REMARK    9  A    between atoms: O_17  and  C_18 
REMARK   10  A    between atoms: C_18  and  C_20 
REMARK   11  A    between atoms: C_23  and  O_24 
ROOT
HETATM    1  C   UNK N   1      48.275  50.588  60.930  0.00  0.00     0.166 C 
HETATM    2  C   UNK N   1      48.175  50.169  62.437  0.00  0.00     0.022 C 
HETATM    3  C   UNK N   1      48.191  51.446  63.361  0.00  0.00     0.146 C 
HETATM    4  C   UNK N   1      46.780  51.542  63.937  0.00  0.00     0.072 C 
HETATM    5  C   UNK N   1      46.457  50.079  64.242  0.00  0.00     0.070 C 
HETATM    6  C   UNK N   1      46.843  49.415  62.866  0.00  0.00     0.064 C 
HETATM    7  C   UNK N   1      45.703  49.387  61.773  0.00  0.00     0.144 C 
HETATM    8  C   UNK N   1      46.012  48.371  60.664  0.00  0.00     0.066 C 
HETATM    9  C   UNK N   1      47.262  48.505  59.812  0.00  0.00    -0.083 C 
HETATM   10  C   UNK N   1      48.231  49.443  59.942  0.00  0.00     0.009 C 
HETATM   11  C   UNK N   1      47.423  47.463  58.731  0.00  0.00     0.043 C 
HETATM   12  C   UNK N   1      49.406  49.284  62.780  0.00  0.00     0.021 C 
ENDROOT
BRANCH   7  13
HETATM   13  O   UNK N   1      45.440  50.596  61.163  0.00  0.00    -0.311 OA
BRANCH  13  14
HETATM   14  C   UNK N   1      44.464  51.487  61.478  0.00  0.00     0.293 C 
HETATM   15  O   UNK N   1      43.314  51.120  61.666  0.00  0.00    -0.259 OA
BRANCH  14  16
HETATM   16  C   UNK N   1      44.819  52.928  61.537  0.00  0.00     0.039 A 
HETATM   17  C   UNK N   1      44.326  53.762  62.557  0.00  0.00     0.020 A 
HETATM   18  C   UNK N   1      44.677  55.119  62.587  0.00  0.00     0.037 A 
HETATM   19  C   UNK N   1      45.513  55.655  61.596  0.00  0.00     0.065 A 
HETATM   20  C   UNK N   1      45.990  54.833  60.575  0.00  0.00     0.037 A 
HETATM   21  C   UNK N   1      45.648  53.482  60.544  0.00  0.00     0.020 A 
BRANCH  19  22
HETATM   22  O   UNK N   1      45.859  56.959  61.614  0.00  0.00    -0.361 OA
HETATM   23  H   UNK N   1      45.197  57.662  61.677  0.00  0.00     0.217 HD
ENDBRANCH  19  22
ENDBRANCH  14  16
ENDBRANCH  13  14
ENDBRANCH   7  13
BRANCH   5  24
HETATM   24  O   UNK N   1      47.349  49.655  65.257  0.00  0.00    -0.389 OA
HETATM   25  H   UNK N   1      48.266  49.622  64.882  0.00  0.00     0.210 HD
ENDBRANCH   5  24
BRANCH   5  26
HETATM   26  C   UNK N   1      44.990  49.855  64.755  0.00  0.00     0.012 C 
HETATM   27  C   UNK N   1      44.850  48.571  65.600  0.00  0.00     0.012 C 
HETATM   28  C   UNK N   1      44.489  51.043  65.600  0.00  0.00     0.012 C 
ENDBRANCH   5  26
BRANCH   1  29
HETATM   29  O   UNK N   1      49.471  51.267  60.742  0.00  0.00    -0.307 OA
BRANCH  29  30
HETATM   30  C   UNK N   1      50.134  51.392  59.559  0.00  0.00     0.294 C 
HETATM   31  O   UNK N   1      50.917  50.528  59.192  0.00  0.00    -0.259 OA
BRANCH  30  32
HETATM   32  C   UNK N   1      49.866  52.573  58.706  0.00  0.00     0.039 A 
HETATM   33  C   UNK N   1      49.218  53.709  59.228  0.00  0.00     0.017 A 
HETATM   34  C   UNK N   1      48.970  54.815  58.407  0.00  0.00     0.001 A 
HETATM   35  C   UNK N   1      49.363  54.797  57.066  0.00  0.00     0.000 A 
HETATM   36  C   UNK N   1      50.008  53.675  56.542  0.00  0.00     0.001 A 
HETATM   37  C   UNK N   1      50.262  52.568  57.357  0.00  0.00     0.017 A 
ENDBRANCH  30  32
ENDBRANCH  29  30
ENDBRANCH   1  29
BRANCH   3  38
HETATM   38  O   UNK N   1      48.555  52.617  62.714  0.00  0.00    -0.315 OA
BRANCH  38  39
HETATM   39  C   UNK N   1      49.172  53.674  63.299  0.00  0.00     0.255 C 
HETATM   40  O   UNK N   1      50.358  53.626  63.592  0.00  0.00    -0.266 OA
HETATM   41  C   UNK N   1      48.389  54.921  63.559  0.00  0.00     0.126 C 
ENDBRANCH  38  39
ENDBRANCH   3  38
TORSDOF 11
ENDMDL
MODEL 8
REMARK VINA RESULT:      -4.3     17.131     20.907
REMARK  11 active torsions:
REMARK  status: ('A' for Active; 'I' for Inactive)
REMARK    1  A    between atoms: C_2  and  O_3 
REMARK    2  A    between atoms: C_2  and  C_36 
REMARK    3  A    between atoms: O_3  and  C_4 
REMARK    4  A    between atoms: C_6  and  O_7 
REMARK    5  A    between atoms: O_7  and  C_8 
REMARK    6  A    between atoms: C_12  and  O_13 
REMARK    7  A    between atoms: C_12  and  C_32 
REMARK    8  A    between atoms: C_16  and  O_17 
REMARK    9  A    between atoms: O_17  and  C_18 
REMARK   10  A    between atoms: C_18  and  C_20 
REMARK   11  A    between atoms: C_23  and  O_24 
ROOT
HETATM    1  C   UNK N   1      48.026  52.366  63.116  0.00  0.00     0.166 C 
HETATM    2  C   UNK N   1      46.727  52.493  63.983  0.00  0.00     0.022 C 
HETATM    3  C   UNK N   1      45.732  53.525  63.327  0.00  0.00     0.146 C 
HETATM    4  C   UNK N   1      44.563  52.686  62.816  0.00  0.00     0.072 C 
HETATM    5  C   UNK N   1      44.370  51.678  63.950  0.00  0.00     0.070 C 
HETATM    6  C   UNK N   1      45.852  51.174  64.130  0.00  0.00     0.064 C 
HETATM    7  C   UNK N   1      46.286  49.971  63.202  0.00  0.00     0.144 C 
HETATM    8  C   UNK N   1      47.552  49.282  63.730  0.00  0.00     0.066 C 
HETATM    9  C   UNK N   1      48.853  50.052  63.876  0.00  0.00    -0.083 C 
HETATM   10  C   UNK N   1      49.044  51.370  63.629  0.00  0.00     0.009 C 
HETATM   11  C   UNK N   1      50.031  49.244  64.367  0.00  0.00     0.043 C 
HETATM   12  C   UNK N   1      47.129  53.008  65.393  0.00  0.00     0.021 C 
ENDROOT
BRANCH   7  13
HETATM   13  O   UNK N   1      46.513  50.297  61.881  0.00  0.00    -0.311 OA
BRANCH  13  14
HETATM   14  C   UNK N   1      46.202  49.562  60.781  0.00  0.00     0.293 C 
HETATM   15  O   UNK N   1      45.042  49.426  60.424  0.00  0.00    -0.259 OA
BRANCH  14  16
HETATM   16  C   UNK N   1      47.305  48.883  60.053  0.00  0.00     0.039 A 
HETATM   17  C   UNK N   1      47.057  47.787  59.208  0.00  0.00     0.020 A 
HETATM   18  C   UNK N   1      48.117  47.165  58.534  0.00  0.00     0.037 A 
HETATM   19  C   UNK N   1      49.431  47.625  58.705  0.00  0.00     0.065 A 
HETATM   20  C   UNK N   1      49.681  48.703  59.555  0.00  0.00     0.037 A 
HETATM   21  C   UNK N   1      48.629  49.327  60.224  0.00  0.00     0.020 A 
BRANCH  19  22
HETATM   22  O   UNK N   1      50.460  47.037  58.062  0.00  0.00    -0.361 OA
HETATM   23  H   UNK N   1      51.234  47.540  57.770  0.00  0.00     0.217 HD
ENDBRANCH  19  22
ENDBRANCH  14  16
ENDBRANCH  13  14
ENDBRANCH   7  13
BRANCH   5  24
HETATM   24  O   UNK N   1      43.959  52.406  65.092  0.00  0.00    -0.389 OA
HETATM   25  H   UNK N   1      43.237  51.903  65.549  0.00  0.00     0.210 HD
ENDBRANCH   5  24
BRANCH   5  26
HETATM   26  C   UNK N   1      43.279  50.591  63.643  0.00  0.00     0.012 C 
HETATM   27  C   UNK N   1      42.302  50.387  64.820  0.00  0.00     0.012 C 
HETATM   28  C   UNK N   1      42.454  50.943  62.389  0.00  0.00     0.012 C 
ENDBRANCH   5  26
BRANCH   1  29
HETATM   29  O   UNK N   1      48.639  53.610  63.059  0.00  0.00    -0.307 OA
BRANCH  29  30
HETATM   30  C   UNK N   1      49.749  53.913  62.332  0.00  0.00     0.294 C 
HETATM   31  O   UNK N   1      50.803  54.180  62.891  0.00  0.00    -0.259 OA
BRANCH  30  32
HETATM   32  C   UNK N   1      49.671  53.882  60.853  0.00  0.00     0.039 A 
HETATM   33  C   UNK N   1      49.922  52.693  60.142  0.00  0.00     0.017 A 
HETATM   34  C   UNK N   1      49.846  52.681  58.744  0.00  0.00     0.001 A 
HETATM   35  C   UNK N   1      49.524  53.850  58.049  0.00  0.00     0.000 A 
HETATM   36  C   UNK N   1      49.271  55.032  58.747  0.00  0.00     0.001 A 
HETATM   37  C   UNK N   1      49.341  55.050  60.143  0.00  0.00     0.017 A 
ENDBRANCH  30  32
ENDBRANCH  29  30
ENDBRANCH   1  29
BRANCH   3  38
HETATM   38  O   UNK N   1      46.287  54.292  62.314  0.00  0.00    -0.315 OA
BRANCH  38  39
HETATM   39  C   UNK N   1      45.713  54.525  61.107  0.00  0.00     0.255 C 
HETATM   40  O   UNK N   1      44.978  55.487  60.937  0.00  0.00    -0.266 OA
HETATM   41  C   UNK N   1      46.014  53.604  59.968  0.00  0.00     0.126 C 
ENDBRANCH  38  39
ENDBRANCH   3  38
TORSDOF 11
ENDMDL
MODEL 9
REMARK VINA RESULT:      -4.2     16.275     20.979
REMARK  11 active torsions:
REMARK  status: ('A' for Active; 'I' for Inactive)
REMARK    1  A    between atoms: C_2  and  O_3 
REMARK    2  A    between atoms: C_2  and  C_36 
REMARK    3  A    between atoms: O_3  and  C_4 
REMARK    4  A    between atoms: C_6  and  O_7 
REMARK    5  A    between atoms: O_7  and  C_8 
REMARK    6  A    between atoms: C_12  and  O_13 
REMARK    7  A    between atoms: C_12  and  C_32 
REMARK    8  A    between atoms: C_16  and  O_17 
REMARK    9  A    between atoms: O_17  and  C_18 
REMARK   10  A    between atoms: C_18  and  C_20 
REMARK   11  A    between atoms: C_23  and  O_24 
ROOT
HETATM    1  C   UNK N   1      47.942  52.117  61.866  0.00  0.00     0.166 C 
HETATM    2  C   UNK N   1      46.917  50.976  61.538  0.00  0.00     0.022 C 
HETATM    3  C   UNK N   1      46.680  50.074  62.809  0.00  0.00     0.146 C 
HETATM    4  C   UNK N   1      45.251  50.379  63.255  0.00  0.00     0.072 C 
HETATM    5  C   UNK N   1      44.508  50.460  61.921  0.00  0.00     0.070 C 
HETATM    6  C   UNK N   1      45.453  51.446  61.135  0.00  0.00     0.064 C 
HETATM    7  C   UNK N   1      45.160  52.985  61.335  0.00  0.00     0.144 C 
HETATM    8  C   UNK N   1      45.817  53.830  60.235  0.00  0.00     0.066 C 
HETATM    9  C   UNK N   1      47.323  53.819  60.040  0.00  0.00    -0.083 C 
HETATM   10  C   UNK N   1      48.221  53.074  60.727  0.00  0.00     0.009 C 
HETATM   11  C   UNK N   1      47.841  54.727  58.950  0.00  0.00     0.043 C 
HETATM   12  C   UNK N   1      47.511  50.099  60.402  0.00  0.00     0.021 C 
ENDROOT
BRANCH   7  13
HETATM   13  O   UNK N   1      45.556  53.508  62.549  0.00  0.00    -0.311 OA
BRANCH  13  14
HETATM   14  C   UNK N   1      44.765  53.862  63.596  0.00  0.00     0.293 C 
HETATM   15  O   UNK N   1      45.034  53.509  64.734  0.00  0.00    -0.259 OA
BRANCH  14  16
HETATM   16  C   UNK N   1      43.534  54.644  63.315  0.00  0.00     0.039 A 
HETATM   17  C   UNK N   1      42.262  54.160  63.671  0.00  0.00     0.020 A 
HETATM   18  C   UNK N   1      41.118  54.919  63.393  0.00  0.00     0.037 A 
HETATM   19  C   UNK N   1      41.232  56.162  62.751  0.00  0.00     0.065 A 
HETATM   20  C   UNK N   1      42.491  56.637  62.384  0.00  0.00     0.037 A 
HETATM   21  C   UNK N   1      43.633  55.887  62.662  0.00  0.00     0.020 A 
BRANCH  19  22
HETATM   22  O   UNK N   1      40.139  56.904  62.479  0.00  0.00    -0.361 OA
HETATM   23  H   UNK N   1      39.833  57.049  61.572  0.00  0.00     0.217 HD
ENDBRANCH  19  22
ENDBRANCH  14  16
ENDBRANCH  13  14
ENDBRANCH   7  13
BRANCH   5  24
HETATM   24  O   UNK N   1      44.551  49.171  61.338  0.00  0.00    -0.389 OA
HETATM   25  H   UNK N   1      43.927  48.577  61.830  0.00  0.00     0.210 HD
ENDBRANCH   5  24
BRANCH   5  26
HETATM   26  C   UNK N   1      43.002  50.882  62.068  0.00  0.00     0.012 C 
HETATM   27  C   UNK N   1      42.091  50.181  61.038  0.00  0.00     0.012 C 
HETATM   28  C   UNK N   1      42.456  50.579  63.477  0.00  0.00     0.012 C 
ENDBRANCH   5  26
BRANCH   1  29
HETATM   29  O   UNK N   1      49.145  51.532  62.237  0.00  0.00    -0.307 OA
BRANCH  29  30
HETATM   30  C   UNK N   1      50.369  51.855  61.737  0.00  0.00     0.294 C 
HETATM   31  O   UNK N   1      50.995  52.801  62.190  0.00  0.00    -0.259 OA
BRANCH  30  32
HETATM   32  C   UNK N   1      50.947  51.020  60.657  0.00  0.00     0.039 A 
HETATM   33  C   UNK N   1      51.190  49.648  60.857  0.00  0.00     0.017 A 
HETATM   34  C   UNK N   1      51.739  48.874  59.828  0.00  0.00     0.001 A 
HETATM   35  C   UNK N   1      52.050  49.461  58.599  0.00  0.00     0.000 A 
HETATM   36  C   UNK N   1      51.809  50.821  58.392  0.00  0.00     0.001 A 
HETATM   37  C   UNK N   1      51.258  51.598  59.414  0.00  0.00     0.017 A 
ENDBRANCH  30  32
ENDBRANCH  29  30
ENDBRANCH   1  29
BRANCH   3  38
HETATM   38  O   UNK N   1      47.587  50.281  63.836  0.00  0.00    -0.315 OA
BRANCH  38  39
HETATM   39  C   UNK N   1      48.147  49.305  64.594  0.00  0.00     0.255 C 
HETATM   40  O   UNK N   1      49.358  49.140  64.612  0.00  0.00    -0.266 OA
HETATM   41  C   UNK N   1      47.262  48.441  65.436  0.00  0.00     0.126 C 
ENDBRANCH  38  39
ENDBRANCH   3  38
TORSDOF 11
ENDMDL
