MODEL 1
REMARK VINA RESULT:      -5.5      0.000      0.000
REMARK  13 active torsions:
REMARK  status: ('A' for Active; 'I' for Inactive)
REMARK    1  A    between atoms: C_2  and  O_3 
REMARK    2  A    between atoms: C_2  and  C_19 
REMARK    3  A    between atoms: O_3  and  C_4 
REMARK    4  A    between atoms: C_6  and  C_16 
REMARK    5  A    between atoms: C_7  and  O_8 
REMARK    6  A    between atoms: C_10  and  O_11 
REMARK    7  A    between atoms: C_13  and  O_14 
REMARK    8  A    between atoms: C_16  and  O_17 
REMARK    9  A    between atoms: C_24  and  C_30 
REMARK   10  A    between atoms: C_25  and  O_26 
REMARK   11  A    between atoms: C_30  and  C_31 
REMARK   12  A    between atoms: C_31  and  O_32 
REMARK   13  A    between atoms: C_38  and  O_39 
ROOT
HETATM    1  C   UNK N   1      49.310  54.145  58.749  0.00  0.00     0.051 C 
HETATM    2  C   UNK N   1      50.361  55.356  58.655  0.00  0.00     0.017 C 
HETATM    3  C   UNK N   1      49.727  56.809  58.500  0.00  0.00    -0.009 C 
HETATM    4  C   UNK N   1      49.638  57.300  57.028  0.00  0.00    -0.042 A 
HETATM    5  C   UNK N   1      50.213  56.579  55.937  0.00  0.00    -0.042 A 
HETATM    6  C   UNK N   1      50.028  57.042  54.593  0.00  0.00    -0.012 A 
HETATM    7  C   UNK N   1      49.320  58.251  54.379  0.00  0.00     0.072 A 
HETATM    8  C   UNK N   1      48.807  58.966  55.458  0.00  0.00     0.037 A 
HETATM    9  C   UNK N   1      48.957  58.502  56.755  0.00  0.00     0.011 A 
HETATM   10  C   UNK N   1      51.031  55.333  56.194  0.00  0.00     0.040 C 
HETATM   11  C   UNK N   1      51.495  55.204  57.636  0.00  0.00     0.011 C 
HETATM   12  C   UNK N   1      48.310  56.772  59.133  0.00  0.00     0.046 C 
HETATM   13  C   UNK N   1      47.362  55.827  58.347  0.00  0.00     0.120 C 
HETATM   14  C   UNK N   1      48.037  54.493  57.930  0.00  0.00     0.051 C 
HETATM   15  C   UNK N   1      50.585  57.835  59.282  0.00  0.00     0.021 C 
HETATM   16  C   UNK N   1      49.881  52.796  58.237  0.00  0.00     0.026 C 
ENDROOT
BRANCH   1  17
HETATM   17  C   UNK N   1      49.001  53.863  60.223  0.00  0.00     0.270 C 
HETATM   18  O   UNK N   1      49.830  54.053  61.097  0.00  0.00    -0.264 OA
BRANCH  17  19
HETATM   19  O   UNK N   1      47.743  53.460  60.547  0.00  0.00    -0.286 OA
BRANCH  19  20
HETATM   20  C   UNK N   1      47.404  52.221  61.048  0.00  0.00     0.301 C 
HETATM   21  O   UNK N   1      48.185  51.245  60.382  0.00  0.00    -0.348 OA
HETATM   22  C   UNK N   1      47.926  49.951  60.905  0.00  0.00     0.179 C 
HETATM   23  C   UNK N   1      46.462  49.541  60.616  0.00  0.00     0.180 C 
HETATM   24  C   UNK N   1      45.517  50.584  61.244  0.00  0.00     0.183 C 
HETATM   25  C   UNK N   1      45.907  51.987  60.762  0.00  0.00     0.205 C 
BRANCH  22  26
HETATM   26  C   UNK N   1      48.910  48.965  60.258  0.00  0.00     0.198 C 
BRANCH  26  27
HETATM   27  O   UNK N   1      48.263  48.199  59.277  0.00  0.00    -0.398 OA
HETATM   28  H   UNK N   1      48.921  48.046  58.549  0.00  0.00     0.209 HD
ENDBRANCH  26  27
ENDBRANCH  22  26
BRANCH  23  29
HETATM   29  O   UNK N   1      46.211  48.272  61.165  0.00  0.00    -0.390 OA
HETATM   30  H   UNK N   1      47.005  47.709  60.975  0.00  0.00     0.210 HD
ENDBRANCH  23  29
BRANCH  24  31
HETATM   31  O   UNK N   1      44.184  50.326  60.887  0.00  0.00    -0.390 OA
HETATM   32  H   UNK N   1      43.748  51.203  60.729  0.00  0.00     0.210 HD
ENDBRANCH  24  31
BRANCH  25  33
HETATM   33  O   UNK N   1      45.119  52.937  61.434  0.00  0.00    -0.388 OA
HETATM   34  H   UNK N   1      44.585  52.450  62.114  0.00  0.00     0.210 HD
ENDBRANCH  25  33
ENDBRANCH  19  20
ENDBRANCH  17  19
ENDBRANCH   1  17
BRANCH  13  35
HETATM   35  O   UNK N   1      46.146  55.611  59.027  0.00  0.00    -0.396 OA
HETATM   36  H   UNK N   1      46.186  54.753  59.517  0.00  0.00     0.210 HD
ENDBRANCH  13  35
BRANCH   6  37
HETATM   37  C   UNK N   1      50.595  56.262  53.389  0.00  0.00     0.041 C 
HETATM   38  C   UNK N   1      52.112  56.071  53.515  0.00  0.00     0.017 C 
BRANCH  37  39
HETATM   39  C   UNK N   1      49.869  54.918  53.171  0.00  0.00     0.173 C 
BRANCH  39  40
HETATM   40  O   UNK N   1      50.778  53.919  52.794  0.00  0.00    -0.400 OA
HETATM   41  H   UNK N   1      50.320  53.048  52.925  0.00  0.00     0.209 HD
ENDBRANCH  39  40
ENDBRANCH  37  39
ENDBRANCH   6  37
BRANCH   7  42
HETATM   42  O   UNK N   1      49.143  58.732  53.130  0.00  0.00    -0.360 OA
HETATM   43  H   UNK N   1      49.774  59.339  52.716  0.00  0.00     0.217 HD
ENDBRANCH   7  42
TORSDOF 13
ENDMDL
MODEL 2
REMARK VINA RESULT:      -5.4     24.536     26.637
REMARK  13 active torsions:
REMARK  status: ('A' for Active; 'I' for Inactive)
REMARK    1  A    between atoms: C_2  and  O_3 
REMARK    2  A    between atoms: C_2  and  C_19 
REMARK    3  A    between atoms: O_3  and  C_4 
REMARK    4  A    between atoms: C_6  and  C_16 
REMARK    5  A    between atoms: C_7  and  O_8 
REMARK    6  A    between atoms: C_10  and  O_11 
REMARK    7  A    between atoms: C_13  and  O_14 
REMARK    8  A    between atoms: C_16  and  O_17 
REMARK    9  A    between atoms: C_24  and  C_30 
REMARK   10  A    between atoms: C_25  and  O_26 
REMARK   11  A    between atoms: C_30  and  C_31 
REMARK   12  A    between atoms: C_31  and  O_32 
REMARK   13  A    between atoms: C_38  and  O_39 
ROOT
HETATM    1  C   UNK N   1      28.774  53.459  39.253  0.00  0.00     0.051 C 
HETATM    2  C   UNK N   1      29.501  54.835  39.654  0.00  0.00     0.017 C 
HETATM    3  C   UNK N   1      28.785  55.686  40.794  0.00  0.00    -0.009 C 
HETATM    4  C   UNK N   1      27.852  56.804  40.248  0.00  0.00    -0.042 A 
HETATM    5  C   UNK N   1      27.769  57.131  38.860  0.00  0.00    -0.042 A 
HETATM    6  C   UNK N   1      26.830  58.117  38.410  0.00  0.00    -0.012 A 
HETATM    7  C   UNK N   1      26.037  58.794  39.370  0.00  0.00     0.072 A 
HETATM    8  C   UNK N   1      26.165  58.495  40.724  0.00  0.00     0.037 A 
HETATM    9  C   UNK N   1      27.049  57.519  41.157  0.00  0.00     0.011 A 
HETATM   10  C   UNK N   1      28.678  56.452  37.861  0.00  0.00     0.040 C 
HETATM   11  C   UNK N   1      29.877  55.773  38.503  0.00  0.00     0.011 C 
HETATM   12  C   UNK N   1      27.971  54.701  41.675  0.00  0.00     0.046 C 
HETATM   13  C   UNK N   1      26.818  54.040  40.873  0.00  0.00     0.120 C 
HETATM   14  C   UNK N   1      27.240  53.604  39.444  0.00  0.00     0.051 C 
HETATM   15  C   UNK N   1      29.856  56.367  41.682  0.00  0.00     0.021 C 
HETATM   16  C   UNK N   1      29.058  53.019  37.793  0.00  0.00     0.026 C 
ENDROOT
BRANCH   1  17
HETATM   17  C   UNK N   1      29.365  52.319  40.089  0.00  0.00     0.270 C 
HETATM   18  O   UNK N   1      28.769  51.266  40.244  0.00  0.00    -0.264 OA
BRANCH  17  19
HETATM   19  O   UNK N   1      30.614  52.483  40.601  0.00  0.00    -0.286 OA
BRANCH  19  20
HETATM   20  C   UNK N   1      30.961  52.331  41.926  0.00  0.00     0.301 C 
HETATM   21  O   UNK N   1      31.523  53.549  42.380  0.00  0.00    -0.348 OA
HETATM   22  C   UNK N   1      31.840  53.474  43.761  0.00  0.00     0.179 C 
HETATM   23  C   UNK N   1      32.950  52.422  43.999  0.00  0.00     0.180 C 
HETATM   24  C   UNK N   1      32.466  51.057  43.473  0.00  0.00     0.183 C 
HETATM   25  C   UNK N   1      32.006  51.200  42.017  0.00  0.00     0.205 C 
BRANCH  22  26
HETATM   26  C   UNK N   1      32.294  54.865  44.227  0.00  0.00     0.198 C 
BRANCH  26  27
HETATM   27  O   UNK N   1      33.688  54.985  44.128  0.00  0.00    -0.398 OA
HETATM   28  H   UNK N   1      33.871  55.818  43.618  0.00  0.00     0.209 HD
ENDBRANCH  26  27
ENDBRANCH  22  26
BRANCH  23  29
HETATM   29  O   UNK N   1      33.233  52.336  45.372  0.00  0.00    -0.390 OA
HETATM   30  H   UNK N   1      33.277  51.373  45.602  0.00  0.00     0.210 HD
ENDBRANCH  23  29
BRANCH  24  31
HETATM   31  O   UNK N   1      33.495  50.104  43.541  0.00  0.00    -0.390 OA
HETATM   32  H   UNK N   1      33.319  49.432  42.833  0.00  0.00     0.210 HD
ENDBRANCH  24  31
BRANCH  25  33
HETATM   33  O   UNK N   1      31.455  49.980  41.589  0.00  0.00    -0.388 OA
HETATM   34  H   UNK N   1      32.210  49.380  41.358  0.00  0.00     0.210 HD
ENDBRANCH  25  33
ENDBRANCH  19  20
ENDBRANCH  17  19
ENDBRANCH   1  17
BRANCH  13  35
HETATM   35  O   UNK N   1      26.211  52.987  41.586  0.00  0.00    -0.396 OA
HETATM   36  H   UNK N   1      25.696  53.353  42.347  0.00  0.00     0.210 HD
ENDBRANCH  13  35
BRANCH   6  37
HETATM   37  C   UNK N   1      26.681  58.460  36.913  0.00  0.00     0.041 C 
HETATM   38  C   UNK N   1      25.214  58.388  36.470  0.00  0.00     0.017 C 
BRANCH  37  39
HETATM   39  C   UNK N   1      27.316  59.822  36.561  0.00  0.00     0.173 C 
BRANCH  39  40
HETATM   40  O   UNK N   1      28.699  59.689  36.372  0.00  0.00    -0.400 OA
HETATM   41  H   UNK N   1      28.974  60.405  35.742  0.00  0.00     0.209 HD
ENDBRANCH  39  40
ENDBRANCH  37  39
ENDBRANCH   6  37
BRANCH   7  42
HETATM   42  O   UNK N   1      25.157  59.744  38.988  0.00  0.00    -0.360 OA
HETATM   43  H   UNK N   1      25.169  60.637  39.360  0.00  0.00     0.217 HD
ENDBRANCH   7  42
TORSDOF 13
ENDMDL
MODEL 3
REMARK VINA RESULT:      -5.3     19.213     22.999
REMARK  13 active torsions:
REMARK  status: ('A' for Active; 'I' for Inactive)
REMARK    1  A    between atoms: C_2  and  O_3 
REMARK    2  A    between atoms: C_2  and  C_19 
REMARK    3  A    between atoms: O_3  and  C_4 
REMARK    4  A    between atoms: C_6  and  C_16 
REMARK    5  A    between atoms: C_7  and  O_8 
REMARK    6  A    between atoms: C_10  and  O_11 
REMARK    7  A    between atoms: C_13  and  O_14 
REMARK    8  A    between atoms: C_16  and  O_17 
REMARK    9  A    between atoms: C_24  and  C_30 
REMARK   10  A    between atoms: C_25  and  O_26 
REMARK   11  A    between atoms: C_30  and  C_31 
REMARK   12  A    between atoms: C_31  and  O_32 
REMARK   13  A    between atoms: C_38  and  O_39 
ROOT
HETATM    1  C   UNK N   1      30.507  44.867  59.067  0.00  0.00     0.051 C 
HETATM    2  C   UNK N   1      31.416  43.776  58.316  0.00  0.00     0.017 C 
HETATM    3  C   UNK N   1      30.653  42.843  57.273  0.00  0.00    -0.009 C 
HETATM    4  C   UNK N   1      30.206  41.477  57.865  0.00  0.00    -0.042 A 
HETATM    5  C   UNK N   1      30.581  41.042  59.173  0.00  0.00    -0.042 A 
HETATM    6  C   UNK N   1      30.070  39.807  59.692  0.00  0.00    -0.012 A 
HETATM    7  C   UNK N   1      29.242  39.009  58.865  0.00  0.00     0.072 A 
HETATM    8  C   UNK N   1      28.925  39.426  57.575  0.00  0.00     0.037 A 
HETATM    9  C   UNK N   1      29.391  40.635  57.084  0.00  0.00     0.011 A 
HETATM   10  C   UNK N   1      31.529  41.872  60.010  0.00  0.00     0.040 C 
HETATM   11  C   UNK N   1      32.306  42.897  59.201  0.00  0.00     0.011 C 
HETATM   12  C   UNK N   1      29.417  43.628  56.758  0.00  0.00     0.046 C 
HETATM   13  C   UNK N   1      28.395  43.888  57.897  0.00  0.00     0.120 C 
HETATM   14  C   UNK N   1      29.063  44.321  59.230  0.00  0.00     0.051 C 
HETATM   15  C   UNK N   1      31.582  42.547  56.068  0.00  0.00     0.021 C 
HETATM   16  C   UNK N   1      31.053  45.264  60.464  0.00  0.00     0.026 C 
ENDROOT
BRANCH   1  17
HETATM   17  C   UNK N   1      30.552  46.182  58.281  0.00  0.00     0.270 C 
HETATM   18  O   UNK N   1      31.299  46.331  57.328  0.00  0.00    -0.264 OA
BRANCH  17  19
HETATM   19  O   UNK N   1      29.680  47.165  58.631  0.00  0.00    -0.286 OA
BRANCH  19  20
HETATM   20  C   UNK N   1      28.909  47.899  57.754  0.00  0.00     0.301 C 
HETATM   21  O   UNK N   1      29.684  48.988  57.287  0.00  0.00    -0.348 OA
HETATM   22  C   UNK N   1      28.963  49.744  56.327  0.00  0.00     0.179 C 
HETATM   23  C   UNK N   1      27.725  50.401  56.984  0.00  0.00     0.180 C 
HETATM   24  C   UNK N   1      26.837  49.299  57.592  0.00  0.00     0.183 C 
HETATM   25  C   UNK N   1      27.677  48.416  58.524  0.00  0.00     0.205 C 
BRANCH  22  26
HETATM   26  C   UNK N   1      29.905  50.809  55.746  0.00  0.00     0.198 C 
BRANCH  26  27
HETATM   27  O   UNK N   1      31.211  50.622  56.224  0.00  0.00    -0.398 OA
HETATM   28  H   UNK N   1      31.415  49.654  56.135  0.00  0.00     0.209 HD
ENDBRANCH  26  27
ENDBRANCH  22  26
BRANCH  23  29
HETATM   29  O   UNK N   1      27.004  51.121  56.017  0.00  0.00    -0.390 OA
HETATM   30  H   UNK N   1      26.246  50.549  55.732  0.00  0.00     0.210 HD
ENDBRANCH  23  29
BRANCH  24  31
HETATM   31  O   UNK N   1      25.775  49.860  58.320  0.00  0.00    -0.390 OA
HETATM   32  H   UNK N   1      24.934  49.537  57.905  0.00  0.00     0.210 HD
ENDBRANCH  24  31
BRANCH  25  33
HETATM   33  O   UNK N   1      26.888  47.345  58.976  0.00  0.00    -0.388 OA
HETATM   34  H   UNK N   1      27.226  47.088  59.873  0.00  0.00     0.210 HD
ENDBRANCH  25  33
ENDBRANCH  19  20
ENDBRANCH  17  19
ENDBRANCH   1  17
BRANCH  13  35
HETATM   35  O   UNK N   1      27.379  44.782  57.504  0.00  0.00    -0.396 OA
HETATM   36  H   UNK N   1      27.295  45.506  58.171  0.00  0.00     0.210 HD
ENDBRANCH  13  35
BRANCH   6  37
HETATM   37  C   UNK N   1      30.417  39.331  61.119  0.00  0.00     0.041 C 
HETATM   38  C   UNK N   1      29.159  39.230  61.992  0.00  0.00     0.017 C 
BRANCH  37  39
HETATM   39  C   UNK N   1      31.215  38.010  61.115  0.00  0.00     0.173 C 
BRANCH  39  40
HETATM   40  O   UNK N   1      30.419  36.949  61.571  0.00  0.00    -0.400 OA
HETATM   41  H   UNK N   1      29.517  37.075  61.176  0.00  0.00     0.209 HD
ENDBRANCH  39  40
ENDBRANCH  37  39
ENDBRANCH   6  37
BRANCH   7  42
HETATM   42  O   UNK N   1      28.759  37.829  59.310  0.00  0.00    -0.360 OA
HETATM   43  H   UNK N   1      28.984  36.987  58.889  0.00  0.00     0.217 HD
ENDBRANCH   7  42
TORSDOF 13
ENDMDL
MODEL 4
REMARK VINA RESULT:      -5.3      2.132      8.467
REMARK  13 active torsions:
REMARK  status: ('A' for Active; 'I' for Inactive)
REMARK    1  A    between atoms: C_2  and  O_3 
REMARK    2  A    between atoms: C_2  and  C_19 
REMARK    3  A    between atoms: O_3  and  C_4 
REMARK    4  A    between atoms: C_6  and  C_16 
REMARK    5  A    between atoms: C_7  and  O_8 
REMARK    6  A    between atoms: C_10  and  O_11 
REMARK    7  A    between atoms: C_13  and  O_14 
REMARK    8  A    between atoms: C_16  and  O_17 
REMARK    9  A    between atoms: C_24  and  C_30 
REMARK   10  A    between atoms: C_25  and  O_26 
REMARK   11  A    between atoms: C_30  and  C_31 
REMARK   12  A    between atoms: C_31  and  O_32 
REMARK   13  A    between atoms: C_38  and  O_39 
ROOT
HETATM    1  C   UNK N   1      48.849  54.627  58.917  0.00  0.00     0.051 C 
HETATM    2  C   UNK N   1      48.407  54.794  60.453  0.00  0.00     0.017 C 
HETATM    3  C   UNK N   1      49.341  54.070  61.522  0.00  0.00    -0.009 C 
HETATM    4  C   UNK N   1      48.833  52.663  61.945  0.00  0.00    -0.042 A 
HETATM    5  C   UNK N   1      47.570  52.140  61.530  0.00  0.00    -0.042 A 
HETATM    6  C   UNK N   1      47.193  50.804  61.887  0.00  0.00    -0.012 A 
HETATM    7  C   UNK N   1      48.067  50.043  62.703  0.00  0.00     0.072 A 
HETATM    8  C   UNK N   1      49.274  50.586  63.138  0.00  0.00     0.037 A 
HETATM    9  C   UNK N   1      49.653  51.865  62.766  0.00  0.00     0.011 A 
HETATM   10  C   UNK N   1      46.618  52.996  60.725  0.00  0.00     0.040 C 
HETATM   11  C   UNK N   1      46.945  54.479  60.785  0.00  0.00     0.011 C 
HETATM   12  C   UNK N   1      50.761  53.957  60.904  0.00  0.00     0.046 C 
HETATM   13  C   UNK N   1      50.767  53.028  59.660  0.00  0.00     0.120 C 
HETATM   14  C   UNK N   1      49.552  53.256  58.722  0.00  0.00     0.051 C 
HETATM   15  C   UNK N   1      49.431  54.937  62.802  0.00  0.00     0.021 C 
HETATM   16  C   UNK N   1      47.662  54.728  57.923  0.00  0.00     0.026 C 
ENDROOT
BRANCH   1  17
HETATM   17  C   UNK N   1      49.743  55.807  58.523  0.00  0.00     0.270 C 
HETATM   18  O   UNK N   1      49.510  56.942  58.905  0.00  0.00    -0.264 OA
BRANCH  17  19
HETATM   19  O   UNK N   1      50.857  55.547  57.786  0.00  0.00    -0.286 OA
BRANCH  19  20
HETATM   20  C   UNK N   1      51.001  55.795  56.438  0.00  0.00     0.301 C 
HETATM   21  O   UNK N   1      49.825  56.437  55.978  0.00  0.00    -0.348 OA
HETATM   22  C   UNK N   1      49.943  56.778  54.605  0.00  0.00     0.179 C 
HETATM   23  C   UNK N   1      50.051  55.497  53.743  0.00  0.00     0.180 C 
HETATM   24  C   UNK N   1      51.271  54.681  54.210  0.00  0.00     0.183 C 
HETATM   25  C   UNK N   1      51.182  54.441  55.722  0.00  0.00     0.205 C 
BRANCH  22  26
HETATM   26  C   UNK N   1      48.711  57.604  54.208  0.00  0.00     0.198 C 
BRANCH  26  27
HETATM   27  O   UNK N   1      47.598  57.225  54.974  0.00  0.00    -0.398 OA
HETATM   28  H   UNK N   1      46.990  56.723  54.370  0.00  0.00     0.209 HD
ENDBRANCH  26  27
ENDBRANCH  22  26
BRANCH  23  29
HETATM   29  O   UNK N   1      50.197  55.850  52.391  0.00  0.00    -0.390 OA
HETATM   30  H   UNK N   1      49.329  55.669  51.946  0.00  0.00     0.210 HD
ENDBRANCH  23  29
BRANCH  24  31
HETATM   31  O   UNK N   1      51.325  53.443  53.548  0.00  0.00    -0.390 OA
HETATM   32  H   UNK N   1      50.604  53.444  52.868  0.00  0.00     0.210 HD
ENDBRANCH  24  31
BRANCH  25  33
HETATM   33  O   UNK N   1      52.356  53.804  56.156  0.00  0.00    -0.388 OA
HETATM   34  H   UNK N   1      52.374  52.903  55.739  0.00  0.00     0.210 HD
ENDBRANCH  25  33
ENDBRANCH  19  20
ENDBRANCH  17  19
ENDBRANCH   1  17
BRANCH  13  35
HETATM   35  O   UNK N   1      51.990  53.087  58.961  0.00  0.00    -0.396 OA
HETATM   36  H   UNK N   1      51.821  53.303  58.011  0.00  0.00     0.210 HD
ENDBRANCH  13  35
BRANCH   6  37
HETATM   37  C   UNK N   1      45.857  50.192  61.416  0.00  0.00     0.041 C 
HETATM   38  C   UNK N   1      46.057  48.767  60.881  0.00  0.00     0.017 C 
BRANCH  37  39
HETATM   39  C   UNK N   1      44.774  50.241  62.513  0.00  0.00     0.173 C 
BRANCH  39  40
HETATM   40  O   UNK N   1      44.991  49.238  63.469  0.00  0.00    -0.400 OA
HETATM   41  H   UNK N   1      44.795  49.638  64.356  0.00  0.00     0.209 HD
ENDBRANCH  39  40
ENDBRANCH  37  39
ENDBRANCH   6  37
BRANCH   7  42
HETATM   42  O   UNK N   1      47.739  48.789  63.079  0.00  0.00    -0.360 OA
HETATM   43  H   UNK N   1      48.100  48.379  63.878  0.00  0.00     0.217 HD
ENDBRANCH   7  42
TORSDOF 13
ENDMDL
MODEL 5
REMARK VINA RESULT:      -5.2     19.240     22.701
REMARK  13 active torsions:
REMARK  status: ('A' for Active; 'I' for Inactive)
REMARK    1  A    between atoms: C_2  and  O_3 
REMARK    2  A    between atoms: C_2  and  C_19 
REMARK    3  A    between atoms: O_3  and  C_4 
REMARK    4  A    between atoms: C_6  and  C_16 
REMARK    5  A    between atoms: C_7  and  O_8 
REMARK    6  A    between atoms: C_10  and  O_11 
REMARK    7  A    between atoms: C_13  and  O_14 
REMARK    8  A    between atoms: C_16  and  O_17 
REMARK    9  A    between atoms: C_24  and  C_30 
REMARK   10  A    between atoms: C_25  and  O_26 
REMARK   11  A    between atoms: C_30  and  C_31 
REMARK   12  A    between atoms: C_31  and  O_32 
REMARK   13  A    between atoms: C_38  and  O_39 
ROOT
HETATM    1  C   UNK N   1      29.951  42.774  57.968  0.00  0.00     0.051 C 
HETATM    2  C   UNK N   1      31.065  43.671  58.699  0.00  0.00     0.017 C 
HETATM    3  C   UNK N   1      30.608  44.365  60.059  0.00  0.00    -0.009 C 
HETATM    4  C   UNK N   1      30.119  45.830  59.881  0.00  0.00    -0.042 A 
HETATM    5  C   UNK N   1      30.220  46.532  58.640  0.00  0.00    -0.042 A 
HETATM    6  C   UNK N   1      29.678  47.854  58.518  0.00  0.00    -0.012 A 
HETATM    7  C   UNK N   1      29.101  48.464  59.659  0.00  0.00     0.072 A 
HETATM    8  C   UNK N   1      29.055  47.782  60.873  0.00  0.00     0.037 A 
HETATM    9  C   UNK N   1      29.548  46.492  60.984  0.00  0.00     0.011 A 
HETATM   10  C   UNK N   1      30.909  45.892  57.456  0.00  0.00     0.040 C 
HETATM   11  C   UNK N   1      31.786  44.711  57.836  0.00  0.00     0.011 C 
HETATM   12  C   UNK N   1      29.473  43.499  60.669  0.00  0.00     0.046 C 
HETATM   13  C   UNK N   1      28.211  43.498  59.766  0.00  0.00     0.120 C 
HETATM   14  C   UNK N   1      28.540  43.355  58.256  0.00  0.00     0.051 C 
HETATM   15  C   UNK N   1      31.795  44.388  61.054  0.00  0.00     0.021 C 
HETATM   16  C   UNK N   1      30.151  42.681  56.432  0.00  0.00     0.026 C 
ENDROOT
BRANCH   1  17
HETATM   17  C   UNK N   1      30.094  41.321  58.433  0.00  0.00     0.270 C 
HETATM   18  O   UNK N   1      30.987  40.976  59.189  0.00  0.00    -0.264 OA
BRANCH  17  19
HETATM   19  O   UNK N   1      29.148  40.427  58.036  0.00  0.00    -0.286 OA
BRANCH  19  20
HETATM   20  C   UNK N   1      29.334  39.425  57.108  0.00  0.00     0.301 C 
HETATM   21  O   UNK N   1      28.270  39.481  56.175  0.00  0.00    -0.348 OA
HETATM   22  C   UNK N   1      28.445  38.511  55.154  0.00  0.00     0.179 C 
HETATM   23  C   UNK N   1      28.365  37.085  55.751  0.00  0.00     0.180 C 
HETATM   24  C   UNK N   1      29.446  36.937  56.837  0.00  0.00     0.183 C 
HETATM   25  C   UNK N   1      29.315  38.076  57.855  0.00  0.00     0.205 C 
BRANCH  22  26
HETATM   26  C   UNK N   1      27.352  38.725  54.096  0.00  0.00     0.198 C 
BRANCH  26  27
HETATM   27  O   UNK N   1      27.757  38.201  52.859  0.00  0.00    -0.398 OA
HETATM   28  H   UNK N   1      28.484  37.550  53.046  0.00  0.00     0.209 HD
ENDBRANCH  26  27
ENDBRANCH  22  26
BRANCH  23  29
HETATM   29  O   UNK N   1      28.569  36.137  54.735  0.00  0.00    -0.390 OA
HETATM   30  H   UNK N   1      27.685  35.736  54.527  0.00  0.00     0.210 HD
ENDBRANCH  23  29
BRANCH  24  31
HETATM   31  O   UNK N   1      29.319  35.706  57.502  0.00  0.00    -0.390 OA
HETATM   32  H   UNK N   1      29.636  35.841  58.432  0.00  0.00     0.210 HD
ENDBRANCH  24  31
BRANCH  25  33
HETATM   33  O   UNK N   1      30.378  38.000  58.769  0.00  0.00    -0.388 OA
HETATM   34  H   UNK N   1      31.002  37.301  58.439  0.00  0.00     0.210 HD
ENDBRANCH  25  33
ENDBRANCH  19  20
ENDBRANCH  17  19
ENDBRANCH   1  17
BRANCH  13  35
HETATM   35  O   UNK N   1      27.257  42.550  60.188  0.00  0.00    -0.396 OA
HETATM   36  H   UNK N   1      27.717  41.761  60.567  0.00  0.00     0.210 HD
ENDBRANCH  13  35
BRANCH   6  37
HETATM   37  C   UNK N   1      29.727  48.621  57.181  0.00  0.00     0.041 C 
HETATM   38  C   UNK N   1      28.315  48.942  56.672  0.00  0.00     0.017 C 
BRANCH  37  39
HETATM   39  C   UNK N   1      30.602  49.890  57.268  0.00  0.00     0.173 C 
BRANCH  39  40
HETATM   40  O   UNK N   1      29.803  51.042  57.288  0.00  0.00    -0.400 OA
HETATM   41  H   UNK N   1      30.320  51.759  56.837  0.00  0.00     0.209 HD
ENDBRANCH  39  40
ENDBRANCH  37  39
ENDBRANCH   6  37
BRANCH   7  42
HETATM   42  O   UNK N   1      28.600  49.715  59.590  0.00  0.00    -0.360 OA
HETATM   43  H   UNK N   1      28.504  50.187  58.750  0.00  0.00     0.217 HD
ENDBRANCH   7  42
TORSDOF 13
ENDMDL
MODEL 6
REMARK VINA RESULT:      -5.0     20.169     22.667
REMARK  13 active torsions:
REMARK  status: ('A' for Active; 'I' for Inactive)
REMARK    1  A    between atoms: C_2  and  O_3 
REMARK    2  A    between atoms: C_2  and  C_19 
REMARK    3  A    between atoms: O_3  and  C_4 
REMARK    4  A    between atoms: C_6  and  C_16 
REMARK    5  A    between atoms: C_7  and  O_8 
REMARK    6  A    between atoms: C_10  and  O_11 
REMARK    7  A    between atoms: C_13  and  O_14 
REMARK    8  A    between atoms: C_16  and  O_17 
REMARK    9  A    between atoms: C_24  and  C_30 
REMARK   10  A    between atoms: C_25  and  O_26 
REMARK   11  A    between atoms: C_30  and  C_31 
REMARK   12  A    between atoms: C_31  and  O_32 
REMARK   13  A    between atoms: C_38  and  O_39 
ROOT
HETATM    1  C   UNK N   1      27.886  45.780  59.033  0.00  0.00     0.051 C 
HETATM    2  C   UNK N   1      28.640  44.447  59.517  0.00  0.00     0.017 C 
HETATM    3  C   UNK N   1      30.199  44.380  59.192  0.00  0.00    -0.009 C 
HETATM    4  C   UNK N   1      30.532  43.613  57.881  0.00  0.00    -0.042 A 
HETATM    5  C   UNK N   1      29.545  42.906  57.127  0.00  0.00    -0.042 A 
HETATM    6  C   UNK N   1      29.900  42.287  55.884  0.00  0.00    -0.012 A 
HETATM    7  C   UNK N   1      31.249  42.340  55.455  0.00  0.00     0.072 A 
HETATM    8  C   UNK N   1      32.208  42.993  56.226  0.00  0.00     0.037 A 
HETATM    9  C   UNK N   1      31.859  43.621  57.411  0.00  0.00     0.011 A 
HETATM   10  C   UNK N   1      28.128  42.796  57.642  0.00  0.00     0.040 C 
HETATM   11  C   UNK N   1      27.998  43.113  59.123  0.00  0.00     0.011 C 
HETATM   12  C   UNK N   1      30.722  45.839  59.100  0.00  0.00     0.046 C 
HETATM   13  C   UNK N   1      30.087  46.596  57.903  0.00  0.00     0.120 C 
HETATM   14  C   UNK N   1      28.565  46.329  57.749  0.00  0.00     0.051 C 
HETATM   15  C   UNK N   1      30.939  43.666  60.350  0.00  0.00     0.021 C 
HETATM   16  C   UNK N   1      26.377  45.562  58.747  0.00  0.00     0.026 C 
ENDROOT
BRANCH   1  17
HETATM   17  C   UNK N   1      27.886  46.799  60.178  0.00  0.00     0.270 C 
HETATM   18  O   UNK N   1      27.518  46.498  61.302  0.00  0.00    -0.264 OA
BRANCH  17  19
HETATM   19  O   UNK N   1      28.378  48.042  59.928  0.00  0.00    -0.286 OA
BRANCH  19  20
HETATM   20  C   UNK N   1      27.659  49.216  60.000  0.00  0.00     0.301 C 
HETATM   21  O   UNK N   1      26.658  49.186  58.999  0.00  0.00    -0.348 OA
HETATM   22  C   UNK N   1      25.841  50.344  59.069  0.00  0.00     0.179 C 
HETATM   23  C   UNK N   1      26.676  51.607  58.746  0.00  0.00     0.180 C 
HETATM   24  C   UNK N   1      27.846  51.702  59.744  0.00  0.00     0.183 C 
HETATM   25  C   UNK N   1      28.632  50.385  59.742  0.00  0.00     0.205 C 
BRANCH  22  26
HETATM   26  C   UNK N   1      24.687  50.180  58.069  0.00  0.00     0.198 C 
BRANCH  26  27
HETATM   27  O   UNK N   1      25.019  50.761  56.837  0.00  0.00    -0.398 OA
HETATM   28  H   UNK N   1      26.001  50.912  56.844  0.00  0.00     0.209 HD
ENDBRANCH  26  27
ENDBRANCH  22  26
BRANCH  23  29
HETATM   29  O   UNK N   1      25.863  52.749  58.848  0.00  0.00    -0.390 OA
HETATM   30  H   UNK N   1      24.949  52.482  58.571  0.00  0.00     0.210 HD
ENDBRANCH  23  29
BRANCH  24  31
HETATM   31  O   UNK N   1      28.709  52.756  59.401  0.00  0.00    -0.390 OA
HETATM   32  H   UNK N   1      29.434  52.371  58.844  0.00  0.00     0.210 HD
ENDBRANCH  24  31
BRANCH  25  33
HETATM   33  O   UNK N   1      29.619  50.439  60.741  0.00  0.00    -0.388 OA
HETATM   34  H   UNK N   1      29.161  50.636  61.599  0.00  0.00     0.210 HD
ENDBRANCH  25  33
ENDBRANCH  19  20
ENDBRANCH  17  19
ENDBRANCH   1  17
BRANCH  13  35
HETATM   35  O   UNK N   1      30.378  47.975  57.933  0.00  0.00    -0.396 OA
HETATM   36  H   UNK N   1      29.976  48.418  57.146  0.00  0.00     0.210 HD
ENDBRANCH  13  35
BRANCH   6  37
HETATM   37  C   UNK N   1      28.849  41.556  55.022  0.00  0.00     0.041 C 
HETATM   38  C   UNK N   1      28.611  42.291  53.695  0.00  0.00     0.017 C 
BRANCH  37  39
HETATM   39  C   UNK N   1      29.210  40.073  54.795  0.00  0.00     0.173 C 
BRANCH  39  40
HETATM   40  O   UNK N   1      29.290  39.391  56.017  0.00  0.00    -0.400 OA
HETATM   41  H   UNK N   1      28.505  39.670  56.556  0.00  0.00     0.209 HD
ENDBRANCH  39  40
ENDBRANCH  37  39
ENDBRANCH   6  37
BRANCH   7  42
HETATM   42  O   UNK N   1      31.627  41.750  54.301  0.00  0.00    -0.360 OA
HETATM   43  H   UNK N   1      32.469  41.954  53.869  0.00  0.00     0.217 HD
ENDBRANCH   7  42
TORSDOF 13
ENDMDL
MODEL 7
REMARK VINA RESULT:      -5.0     19.055     22.494
REMARK  13 active torsions:
REMARK  status: ('A' for Active; 'I' for Inactive)
REMARK    1  A    between atoms: C_2  and  O_3 
REMARK    2  A    between atoms: C_2  and  C_19 
REMARK    3  A    between atoms: O_3  and  C_4 
REMARK    4  A    between atoms: C_6  and  C_16 
REMARK    5  A    between atoms: C_7  and  O_8 
REMARK    6  A    between atoms: C_10  and  O_11 
REMARK    7  A    between atoms: C_13  and  O_14 
REMARK    8  A    between atoms: C_16  and  O_17 
REMARK    9  A    between atoms: C_24  and  C_30 
REMARK   10  A    between atoms: C_25  and  O_26 
REMARK   11  A    between atoms: C_30  and  C_31 
REMARK   12  A    between atoms: C_31  and  O_32 
REMARK   13  A    between atoms: C_38  and  O_39 
ROOT
HETATM    1  C   UNK N   1      30.203  44.326  58.697  0.00  0.00     0.051 C 
HETATM    2  C   UNK N   1      30.866  43.997  60.123  0.00  0.00     0.017 C 
HETATM    3  C   UNK N   1      32.173  43.085  60.081  0.00  0.00    -0.009 C 
HETATM    4  C   UNK N   1      31.888  41.574  60.314  0.00  0.00    -0.042 A 
HETATM    5  C   UNK N   1      30.600  41.078  60.683  0.00  0.00    -0.042 A 
HETATM    6  C   UNK N   1      30.382  39.666  60.804  0.00  0.00    -0.012 A 
HETATM    7  C   UNK N   1      31.477  38.788  60.610  0.00  0.00     0.072 A 
HETATM    8  C   UNK N   1      32.737  39.292  60.298  0.00  0.00     0.037 A 
HETATM    9  C   UNK N   1      32.941  40.654  60.148  0.00  0.00     0.011 A 
HETATM   10  C   UNK N   1      29.465  42.038  60.960  0.00  0.00     0.040 C 
HETATM   11  C   UNK N   1      29.929  43.464  61.210  0.00  0.00     0.011 C 
HETATM   12  C   UNK N   1      32.845  43.291  58.698  0.00  0.00     0.046 C 
HETATM   13  C   UNK N   1      31.945  42.769  57.546  0.00  0.00     0.120 C 
HETATM   14  C   UNK N   1      30.449  43.144  57.721  0.00  0.00     0.051 C 
HETATM   15  C   UNK N   1      33.162  43.547  61.180  0.00  0.00     0.021 C 
HETATM   16  C   UNK N   1      28.678  44.599  58.779  0.00  0.00     0.026 C 
ENDROOT
BRANCH   1  17
HETATM   17  C   UNK N   1      30.772  45.649  58.173  0.00  0.00     0.270 C 
HETATM   18  O   UNK N   1      31.386  45.708  57.121  0.00  0.00    -0.264 OA
BRANCH  17  19
HETATM   19  O   UNK N   1      30.514  46.781  58.881  0.00  0.00    -0.286 OA
BRANCH  19  20
HETATM   20  C   UNK N   1      29.621  47.766  58.516  0.00  0.00     0.301 C 
HETATM   21  O   UNK N   1      30.235  48.579  57.532  0.00  0.00    -0.348 OA
HETATM   22  C   UNK N   1      29.335  49.574  57.068  0.00  0.00     0.179 C 
HETATM   23  C   UNK N   1      28.981  50.551  58.215  0.00  0.00     0.180 C 
HETATM   24  C   UNK N   1      28.363  49.754  59.379  0.00  0.00     0.183 C 
HETATM   25  C   UNK N   1      29.298  48.603  59.770  0.00  0.00     0.205 C 
BRANCH  22  26
HETATM   26  C   UNK N   1      30.000  50.317  55.900  0.00  0.00     0.198 C 
BRANCH  26  27
HETATM   27  O   UNK N   1      30.793  51.371  56.377  0.00  0.00    -0.398 OA
HETATM   28  H   UNK N   1      30.251  51.858  57.052  0.00  0.00     0.209 HD
ENDBRANCH  26  27
ENDBRANCH  22  26
BRANCH  23  29
HETATM   29  O   UNK N   1      28.068  51.512  57.751  0.00  0.00    -0.390 OA
HETATM   30  H   UNK N   1      28.464  52.403  57.930  0.00  0.00     0.210 HD
ENDBRANCH  23  29
BRANCH  24  31
HETATM   31  O   UNK N   1      28.155  50.581  60.495  0.00  0.00    -0.390 OA
HETATM   32  H   UNK N   1      28.949  51.171  60.573  0.00  0.00     0.210 HD
ENDBRANCH  24  31
BRANCH  25  33
HETATM   33  O   UNK N   1      28.670  47.813  60.747  0.00  0.00    -0.388 OA
HETATM   34  H   UNK N   1      27.691  47.942  60.646  0.00  0.00     0.210 HD
ENDBRANCH  25  33
ENDBRANCH  19  20
ENDBRANCH  17  19
ENDBRANCH   1  17
BRANCH  13  35
HETATM   35  O   UNK N   1      32.436  43.143  56.278  0.00  0.00    -0.396 OA
HETATM   36  H   UNK N   1      32.422  42.363  55.672  0.00  0.00     0.210 HD
ENDBRANCH  13  35
BRANCH   6  37
HETATM   37  C   UNK N   1      28.992  39.095  61.153  0.00  0.00     0.041 C 
HETATM   38  C   UNK N   1      28.434  38.248  60.002  0.00  0.00     0.017 C 
BRANCH  37  39
HETATM   39  C   UNK N   1      29.001  38.312  62.483  0.00  0.00     0.173 C 
BRANCH  39  40
HETATM   40  O   UNK N   1      29.480  39.117  63.528  0.00  0.00    -0.400 OA
HETATM   41  H   UNK N   1      29.975  38.520  64.147  0.00  0.00     0.209 HD
ENDBRANCH  39  40
ENDBRANCH  37  39
ENDBRANCH   6  37
BRANCH   7  42
HETATM   42  O   UNK N   1      31.317  37.453  60.737  0.00  0.00    -0.360 OA
HETATM   43  H   UNK N   1      30.450  37.049  60.883  0.00  0.00     0.217 HD
ENDBRANCH   7  42
TORSDOF 13
ENDMDL
MODEL 8
REMARK VINA RESULT:      -4.9     19.940     23.061
REMARK  13 active torsions:
REMARK  status: ('A' for Active; 'I' for Inactive)
REMARK    1  A    between atoms: C_2  and  O_3 
REMARK    2  A    between atoms: C_2  and  C_19 
REMARK    3  A    between atoms: O_3  and  C_4 
REMARK    4  A    between atoms: C_6  and  C_16 
REMARK    5  A    between atoms: C_7  and  O_8 
REMARK    6  A    between atoms: C_10  and  O_11 
REMARK    7  A    between atoms: C_13  and  O_14 
REMARK    8  A    between atoms: C_16  and  O_17 
REMARK    9  A    between atoms: C_24  and  C_30 
REMARK   10  A    between atoms: C_25  and  O_26 
REMARK   11  A    between atoms: C_30  and  C_31 
REMARK   12  A    between atoms: C_31  and  O_32 
REMARK   13  A    between atoms: C_38  and  O_39 
ROOT
HETATM    1  C   UNK N   1      29.001  43.868  60.210  0.00  0.00     0.051 C 
HETATM    2  C   UNK N   1      30.374  43.249  59.650  0.00  0.00     0.017 C 
HETATM    3  C   UNK N   1      30.598  43.379  58.078  0.00  0.00    -0.009 C 
HETATM    4  C   UNK N   1      30.169  42.116  57.279  0.00  0.00    -0.042 A 
HETATM    5  C   UNK N   1      29.759  40.902  57.913  0.00  0.00    -0.042 A 
HETATM    6  C   UNK N   1      29.299  39.800  57.121  0.00  0.00    -0.012 A 
HETATM    7  C   UNK N   1      29.315  39.918  55.709  0.00  0.00     0.072 A 
HETATM    8  C   UNK N   1      29.763  41.091  55.107  0.00  0.00     0.037 A 
HETATM    9  C   UNK N   1      30.177  42.170  55.872  0.00  0.00     0.011 A 
HETATM   10  C   UNK N   1      29.823  40.770  59.417  0.00  0.00     0.040 C 
HETATM   11  C   UNK N   1      30.706  41.816  60.077  0.00  0.00     0.011 C 
HETATM   12  C   UNK N   1      29.794  44.613  57.589  0.00  0.00     0.046 C 
HETATM   13  C   UNK N   1      28.266  44.403  57.768  0.00  0.00     0.120 C 
HETATM   14  C   UNK N   1      27.895  43.750  59.127  0.00  0.00     0.051 C 
HETATM   15  C   UNK N   1      32.099  43.626  57.787  0.00  0.00     0.021 C 
HETATM   16  C   UNK N   1      28.504  43.182  61.510  0.00  0.00     0.026 C 
ENDROOT
BRANCH   1  17
HETATM   17  C   UNK N   1      29.245  45.317  60.644  0.00  0.00     0.270 C 
HETATM   18  O   UNK N   1      30.372  45.754  60.807  0.00  0.00    -0.264 OA
BRANCH  17  19
HETATM   19  O   UNK N   1      28.167  46.136  60.776  0.00  0.00    -0.286 OA
BRANCH  19  20
HETATM   20  C   UNK N   1      28.121  47.464  60.410  0.00  0.00     0.301 C 
HETATM   21  O   UNK N   1      28.646  47.582  59.100  0.00  0.00    -0.348 OA
HETATM   22  C   UNK N   1      28.563  48.923  58.643  0.00  0.00     0.179 C 
HETATM   23  C   UNK N   1      29.464  49.838  59.508  0.00  0.00     0.180 C 
HETATM   24  C   UNK N   1      29.020  49.733  60.978  0.00  0.00     0.183 C 
HETATM   25  C   UNK N   1      28.992  48.260  61.404  0.00  0.00     0.205 C 
BRANCH  22  26
HETATM   26  C   UNK N   1      28.998  48.957  57.171  0.00  0.00     0.198 C 
BRANCH  26  27
HETATM   27  O   UNK N   1      28.113  48.211  56.380  0.00  0.00    -0.398 OA
HETATM   28  H   UNK N   1      27.242  48.196  56.857  0.00  0.00     0.209 HD
ENDBRANCH  26  27
ENDBRANCH  22  26
BRANCH  23  29
HETATM   29  O   UNK N   1      29.350  51.167  59.064  0.00  0.00    -0.390 OA
HETATM   30  H   UNK N   1      28.478  51.245  58.599  0.00  0.00     0.210 HD
ENDBRANCH  23  29
BRANCH  24  31
HETATM   31  O   UNK N   1      29.899  50.439  61.816  0.00  0.00    -0.390 OA
HETATM   32  H   UNK N   1      29.644  50.229  62.751  0.00  0.00     0.210 HD
ENDBRANCH  24  31
BRANCH  25  33
HETATM   33  O   UNK N   1      28.470  48.168  62.705  0.00  0.00    -0.388 OA
HETATM   34  H   UNK N   1      29.001  47.482  63.188  0.00  0.00     0.210 HD
ENDBRANCH  25  33
ENDBRANCH  19  20
ENDBRANCH  17  19
ENDBRANCH   1  17
BRANCH  13  35
HETATM   35  O   UNK N   1      27.538  45.588  57.538  0.00  0.00    -0.396 OA
HETATM   36  H   UNK N   1      26.570  45.385  57.514  0.00  0.00     0.210 HD
ENDBRANCH  13  35
BRANCH   6  37
HETATM   37  C   UNK N   1      28.804  38.492  57.776  0.00  0.00     0.041 C 
HETATM   38  C   UNK N   1      27.318  38.250  57.479  0.00  0.00     0.017 C 
BRANCH  37  39
HETATM   39  C   UNK N   1      29.669  37.278  57.378  0.00  0.00     0.173 C 
BRANCH  39  40
HETATM   40  O   UNK N   1      29.070  36.083  57.803  0.00  0.00    -0.400 OA
HETATM   41  H   UNK N   1      28.093  36.248  57.841  0.00  0.00     0.209 HD
ENDBRANCH  39  40
ENDBRANCH  37  39
ENDBRANCH   6  37
BRANCH   7  42
HETATM   42  O   UNK N   1      28.909  38.893  54.929  0.00  0.00    -0.360 OA
HETATM   43  H   UNK N   1      29.128  37.972  55.132  0.00  0.00     0.217 HD
ENDBRANCH   7  42
TORSDOF 13
ENDMDL
MODEL 9
REMARK VINA RESULT:      -4.9     17.101     22.141
REMARK  13 active torsions:
REMARK  status: ('A' for Active; 'I' for Inactive)
REMARK    1  A    between atoms: C_2  and  O_3 
REMARK    2  A    between atoms: C_2  and  C_19 
REMARK    3  A    between atoms: O_3  and  C_4 
REMARK    4  A    between atoms: C_6  and  C_16 
REMARK    5  A    between atoms: C_7  and  O_8 
REMARK    6  A    between atoms: C_10  and  O_11 
REMARK    7  A    between atoms: C_13  and  O_14 
REMARK    8  A    between atoms: C_16  and  O_17 
REMARK    9  A    between atoms: C_24  and  C_30 
REMARK   10  A    between atoms: C_25  and  O_26 
REMARK   11  A    between atoms: C_30  and  C_31 
REMARK   12  A    between atoms: C_31  and  O_32 
REMARK   13  A    between atoms: C_38  and  O_39 
ROOT
HETATM    1  C   UNK N   1      31.221  43.710  58.543  0.00  0.00     0.051 C 
HETATM    2  C   UNK N   1      31.778  42.472  59.401  0.00  0.00     0.017 C 
HETATM    3  C   UNK N   1      31.076  42.241  60.814  0.00  0.00    -0.009 C 
HETATM    4  C   UNK N   1      31.836  42.891  62.003  0.00  0.00    -0.042 A 
HETATM    5  C   UNK N   1      33.119  43.503  61.859  0.00  0.00    -0.042 A 
HETATM    6  C   UNK N   1      33.732  44.157  62.978  0.00  0.00    -0.012 A 
HETATM    7  C   UNK N   1      33.071  44.131  64.231  0.00  0.00     0.072 A 
HETATM    8  C   UNK N   1      31.842  43.489  64.364  0.00  0.00     0.037 A 
HETATM    9  C   UNK N   1      31.233  42.885  63.276  0.00  0.00     0.011 A 
HETATM   10  C   UNK N   1      33.843  43.452  60.533  0.00  0.00     0.040 C 
HETATM   11  C   UNK N   1      33.296  42.394  59.589  0.00  0.00     0.011 C 
HETATM   12  C   UNK N   1      29.638  42.818  60.723  0.00  0.00     0.046 C 
HETATM   13  C   UNK N   1      29.656  44.357  60.523  0.00  0.00     0.120 C 
HETATM   14  C   UNK N   1      30.724  44.828  59.499  0.00  0.00     0.051 C 
HETATM   15  C   UNK N   1      30.977  40.721  61.100  0.00  0.00     0.021 C 
HETATM   16  C   UNK N   1      32.275  44.309  57.576  0.00  0.00     0.026 C 
ENDROOT
BRANCH   1  17
HETATM   17  C   UNK N   1      30.119  43.210  57.602  0.00  0.00     0.270 C 
HETATM   18  O   UNK N   1      29.107  43.861  57.400  0.00  0.00    -0.264 OA
BRANCH  17  19
HETATM   19  O   UNK N   1      30.330  42.045  56.933  0.00  0.00    -0.286 OA
BRANCH  19  20
HETATM   20  C   UNK N   1      29.348  41.163  56.534  0.00  0.00     0.301 C 
HETATM   21  O   UNK N   1      29.760  39.853  56.882  0.00  0.00    -0.348 OA
HETATM   22  C   UNK N   1      28.756  38.906  56.554  0.00  0.00     0.179 C 
HETATM   23  C   UNK N   1      28.549  38.855  55.021  0.00  0.00     0.180 C 
HETATM   24  C   UNK N   1      28.160  40.259  54.521  0.00  0.00     0.183 C 
HETATM   25  C   UNK N   1      29.195  41.282  55.004  0.00  0.00     0.205 C 
BRANCH  22  26
HETATM   26  C   UNK N   1      29.192  37.536  57.095  0.00  0.00     0.198 C 
BRANCH  26  27
HETATM   27  O   UNK N   1      29.974  36.861  56.146  0.00  0.00    -0.398 OA
HETATM   28  H   UNK N   1      29.380  36.202  55.699  0.00  0.00     0.209 HD
ENDBRANCH  26  27
ENDBRANCH  22  26
BRANCH  23  29
HETATM   29  O   UNK N   1      27.532  37.935  54.713  0.00  0.00    -0.390 OA
HETATM   30  H   UNK N   1      27.945  37.213  54.173  0.00  0.00     0.210 HD
ENDBRANCH  23  29
BRANCH  24  31
HETATM   31  O   UNK N   1      28.099  40.289  53.119  0.00  0.00    -0.390 OA
HETATM   32  H   UNK N   1      27.289  40.805  52.872  0.00  0.00     0.210 HD
ENDBRANCH  24  31
BRANCH  25  33
HETATM   33  O   UNK N   1      28.767  42.572  54.647  0.00  0.00    -0.388 OA
HETATM   34  H   UNK N   1      29.173  42.785  53.767  0.00  0.00     0.210 HD
ENDBRANCH  25  33
ENDBRANCH  19  20
ENDBRANCH  17  19
ENDBRANCH   1  17
BRANCH  13  35
HETATM   35  O   UNK N   1      28.377  44.867  60.220  0.00  0.00    -0.396 OA
HETATM   36  H   UNK N   1      27.950  45.206  61.045  0.00  0.00     0.210 HD
ENDBRANCH  13  35
BRANCH   6  37
HETATM   37  C   UNK N   1      35.095  44.869  62.845  0.00  0.00     0.041 C 
HETATM   38  C   UNK N   1      34.942  46.390  62.975  0.00  0.00     0.017 C 
BRANCH  37  39
HETATM   39  C   UNK N   1      36.141  44.316  63.835  0.00  0.00     0.173 C 
BRANCH  39  40
HETATM   40  O   UNK N   1      36.482  45.286  64.789  0.00  0.00    -0.400 OA
HETATM   41  H   UNK N   1      37.138  44.866  65.405  0.00  0.00     0.209 HD
ENDBRANCH  39  40
ENDBRANCH  37  39
ENDBRANCH   6  37
BRANCH   7  42
HETATM   42  O   UNK N   1      33.626  44.717  65.313  0.00  0.00    -0.360 OA
HETATM   43  H   UNK N   1      33.182  44.736  66.174  0.00  0.00     0.217 HD
ENDBRANCH   7  42
TORSDOF 13
ENDMDL
