MODEL 1
REMARK VINA RESULT:      -6.8      0.000      0.000
REMARK  7 active torsions:
REMARK  status: ('A' for Active; 'I' for Inactive)
REMARK    1  A    between atoms: C_5  and  O_6 
REMARK    2  A    between atoms: O_6  and  C_7 
REMARK    3  A    between atoms: C_7  and  C_9 
REMARK    4  A    between atoms: C_12  and  O_13 
REMARK    5  A    between atoms: C_18  and  O_19 
REMARK    6  A    between atoms: C_18  and  C_21 
REMARK    7  A    between atoms: C_25  and  O_26 
ROOT
HETATM    1  O   UNK N   1      42.264  48.367  49.540  0.00  0.00    -0.293 OA
HETATM    2  C   UNK N   1      42.242  47.481  48.698  0.00  0.00     0.155 C 
HETATM    3  C   UNK N   1      42.802  47.739  47.352  0.00  0.00    -0.017 C 
HETATM    4  C   UNK N   1      42.318  47.180  46.224  0.00  0.00     0.016 C 
HETATM    5  C   UNK N   1      41.026  46.403  46.116  0.00  0.00     0.163 C 
HETATM    6  C   UNK N   1      40.836  45.145  46.995  0.00  0.00     0.065 C 
HETATM    7  C   UNK N   1      41.793  43.928  46.742  0.00  0.00     0.070 C 
HETATM    8  C   UNK N   1      41.819  43.193  48.119  0.00  0.00     0.071 C 
HETATM    9  C   UNK N   1      40.721  43.847  48.964  0.00  0.00     0.130 C 
HETATM   10  C   UNK N   1      40.764  45.335  48.535  0.00  0.00    -0.002 C 
HETATM   11  C   UNK N   1      41.994  46.061  49.142  0.00  0.00     0.095 C 
HETATM   12  C   UNK N   1      39.483  46.057  49.021  0.00  0.00     0.019 C 
HETATM   13  C   UNK N   1      44.006  48.644  47.270  0.00  0.00     0.052 C 
ENDROOT
BRANCH   5  14
HETATM   14  O   UNK N   1      39.970  47.271  46.325  0.00  0.00    -0.308 OA
BRANCH  14  15
HETATM   15  C   UNK N   1      39.028  47.569  45.384  0.00  0.00     0.294 C 
HETATM   16  O   UNK N   1      38.039  46.862  45.250  0.00  0.00    -0.259 OA
BRANCH  15  17
HETATM   17  C   UNK N   1      39.197  48.771  44.540  0.00  0.00     0.039 A 
HETATM   18  C   UNK N   1      38.416  48.947  43.381  0.00  0.00     0.020 A 
HETATM   19  C   UNK N   1      38.581  50.086  42.589  0.00  0.00     0.037 A 
HETATM   20  C   UNK N   1      39.526  51.061  42.944  0.00  0.00     0.065 A 
HETATM   21  C   UNK N   1      40.303  50.887  44.093  0.00  0.00     0.037 A 
HETATM   22  C   UNK N   1      40.141  49.751  44.887  0.00  0.00     0.020 A 
BRANCH  20  23
HETATM   23  O   UNK N   1      39.693  52.163  42.188  0.00  0.00    -0.361 OA
HETATM   24  H   UNK N   1      40.565  52.429  41.864  0.00  0.00     0.217 HD
ENDBRANCH  20  23
ENDBRANCH  15  17
ENDBRANCH  14  15
ENDBRANCH   5  14
BRANCH   7  25
HETATM   25  O   UNK N   1      43.093  44.413  46.482  0.00  0.00    -0.389 OA
HETATM   26  H   UNK N   1      43.057  45.405  46.476  0.00  0.00     0.210 HD
ENDBRANCH   7  25
BRANCH   7  27
HETATM   27  C   UNK N   1      41.357  42.959  45.568  0.00  0.00     0.012 C 
HETATM   28  C   UNK N   1      40.154  43.450  44.733  0.00  0.00     0.012 C 
HETATM   29  C   UNK N   1      42.498  42.580  44.609  0.00  0.00     0.012 C 
ENDBRANCH   7  27
BRANCH   9  30
HETATM   30  O   UNK N   1      40.912  43.670  50.345  0.00  0.00    -0.395 OA
HETATM   31  H   UNK N   1      41.308  44.511  50.691  0.00  0.00     0.210 HD
ENDBRANCH   9  30
TORSDOF 7
ENDMDL
MODEL 2
REMARK VINA RESULT:      -5.8      2.285      7.171
REMARK  7 active torsions:
REMARK  status: ('A' for Active; 'I' for Inactive)
REMARK    1  A    between atoms: C_5  and  O_6 
REMARK    2  A    between atoms: O_6  and  C_7 
REMARK    3  A    between atoms: C_7  and  C_9 
REMARK    4  A    between atoms: C_12  and  O_13 
REMARK    5  A    between atoms: C_18  and  O_19 
REMARK    6  A    between atoms: C_18  and  C_21 
REMARK    7  A    between atoms: C_25  and  O_26 
ROOT
HETATM    1  O   UNK N   1      40.099  43.196  44.515  0.00  0.00    -0.293 OA
HETATM    2  C   UNK N   1      40.752  43.953  45.219  0.00  0.00     0.155 C 
HETATM    3  C   UNK N   1      41.900  43.423  45.990  0.00  0.00    -0.017 C 
HETATM    4  C   UNK N   1      42.274  43.904  47.193  0.00  0.00     0.016 C 
HETATM    5  C   UNK N   1      41.479  44.876  48.034  0.00  0.00     0.163 C 
HETATM    6  C   UNK N   1      41.112  46.254  47.435  0.00  0.00     0.065 C 
HETATM    7  C   UNK N   1      42.284  47.237  47.093  0.00  0.00     0.070 C 
HETATM    8  C   UNK N   1      41.691  48.132  45.961  0.00  0.00     0.071 C 
HETATM    9  C   UNK N   1      40.196  47.801  45.905  0.00  0.00     0.130 C 
HETATM   10  C   UNK N   1      40.143  46.286  46.220  0.00  0.00    -0.002 C 
HETATM   11  C   UNK N   1      40.618  45.440  45.009  0.00  0.00     0.095 C 
HETATM   12  C   UNK N   1      38.690  45.873  46.562  0.00  0.00     0.019 C 
HETATM   13  C   UNK N   1      42.703  42.316  45.354  0.00  0.00     0.052 C 
ENDROOT
BRANCH   5  14
HETATM   14  O   UNK N   1      40.329  44.245  48.471  0.00  0.00    -0.308 OA
BRANCH  14  15
HETATM   15  C   UNK N   1      39.651  44.591  49.603  0.00  0.00     0.294 C 
HETATM   16  O   UNK N   1      38.534  45.085  49.532  0.00  0.00    -0.259 OA
BRANCH  15  17
HETATM   17  C   UNK N   1      40.265  44.341  50.925  0.00  0.00     0.039 A 
HETATM   18  C   UNK N   1      41.325  45.145  51.386  0.00  0.00     0.020 A 
HETATM   19  C   UNK N   1      41.899  44.903  52.636  0.00  0.00     0.037 A 
HETATM   20  C   UNK N   1      41.421  43.857  53.440  0.00  0.00     0.065 A 
HETATM   21  C   UNK N   1      40.369  43.057  52.984  0.00  0.00     0.037 A 
HETATM   22  C   UNK N   1      39.793  43.296  51.735  0.00  0.00     0.020 A 
BRANCH  20  23
HETATM   23  O   UNK N   1      41.967  43.615  54.648  0.00  0.00    -0.361 OA
HETATM   24  H   UNK N   1      42.226  44.334  55.241  0.00  0.00     0.217 HD
ENDBRANCH  20  23
ENDBRANCH  15  17
ENDBRANCH  14  15
ENDBRANCH   5  14
BRANCH   7  25
HETATM   25  O   UNK N   1      43.358  46.500  46.549  0.00  0.00    -0.389 OA
HETATM   26  H   UNK N   1      43.962  47.135  46.082  0.00  0.00     0.210 HD
ENDBRANCH   7  25
BRANCH   7  27
HETATM   27  C   UNK N   1      42.814  48.103  48.308  0.00  0.00     0.012 C 
HETATM   28  C   UNK N   1      42.815  47.379  49.672  0.00  0.00     0.012 C 
HETATM   29  C   UNK N   1      44.203  48.722  48.081  0.00  0.00     0.012 C 
ENDBRANCH   7  27
BRANCH   9  30
HETATM   30  O   UNK N   1      39.608  48.123  44.669  0.00  0.00    -0.395 OA
HETATM   31  H   UNK N   1      38.757  48.593  44.869  0.00  0.00     0.210 HD
ENDBRANCH   9  30
TORSDOF 7
ENDMDL
MODEL 3
REMARK VINA RESULT:      -5.8     12.149     14.305
REMARK  7 active torsions:
REMARK  status: ('A' for Active; 'I' for Inactive)
REMARK    1  A    between atoms: C_5  and  O_6 
REMARK    2  A    between atoms: O_6  and  C_7 
REMARK    3  A    between atoms: C_7  and  C_9 
REMARK    4  A    between atoms: C_12  and  O_13 
REMARK    5  A    between atoms: C_18  and  O_19 
REMARK    6  A    between atoms: C_18  and  C_21 
REMARK    7  A    between atoms: C_25  and  O_26 
ROOT
HETATM    1  O   UNK N   1      46.698  56.185  45.773  0.00  0.00    -0.293 OA
HETATM    2  C   UNK N   1      47.804  56.695  45.676  0.00  0.00     0.155 C 
HETATM    3  C   UNK N   1      47.916  58.136  45.351  0.00  0.00    -0.017 C 
HETATM    4  C   UNK N   1      48.926  58.660  44.628  0.00  0.00     0.016 C 
HETATM    5  C   UNK N   1      49.956  57.865  43.858  0.00  0.00     0.163 C 
HETATM    6  C   UNK N   1      50.837  56.849  44.622  0.00  0.00     0.065 C 
HETATM    7  C   UNK N   1      51.821  57.408  45.707  0.00  0.00     0.070 C 
HETATM    8  C   UNK N   1      52.004  56.205  46.686  0.00  0.00     0.071 C 
HETATM    9  C   UNK N   1      51.355  55.001  45.996  0.00  0.00     0.130 C 
HETATM   10  C   UNK N   1      50.141  55.612  45.254  0.00  0.00    -0.002 C 
HETATM   11  C   UNK N   1      48.996  55.964  46.241  0.00  0.00     0.095 C 
HETATM   12  C   UNK N   1      49.597  54.597  44.219  0.00  0.00     0.019 C 
HETATM   13  C   UNK N   1      46.855  59.051  45.909  0.00  0.00     0.052 C 
ENDROOT
BRANCH   5  14
HETATM   14  O   UNK N   1      49.327  57.226  42.806  0.00  0.00    -0.308 OA
BRANCH  14  15
HETATM   15  C   UNK N   1      49.830  57.162  41.540  0.00  0.00     0.294 C 
HETATM   16  O   UNK N   1      50.941  57.609  41.290  0.00  0.00    -0.259 OA
BRANCH  15  17
HETATM   17  C   UNK N   1      49.035  56.523  40.470  0.00  0.00     0.039 A 
HETATM   18  C   UNK N   1      49.670  55.921  39.368  0.00  0.00     0.020 A 
HETATM   19  C   UNK N   1      48.912  55.319  38.362  0.00  0.00     0.037 A 
HETATM   20  C   UNK N   1      47.511  55.309  38.445  0.00  0.00     0.065 A 
HETATM   21  C   UNK N   1      46.878  55.908  39.538  0.00  0.00     0.037 A 
HETATM   22  C   UNK N   1      47.632  56.511  40.546  0.00  0.00     0.020 A 
BRANCH  20  23
HETATM   23  O   UNK N   1      46.769  54.731  37.480  0.00  0.00    -0.361 OA
HETATM   24  H   UNK N   1      46.032  55.195  37.059  0.00  0.00     0.217 HD
ENDBRANCH  20  23
ENDBRANCH  15  17
ENDBRANCH  14  15
ENDBRANCH   5  14
BRANCH   7  25
HETATM   25  O   UNK N   1      51.184  58.451  46.412  0.00  0.00    -0.389 OA
HETATM   26  H   UNK N   1      50.293  58.603  45.999  0.00  0.00     0.210 HD
ENDBRANCH   7  25
BRANCH   7  27
HETATM   27  C   UNK N   1      53.210  57.928  45.153  0.00  0.00     0.012 C 
HETATM   28  C   UNK N   1      53.599  57.389  43.760  0.00  0.00     0.012 C 
HETATM   29  C   UNK N   1      53.348  59.460  45.142  0.00  0.00     0.012 C 
ENDBRANCH   7  27
BRANCH   9  30
HETATM   30  O   UNK N   1      50.991  53.983  46.895  0.00  0.00    -0.395 OA
HETATM   31  H   UNK N   1      50.619  54.429  47.700  0.00  0.00     0.210 HD
ENDBRANCH   9  30
TORSDOF 7
ENDMDL
MODEL 4
REMARK VINA RESULT:      -5.6     14.847     17.271
REMARK  7 active torsions:
REMARK  status: ('A' for Active; 'I' for Inactive)
REMARK    1  A    between atoms: C_5  and  O_6 
REMARK    2  A    between atoms: O_6  and  C_7 
REMARK    3  A    between atoms: C_7  and  C_9 
REMARK    4  A    between atoms: C_12  and  O_13 
REMARK    5  A    between atoms: C_18  and  O_19 
REMARK    6  A    between atoms: C_18  and  C_21 
REMARK    7  A    between atoms: C_25  and  O_26 
ROOT
HETATM    1  O   UNK N   1      29.658  41.519  57.500  0.00  0.00    -0.293 OA
HETATM    2  C   UNK N   1      30.126  41.915  58.557  0.00  0.00     0.155 C 
HETATM    3  C   UNK N   1      29.253  42.019  59.748  0.00  0.00    -0.017 C 
HETATM    4  C   UNK N   1      29.408  42.956  60.706  0.00  0.00     0.016 C 
HETATM    5  C   UNK N   1      30.320  44.157  60.616  0.00  0.00     0.163 C 
HETATM    6  C   UNK N   1      31.833  43.930  60.390  0.00  0.00     0.065 C 
HETATM    7  C   UNK N   1      32.634  43.185  61.514  0.00  0.00     0.070 C 
HETATM    8  C   UNK N   1      33.831  42.543  60.744  0.00  0.00     0.071 C 
HETATM    9  C   UNK N   1      33.795  43.146  59.336  0.00  0.00     0.130 C 
HETATM   10  C   UNK N   1      32.283  43.303  59.041  0.00  0.00    -0.002 C 
HETATM   11  C   UNK N   1      31.625  41.934  58.727  0.00  0.00     0.095 C 
HETATM   12  C   UNK N   1      32.083  44.231  57.818  0.00  0.00     0.019 C 
HETATM   13  C   UNK N   1      28.168  40.982  59.898  0.00  0.00     0.052 C 
ENDROOT
BRANCH   5  14
HETATM   14  O   UNK N   1      29.835  45.010  59.641  0.00  0.00    -0.308 OA
BRANCH  14  15
HETATM   15  C   UNK N   1      29.182  46.178  59.904  0.00  0.00     0.294 C 
HETATM   16  O   UNK N   1      28.352  46.237  60.800  0.00  0.00    -0.259 OA
BRANCH  15  17
HETATM   17  C   UNK N   1      29.503  47.386  59.114  0.00  0.00     0.039 A 
HETATM   18  C   UNK N   1      29.272  48.670  59.644  0.00  0.00     0.020 A 
HETATM   19  C   UNK N   1      29.578  49.806  58.892  0.00  0.00     0.037 A 
HETATM   20  C   UNK N   1      30.117  49.675  57.604  0.00  0.00     0.065 A 
HETATM   21  C   UNK N   1      30.346  48.401  57.075  0.00  0.00     0.037 A 
HETATM   22  C   UNK N   1      30.042  47.263  57.823  0.00  0.00     0.020 A 
BRANCH  20  23
HETATM   23  O   UNK N   1      30.417  50.764  56.869  0.00  0.00    -0.361 OA
HETATM   24  H   UNK N   1      30.488  50.722  55.905  0.00  0.00     0.217 HD
ENDBRANCH  20  23
ENDBRANCH  15  17
ENDBRANCH  14  15
ENDBRANCH   5  14
BRANCH   7  25
HETATM   25  O   UNK N   1      31.838  42.141  62.031  0.00  0.00    -0.389 OA
HETATM   26  H   UNK N   1      31.572  42.385  62.957  0.00  0.00     0.210 HD
ENDBRANCH   7  25
BRANCH   7  27
HETATM   27  C   UNK N   1      33.129  44.100  62.708  0.00  0.00     0.012 C 
HETATM   28  C   UNK N   1      32.674  43.641  64.111  0.00  0.00     0.012 C 
HETATM   29  C   UNK N   1      34.649  44.328  62.737  0.00  0.00     0.012 C 
ENDBRANCH   7  27
BRANCH   9  30
HETATM   30  O   UNK N   1      34.459  42.355  58.383  0.00  0.00    -0.395 OA
HETATM   31  H   UNK N   1      33.986  42.486  57.520  0.00  0.00     0.210 HD
ENDBRANCH   9  30
TORSDOF 7
ENDMDL
MODEL 5
REMARK VINA RESULT:      -5.3     14.839     17.379
REMARK  7 active torsions:
REMARK  status: ('A' for Active; 'I' for Inactive)
REMARK    1  A    between atoms: C_5  and  O_6 
REMARK    2  A    between atoms: O_6  and  C_7 
REMARK    3  A    between atoms: C_7  and  C_9 
REMARK    4  A    between atoms: C_12  and  O_13 
REMARK    5  A    between atoms: C_18  and  O_19 
REMARK    6  A    between atoms: C_18  and  C_21 
REMARK    7  A    between atoms: C_25  and  O_26 
ROOT
HETATM    1  O   UNK N   1      26.991  43.516  60.997  0.00  0.00    -0.293 OA
HETATM    2  C   UNK N   1      28.211  43.455  61.038  0.00  0.00     0.155 C 
HETATM    3  C   UNK N   1      28.972  44.528  61.717  0.00  0.00    -0.017 C 
HETATM    4  C   UNK N   1      30.198  44.932  61.327  0.00  0.00     0.016 C 
HETATM    5  C   UNK N   1      30.884  44.534  60.041  0.00  0.00     0.163 C 
HETATM    6  C   UNK N   1      31.130  43.033  59.759  0.00  0.00     0.065 C 
HETATM    7  C   UNK N   1      32.099  42.261  60.720  0.00  0.00     0.070 C 
HETATM    8  C   UNK N   1      31.613  40.781  60.615  0.00  0.00     0.071 C 
HETATM    9  C   UNK N   1      30.612  40.750  59.455  0.00  0.00     0.130 C 
HETATM   10  C   UNK N   1      29.891  42.117  59.554  0.00  0.00    -0.002 C 
HETATM   11  C   UNK N   1      28.884  42.140  60.734  0.00  0.00     0.095 C 
HETATM   12  C   UNK N   1      29.113  42.394  58.245  0.00  0.00     0.019 C 
HETATM   13  C   UNK N   1      28.340  45.155  62.934  0.00  0.00     0.052 C 
ENDROOT
BRANCH   5  14
HETATM   14  O   UNK N   1      30.193  45.091  58.981  0.00  0.00    -0.308 OA
BRANCH  14  15
HETATM   15  C   UNK N   1      30.744  45.952  58.077  0.00  0.00     0.294 C 
HETATM   16  O   UNK N   1      31.550  45.552  57.249  0.00  0.00    -0.259 OA
BRANCH  15  17
HETATM   17  C   UNK N   1      30.340  47.375  58.086  0.00  0.00     0.039 A 
HETATM   18  C   UNK N   1      29.630  47.910  59.177  0.00  0.00     0.020 A 
HETATM   19  C   UNK N   1      29.252  49.255  59.179  0.00  0.00     0.037 A 
HETATM   20  C   UNK N   1      29.580  50.080  58.093  0.00  0.00     0.065 A 
HETATM   21  C   UNK N   1      30.285  49.550  57.007  0.00  0.00     0.037 A 
HETATM   22  C   UNK N   1      30.664  48.207  57.002  0.00  0.00     0.020 A 
BRANCH  20  23
HETATM   23  O   UNK N   1      29.222  51.379  58.083  0.00  0.00    -0.361 OA
HETATM   24  H   UNK N   1      29.543  51.999  58.753  0.00  0.00     0.217 HD
ENDBRANCH  20  23
ENDBRANCH  15  17
ENDBRANCH  14  15
ENDBRANCH   5  14
BRANCH   7  25
HETATM   25  O   UNK N   1      31.880  42.699  62.043  0.00  0.00    -0.389 OA
HETATM   26  H   UNK N   1      32.102  41.950  62.657  0.00  0.00     0.210 HD
ENDBRANCH   7  25
BRANCH   7  27
HETATM   27  C   UNK N   1      33.639  42.397  60.377  0.00  0.00     0.012 C 
HETATM   28  C   UNK N   1      33.954  42.648  58.886  0.00  0.00     0.012 C 
HETATM   29  C   UNK N   1      34.380  43.449  61.218  0.00  0.00     0.012 C 
ENDBRANCH   7  27
BRANCH   9  30
HETATM   30  O   UNK N   1      29.727  39.660  59.522  0.00  0.00    -0.395 OA
HETATM   31  H   UNK N   1      29.691  39.376  60.472  0.00  0.00     0.210 HD
ENDBRANCH   9  30
TORSDOF 7
ENDMDL
MODEL 6
REMARK VINA RESULT:      -5.3     14.569     16.805
REMARK  7 active torsions:
REMARK  status: ('A' for Active; 'I' for Inactive)
REMARK    1  A    between atoms: C_5  and  O_6 
REMARK    2  A    between atoms: O_6  and  C_7 
REMARK    3  A    between atoms: C_7  and  C_9 
REMARK    4  A    between atoms: C_12  and  O_13 
REMARK    5  A    between atoms: C_18  and  O_19 
REMARK    6  A    between atoms: C_18  and  C_21 
REMARK    7  A    between atoms: C_25  and  O_26 
ROOT
HETATM    1  O   UNK N   1      27.850  45.883  58.181  0.00  0.00    -0.293 OA
HETATM    2  C   UNK N   1      28.860  45.281  58.519  0.00  0.00     0.155 C 
HETATM    3  C   UNK N   1      30.181  45.749  58.041  0.00  0.00    -0.017 C 
HETATM    4  C   UNK N   1      31.216  44.922  57.787  0.00  0.00     0.016 C 
HETATM    5  C   UNK N   1      31.138  43.414  57.726  0.00  0.00     0.163 C 
HETATM    6  C   UNK N   1      30.639  42.642  58.970  0.00  0.00     0.065 C 
HETATM    7  C   UNK N   1      31.507  42.720  60.273  0.00  0.00     0.070 C 
HETATM    8  C   UNK N   1      30.473  42.469  61.415  0.00  0.00     0.071 C 
HETATM    9  C   UNK N   1      29.183  42.021  60.721  0.00  0.00     0.130 C 
HETATM   10  C   UNK N   1      29.163  42.847  59.412  0.00  0.00    -0.002 C 
HETATM   11  C   UNK N   1      28.783  44.327  59.684  0.00  0.00     0.095 C 
HETATM   12  C   UNK N   1      28.124  42.249  58.432  0.00  0.00     0.019 C 
HETATM   13  C   UNK N   1      30.368  47.237  57.883  0.00  0.00     0.052 C 
ENDROOT
BRANCH   5  14
HETATM   14  O   UNK N   1      30.378  43.054  56.629  0.00  0.00    -0.308 OA
BRANCH  14  15
HETATM   15  C   UNK N   1      30.847  42.311  55.585  0.00  0.00     0.294 C 
HETATM   16  O   UNK N   1      32.030  42.349  55.279  0.00  0.00    -0.259 OA
BRANCH  15  17
HETATM   17  C   UNK N   1      29.919  41.434  54.839  0.00  0.00     0.039 A 
HETATM   18  C   UNK N   1      29.643  40.131  55.296  0.00  0.00     0.020 A 
HETATM   19  C   UNK N   1      28.765  39.309  54.586  0.00  0.00     0.037 A 
HETATM   20  C   UNK N   1      28.153  39.777  53.414  0.00  0.00     0.065 A 
HETATM   21  C   UNK N   1      28.427  41.070  52.958  0.00  0.00     0.037 A 
HETATM   22  C   UNK N   1      29.303  41.895  53.665  0.00  0.00     0.020 A 
BRANCH  20  23
HETATM   23  O   UNK N   1      27.304  38.993  52.721  0.00  0.00    -0.361 OA
HETATM   24  H   UNK N   1      26.858  39.309  51.923  0.00  0.00     0.217 HD
ENDBRANCH  20  23
ENDBRANCH  15  17
ENDBRANCH  14  15
ENDBRANCH   5  14
BRANCH   7  25
HETATM   25  O   UNK N   1      32.005  44.033  60.416  0.00  0.00    -0.389 OA
HETATM   26  H   UNK N   1      32.200  44.390  59.510  0.00  0.00     0.210 HD
ENDBRANCH   7  25
BRANCH   7  27
HETATM   27  C   UNK N   1      32.715  41.698  60.342  0.00  0.00     0.012 C 
HETATM   28  C   UNK N   1      32.338  40.227  60.063  0.00  0.00     0.012 C 
HETATM   29  C   UNK N   1      33.909  42.076  59.450  0.00  0.00     0.012 C 
ENDBRANCH   7  27
BRANCH   9  30
HETATM   30  O   UNK N   1      28.036  42.220  61.510  0.00  0.00    -0.395 OA
HETATM   31  H   UNK N   1      27.364  41.552  61.215  0.00  0.00     0.210 HD
ENDBRANCH   9  30
TORSDOF 7
ENDMDL
MODEL 7
REMARK VINA RESULT:      -5.2     14.108     16.661
REMARK  7 active torsions:
REMARK  status: ('A' for Active; 'I' for Inactive)
REMARK    1  A    between atoms: C_5  and  O_6 
REMARK    2  A    between atoms: O_6  and  C_7 
REMARK    3  A    between atoms: C_7  and  C_9 
REMARK    4  A    between atoms: C_12  and  O_13 
REMARK    5  A    between atoms: C_18  and  O_19 
REMARK    6  A    between atoms: C_18  and  C_21 
REMARK    7  A    between atoms: C_25  and  O_26 
ROOT
HETATM    1  O   UNK N   1      26.855  41.875  58.581  0.00  0.00    -0.293 OA
HETATM    2  C   UNK N   1      28.002  42.289  58.670  0.00  0.00     0.155 C 
HETATM    3  C   UNK N   1      28.395  43.511  57.931  0.00  0.00    -0.017 C 
HETATM    4  C   UNK N   1      29.630  43.713  57.429  0.00  0.00     0.016 C 
HETATM    5  C   UNK N   1      30.719  42.669  57.336  0.00  0.00     0.163 C 
HETATM    6  C   UNK N   1      31.201  41.976  58.632  0.00  0.00     0.065 C 
HETATM    7  C   UNK N   1      31.904  42.865  59.715  0.00  0.00     0.070 C 
HETATM    8  C   UNK N   1      31.637  42.094  61.047  0.00  0.00     0.071 C 
HETATM    9  C   UNK N   1      31.053  40.738  60.637  0.00  0.00     0.130 C 
HETATM   10  C   UNK N   1      30.194  41.069  59.392  0.00  0.00    -0.002 C 
HETATM   11  C   UNK N   1      28.875  41.782  59.790  0.00  0.00     0.095 C 
HETATM   12  C   UNK N   1      29.834  39.762  58.643  0.00  0.00     0.019 C 
HETATM   13  C   UNK N   1      27.353  44.592  57.786  0.00  0.00     0.052 C 
ENDROOT
BRANCH   5  14
HETATM   14  O   UNK N   1      30.333  41.708  56.419  0.00  0.00    -0.308 OA
BRANCH  14  15
HETATM   15  C   UNK N   1      30.555  41.801  55.076  0.00  0.00     0.294 C 
HETATM   16  O   UNK N   1      31.693  41.756  54.630  0.00  0.00    -0.259 OA
BRANCH  15  17
HETATM   17  C   UNK N   1      29.405  41.931  54.155  0.00  0.00     0.039 A 
HETATM   18  C   UNK N   1      29.612  42.160  52.781  0.00  0.00     0.020 A 
HETATM   19  C   UNK N   1      28.521  42.281  51.918  0.00  0.00     0.037 A 
HETATM   20  C   UNK N   1      27.213  42.175  52.414  0.00  0.00     0.065 A 
HETATM   21  C   UNK N   1      27.006  41.949  53.779  0.00  0.00     0.037 A 
HETATM   22  C   UNK N   1      28.094  41.827  54.645  0.00  0.00     0.020 A 
BRANCH  20  23
HETATM   23  O   UNK N   1      26.153  42.289  51.590  0.00  0.00    -0.361 OA
HETATM   24  H   UNK N   1      25.867  43.148  51.248  0.00  0.00     0.217 HD
ENDBRANCH  20  23
ENDBRANCH  15  17
ENDBRANCH  14  15
ENDBRANCH   5  14
BRANCH   7  25
HETATM   25  O   UNK N   1      31.240  44.108  59.791  0.00  0.00    -0.389 OA
HETATM   26  H   UNK N   1      31.419  44.605  58.950  0.00  0.00     0.210 HD
ENDBRANCH   7  25
BRANCH   7  27
HETATM   27  C   UNK N   1      33.450  43.115  59.484  0.00  0.00     0.012 C 
HETATM   28  C   UNK N   1      34.292  43.225  60.774  0.00  0.00     0.012 C 
HETATM   29  C   UNK N   1      34.118  42.096  58.547  0.00  0.00     0.012 C 
ENDBRANCH   7  27
BRANCH   9  30
HETATM   30  O   UNK N   1      30.315  40.124  61.663  0.00  0.00    -0.395 OA
HETATM   31  H   UNK N   1      29.389  40.012  61.325  0.00  0.00     0.210 HD
ENDBRANCH   9  30
TORSDOF 7
ENDMDL
MODEL 8
REMARK VINA RESULT:      -5.2     12.240     14.912
REMARK  7 active torsions:
REMARK  status: ('A' for Active; 'I' for Inactive)
REMARK    1  A    between atoms: C_5  and  O_6 
REMARK    2  A    between atoms: O_6  and  C_7 
REMARK    3  A    between atoms: C_7  and  C_9 
REMARK    4  A    between atoms: C_12  and  O_13 
REMARK    5  A    between atoms: C_18  and  O_19 
REMARK    6  A    between atoms: C_18  and  C_21 
REMARK    7  A    between atoms: C_25  and  O_26 
ROOT
HETATM    1  O   UNK N   1      46.676  55.998  45.893  0.00  0.00    -0.293 OA
HETATM    2  C   UNK N   1      47.737  56.601  45.812  0.00  0.00     0.155 C 
HETATM    3  C   UNK N   1      47.729  58.055  45.531  0.00  0.00    -0.017 C 
HETATM    4  C   UNK N   1      48.692  58.681  44.824  0.00  0.00     0.016 C 
HETATM    5  C   UNK N   1      49.783  57.997  44.032  0.00  0.00     0.163 C 
HETATM    6  C   UNK N   1      50.745  57.034  44.765  0.00  0.00     0.065 C 
HETATM    7  C   UNK N   1      51.682  57.639  45.868  0.00  0.00     0.070 C 
HETATM    8  C   UNK N   1      51.964  56.427  46.811  0.00  0.00     0.071 C 
HETATM    9  C   UNK N   1      51.415  55.194  46.084  0.00  0.00     0.130 C 
HETATM   10  C   UNK N   1      50.154  55.725  45.360  0.00  0.00    -0.002 C 
HETATM   11  C   UNK N   1      48.985  55.953  46.355  0.00  0.00     0.095 C 
HETATM   12  C   UNK N   1      49.693  54.701  44.294  0.00  0.00     0.019 C 
HETATM   13  C   UNK N   1      46.597  58.862  46.115  0.00  0.00     0.052 C 
ENDROOT
BRANCH   5  14
HETATM   14  O   UNK N   1      49.206  57.341  42.961  0.00  0.00    -0.308 OA
BRANCH  14  15
HETATM   15  C   UNK N   1      49.340  57.735  41.662  0.00  0.00     0.294 C 
HETATM   16  O   UNK N   1      48.686  58.672  41.227  0.00  0.00    -0.259 OA
BRANCH  15  17
HETATM   17  C   UNK N   1      50.304  57.037  40.784  0.00  0.00     0.039 A 
HETATM   18  C   UNK N   1      51.315  56.227  41.334  0.00  0.00     0.020 A 
HETATM   19  C   UNK N   1      52.222  55.571  40.498  0.00  0.00     0.037 A 
HETATM   20  C   UNK N   1      52.129  55.715  39.106  0.00  0.00     0.065 A 
HETATM   21  C   UNK N   1      51.125  56.520  38.558  0.00  0.00     0.037 A 
HETATM   22  C   UNK N   1      50.218  57.177  39.389  0.00  0.00     0.020 A 
BRANCH  20  23
HETATM   23  O   UNK N   1      52.998  55.086  38.290  0.00  0.00    -0.361 OA
HETATM   24  H   UNK N   1      53.336  55.507  37.487  0.00  0.00     0.217 HD
ENDBRANCH  20  23
ENDBRANCH  15  17
ENDBRANCH  14  15
ENDBRANCH   5  14
BRANCH   7  25
HETATM   25  O   UNK N   1      50.963  58.605  46.603  0.00  0.00    -0.389 OA
HETATM   26  H   UNK N   1      50.434  59.150  45.963  0.00  0.00     0.210 HD
ENDBRANCH   7  25
BRANCH   7  27
HETATM   27  C   UNK N   1      53.023  58.288  45.331  0.00  0.00     0.012 C 
HETATM   28  C   UNK N   1      53.550  57.693  44.008  0.00  0.00     0.012 C 
HETATM   29  C   UNK N   1      52.968  59.819  45.193  0.00  0.00     0.012 C 
ENDBRANCH   7  27
BRANCH   9  30
HETATM   30  O   UNK N   1      51.137  54.124  46.952  0.00  0.00    -0.395 OA
HETATM   31  H   UNK N   1      50.661  53.436  46.418  0.00  0.00     0.210 HD
ENDBRANCH   9  30
TORSDOF 7
ENDMDL
MODEL 9
REMARK VINA RESULT:      -5.1     14.359     16.970
REMARK  7 active torsions:
REMARK  status: ('A' for Active; 'I' for Inactive)
REMARK    1  A    between atoms: C_5  and  O_6 
REMARK    2  A    between atoms: O_6  and  C_7 
REMARK    3  A    between atoms: C_7  and  C_9 
REMARK    4  A    between atoms: C_12  and  O_13 
REMARK    5  A    between atoms: C_18  and  O_19 
REMARK    6  A    between atoms: C_18  and  C_21 
REMARK    7  A    between atoms: C_25  and  O_26 
ROOT
HETATM    1  O   UNK N   1      31.935  41.083  59.819  0.00  0.00    -0.293 OA
HETATM    2  C   UNK N   1      30.848  41.413  59.368  0.00  0.00     0.155 C 
HETATM    3  C   UNK N   1      29.721  40.454  59.409  0.00  0.00    -0.017 C 
HETATM    4  C   UNK N   1      28.755  40.399  58.469  0.00  0.00     0.016 C 
HETATM    5  C   UNK N   1      28.782  41.122  57.143  0.00  0.00     0.163 C 
HETATM    6  C   UNK N   1      28.902  42.664  57.136  0.00  0.00     0.065 C 
HETATM    7  C   UNK N   1      27.726  43.490  57.761  0.00  0.00     0.070 C 
HETATM    8  C   UNK N   1      28.411  44.820  58.207  0.00  0.00     0.071 C 
HETATM    9  C   UNK N   1      29.818  44.790  57.602  0.00  0.00     0.130 C 
HETATM   10  C   UNK N   1      30.217  43.295  57.673  0.00  0.00    -0.002 C 
HETATM   11  C   UNK N   1      30.575  42.876  59.123  0.00  0.00     0.095 C 
HETATM   12  C   UNK N   1      31.451  43.040  56.774  0.00  0.00     0.019 C 
HETATM   13  C   UNK N   1      29.646  39.532  60.601  0.00  0.00     0.052 C 
ENDROOT
BRANCH   5  14
HETATM   14  O   UNK N   1      29.789  40.581  56.364  0.00  0.00    -0.308 OA
BRANCH  14  15
HETATM   15  C   UNK N   1      29.574  39.916  55.192  0.00  0.00     0.294 C 
HETATM   16  O   UNK N   1      29.773  38.712  55.116  0.00  0.00    -0.259 OA
BRANCH  15  17
HETATM   17  C   UNK N   1      29.071  40.657  54.015  0.00  0.00     0.039 A 
HETATM   18  C   UNK N   1      29.751  41.796  53.543  0.00  0.00     0.020 A 
HETATM   19  C   UNK N   1      29.270  42.490  52.431  0.00  0.00     0.037 A 
HETATM   20  C   UNK N   1      28.107  42.056  51.777  0.00  0.00     0.065 A 
HETATM   21  C   UNK N   1      27.431  40.925  52.245  0.00  0.00     0.037 A 
HETATM   22  C   UNK N   1      27.908  40.229  53.356  0.00  0.00     0.020 A 
BRANCH  20  23
HETATM   23  O   UNK N   1      27.635  42.717  50.702  0.00  0.00    -0.361 OA
HETATM   24  H   UNK N   1      26.786  42.487  50.298  0.00  0.00     0.217 HD
ENDBRANCH  20  23
ENDBRANCH  15  17
ENDBRANCH  14  15
ENDBRANCH   5  14
BRANCH   7  25
HETATM   25  O   UNK N   1      27.264  42.828  58.919  0.00  0.00    -0.389 OA
HETATM   26  H   UNK N   1      26.352  42.481  58.734  0.00  0.00     0.210 HD
ENDBRANCH   7  25
BRANCH   7  27
HETATM   27  C   UNK N   1      26.500  43.757  56.795  0.00  0.00     0.012 C 
HETATM   28  C   UNK N   1      26.658  43.181  55.371  0.00  0.00     0.012 C 
HETATM   29  C   UNK N   1      25.144  43.305  57.360  0.00  0.00     0.012 C 
ENDBRANCH   7  27
BRANCH   9  30
HETATM   30  O   UNK N   1      30.723  45.630  58.273  0.00  0.00    -0.395 OA
HETATM   31  H   UNK N   1      31.526  45.084  58.478  0.00  0.00     0.210 HD
ENDBRANCH   9  30
TORSDOF 7
ENDMDL
