MODEL 1
REMARK VINA RESULT:      -7.7      0.000      0.000
REMARK  5 active torsions:
REMARK  status: ('A' for Active; 'I' for Inactive)
REMARK    1  A    between atoms: C_7  and  C_8 
REMARK    2  A    between atoms: C_10  and  O_11 
REMARK    3  A    between atoms: C_13  and  O_14 
REMARK    4  A    between atoms: C_19  and  O_20 
REMARK    5  A    between atoms: C_23  and  O_24 
ROOT
HETATM    1  O   UNK N   1      42.580  46.715  50.690  0.00  0.00    -0.286 OA
HETATM    2  C   UNK N   1      41.696  45.922  50.420  0.00  0.00     0.200 A 
HETATM    3  C   UNK N   1      41.225  44.994  51.384  0.00  0.00     0.082 A 
HETATM    4  C   UNK N   1      40.193  44.103  50.999  0.00  0.00     0.094 A 
HETATM    5  O   UNK N   1      39.686  44.144  49.770  0.00  0.00    -0.321 OA
HETATM    6  C   UNK N   1      40.110  45.001  48.849  0.00  0.00     0.159 A 
HETATM    7  C   UNK N   1      41.125  45.917  49.133  0.00  0.00     0.048 A 
HETATM    8  C   UNK N   1      39.694  43.164  51.907  0.00  0.00     0.074 A 
HETATM    9  C   UNK N   1      40.206  43.090  53.203  0.00  0.00     0.071 A 
HETATM   10  C   UNK N   1      41.224  43.964  53.599  0.00  0.00     0.074 A 
HETATM   11  C   UNK N   1      41.741  44.917  52.706  0.00  0.00     0.085 A 
ENDROOT
BRANCH   7  12
HETATM   12  C   UNK N   1      41.562  46.848  48.069  0.00  0.00    -0.017 A 
HETATM   13  C   UNK N   1      40.692  47.177  47.020  0.00  0.00     0.052 A 
HETATM   14  C   UNK N   1      41.123  48.009  45.977  0.00  0.00     0.102 A 
HETATM   15  C   UNK N   1      42.428  48.526  45.984  0.00  0.00     0.099 A 
HETATM   16  C   UNK N   1      43.299  48.197  47.033  0.00  0.00     0.040 A 
HETATM   17  C   UNK N   1      42.870  47.357  48.067  0.00  0.00     0.015 A 
BRANCH  14  18
HETATM   18  O   UNK N   1      40.287  48.289  44.956  0.00  0.00    -0.353 OA
HETATM   19  C   UNK N   1      39.349  49.292  45.073  0.00  0.00     0.210 C 
ENDBRANCH  14  18
BRANCH  15  20
HETATM   20  O   UNK N   1      42.842  49.322  44.975  0.00  0.00    -0.358 OA
HETATM   21  H   UNK N   1      43.064  50.253  45.118  0.00  0.00     0.218 HD
ENDBRANCH  15  20
ENDBRANCH   7  12
BRANCH  11  22
HETATM   22  O   UNK N   1      42.724  45.746  53.118  0.00  0.00    -0.360 OA
HETATM   23  H   UNK N   1      43.452  45.430  53.674  0.00  0.00     0.217 HD
ENDBRANCH  11  22
BRANCH   9  24
HETATM   24  O   UNK N   1      39.714  42.175  54.063  0.00  0.00    -0.361 OA
HETATM   25  H   UNK N   1      39.966  42.169  54.997  0.00  0.00     0.217 HD
ENDBRANCH   9  24
TORSDOF 5
ENDMDL
MODEL 2
REMARK VINA RESULT:      -7.3      2.790      8.163
REMARK  5 active torsions:
REMARK  status: ('A' for Active; 'I' for Inactive)
REMARK    1  A    between atoms: C_7  and  C_8 
REMARK    2  A    between atoms: C_10  and  O_11 
REMARK    3  A    between atoms: C_13  and  O_14 
REMARK    4  A    between atoms: C_19  and  O_20 
REMARK    5  A    between atoms: C_23  and  O_24 
ROOT
HETATM    1  O   UNK N   1      38.440  46.603  45.477  0.00  0.00    -0.286 OA
HETATM    2  C   UNK N   1      39.349  47.414  45.496  0.00  0.00     0.200 A 
HETATM    3  C   UNK N   1      39.345  48.540  44.635  0.00  0.00     0.082 A 
HETATM    4  C   UNK N   1      40.436  49.440  44.715  0.00  0.00     0.094 A 
HETATM    5  O   UNK N   1      41.427  49.229  45.575  0.00  0.00    -0.321 OA
HETATM    6  C   UNK N   1      41.457  48.182  46.391  0.00  0.00     0.159 A 
HETATM    7  C   UNK N   1      40.428  47.238  46.385  0.00  0.00     0.048 A 
HETATM    8  C   UNK N   1      40.487  50.566  43.885  0.00  0.00     0.074 A 
HETATM    9  C   UNK N   1      39.466  50.816  42.968  0.00  0.00     0.071 A 
HETATM   10  C   UNK N   1      38.381  49.937  42.878  0.00  0.00     0.074 A 
HETATM   11  C   UNK N   1      38.306  48.801  43.702  0.00  0.00     0.085 A 
ENDROOT
BRANCH   7  12
HETATM   12  C   UNK N   1      40.511  46.088  47.312  0.00  0.00    -0.017 A 
HETATM   13  C   UNK N   1      41.405  45.039  47.054  0.00  0.00     0.052 A 
HETATM   14  C   UNK N   1      41.444  43.919  47.897  0.00  0.00     0.102 A 
HETATM   15  C   UNK N   1      40.593  43.846  49.009  0.00  0.00     0.099 A 
HETATM   16  C   UNK N   1      39.698  44.895  49.268  0.00  0.00     0.040 A 
HETATM   17  C   UNK N   1      39.654  46.007  48.420  0.00  0.00     0.015 A 
BRANCH  14  18
HETATM   18  O   UNK N   1      42.285  42.901  47.617  0.00  0.00    -0.353 OA
HETATM   19  C   UNK N   1      42.464  42.477  46.318  0.00  0.00     0.210 C 
ENDBRANCH  14  18
BRANCH  15  20
HETATM   20  O   UNK N   1      40.629  42.763  49.814  0.00  0.00    -0.358 OA
HETATM   21  H   UNK N   1      41.266  42.687  50.540  0.00  0.00     0.218 HD
ENDBRANCH  15  20
ENDBRANCH   7  12
BRANCH  11  22
HETATM   22  O   UNK N   1      37.247  47.972  43.590  0.00  0.00    -0.360 OA
HETATM   23  H   UNK N   1      37.208  47.133  44.073  0.00  0.00     0.217 HD
ENDBRANCH  11  22
BRANCH   9  24
HETATM   24  O   UNK N   1      39.535  51.905  42.175  0.00  0.00    -0.361 OA
HETATM   25  H   UNK N   1      39.014  52.700  42.357  0.00  0.00     0.217 HD
ENDBRANCH   9  24
TORSDOF 5
ENDMDL
MODEL 3
REMARK VINA RESULT:      -7.3      2.328      4.462
REMARK  5 active torsions:
REMARK  status: ('A' for Active; 'I' for Inactive)
REMARK    1  A    between atoms: C_7  and  C_8 
REMARK    2  A    between atoms: C_10  and  O_11 
REMARK    3  A    between atoms: C_13  and  O_14 
REMARK    4  A    between atoms: C_19  and  O_20 
REMARK    5  A    between atoms: C_23  and  O_24 
ROOT
HETATM    1  O   UNK N   1      38.467  46.511  46.101  0.00  0.00    -0.286 OA
HETATM    2  C   UNK N   1      39.494  46.756  46.708  0.00  0.00     0.200 A 
HETATM    3  C   UNK N   1      39.911  45.949  47.797  0.00  0.00     0.082 A 
HETATM    4  C   UNK N   1      41.117  46.294  48.455  0.00  0.00     0.094 A 
HETATM    5  O   UNK N   1      41.831  47.343  48.055  0.00  0.00    -0.321 OA
HETATM    6  C   UNK N   1      41.462  48.115  47.041  0.00  0.00     0.159 A 
HETATM    7  C   UNK N   1      40.287  47.857  46.331  0.00  0.00     0.048 A 
HETATM    8  C   UNK N   1      41.575  45.537  49.538  0.00  0.00     0.074 A 
HETATM    9  C   UNK N   1      40.849  44.432  49.986  0.00  0.00     0.071 A 
HETATM   10  C   UNK N   1      39.656  44.077  49.346  0.00  0.00     0.074 A 
HETATM   11  C   UNK N   1      39.178  44.822  48.255  0.00  0.00     0.085 A 
ENDROOT
BRANCH   7  12
HETATM   12  C   UNK N   1      39.920  48.752  45.211  0.00  0.00    -0.017 A 
HETATM   13  C   UNK N   1      38.873  48.405  44.347  0.00  0.00     0.052 A 
HETATM   14  C   UNK N   1      38.562  49.219  43.249  0.00  0.00     0.102 A 
HETATM   15  C   UNK N   1      39.294  50.393  43.014  0.00  0.00     0.099 A 
HETATM   16  C   UNK N   1      40.343  50.740  43.879  0.00  0.00     0.040 A 
HETATM   17  C   UNK N   1      40.658  49.921  44.969  0.00  0.00     0.015 A 
BRANCH  14  18
HETATM   18  O   UNK N   1      37.574  48.855  42.405  0.00  0.00    -0.353 OA
HETATM   19  C   UNK N   1      36.515  48.095  42.852  0.00  0.00     0.210 C 
ENDBRANCH  14  18
BRANCH  15  20
HETATM   20  O   UNK N   1      38.997  51.171  41.952  0.00  0.00    -0.358 OA
HETATM   21  H   UNK N   1      38.175  51.682  41.908  0.00  0.00     0.218 HD
ENDBRANCH  15  20
ENDBRANCH   7  12
BRANCH  11  22
HETATM   22  O   UNK N   1      38.023  44.454  47.659  0.00  0.00    -0.360 OA
HETATM   23  H   UNK N   1      37.462  45.099  47.202  0.00  0.00     0.217 HD
ENDBRANCH  11  22
BRANCH   9  24
HETATM   24  O   UNK N   1      41.304  43.716  51.035  0.00  0.00    -0.361 OA
HETATM   25  H   UNK N   1      41.247  44.050  51.941  0.00  0.00     0.217 HD
ENDBRANCH   9  24
TORSDOF 5
ENDMDL
MODEL 4
REMARK VINA RESULT:      -7.1      2.157      3.704
REMARK  5 active torsions:
REMARK  status: ('A' for Active; 'I' for Inactive)
REMARK    1  A    between atoms: C_7  and  C_8 
REMARK    2  A    between atoms: C_10  and  O_11 
REMARK    3  A    between atoms: C_13  and  O_14 
REMARK    4  A    between atoms: C_19  and  O_20 
REMARK    5  A    between atoms: C_23  and  O_24 
ROOT
HETATM    1  O   UNK N   1      41.692  48.312  47.278  0.00  0.00    -0.286 OA
HETATM    2  C   UNK N   1      40.835  47.449  47.357  0.00  0.00     0.200 A 
HETATM    3  C   UNK N   1      40.896  46.447  48.357  0.00  0.00     0.082 A 
HETATM    4  C   UNK N   1      39.864  45.477  48.388  0.00  0.00     0.094 A 
HETATM    5  O   UNK N   1      38.871  45.515  47.503  0.00  0.00    -0.321 OA
HETATM    6  C   UNK N   1      38.792  46.441  46.556  0.00  0.00     0.159 A 
HETATM    7  C   UNK N   1      39.763  47.438  46.444  0.00  0.00     0.048 A 
HETATM    8  C   UNK N   1      39.875  44.461  49.350  0.00  0.00     0.074 A 
HETATM    9  C   UNK N   1      40.903  44.389  50.290  0.00  0.00     0.071 A 
HETATM   10  C   UNK N   1      41.928  45.340  50.275  0.00  0.00     0.074 A 
HETATM   11  C   UNK N   1      41.938  46.370  49.320  0.00  0.00     0.085 A 
ENDROOT
BRANCH   7  12
HETATM   12  C   UNK N   1      39.629  48.445  45.367  0.00  0.00    -0.017 A 
HETATM   13  C   UNK N   1      38.625  48.310  44.398  0.00  0.00     0.052 A 
HETATM   14  C   UNK N   1      38.533  49.227  43.341  0.00  0.00     0.102 A 
HETATM   15  C   UNK N   1      39.442  50.293  43.254  0.00  0.00     0.099 A 
HETATM   16  C   UNK N   1      40.447  50.428  44.224  0.00  0.00     0.040 A 
HETATM   17  C   UNK N   1      40.543  49.505  45.271  0.00  0.00     0.015 A 
BRANCH  14  18
HETATM   18  O   UNK N   1      37.584  49.065  42.396  0.00  0.00    -0.353 OA
HETATM   19  C   UNK N   1      36.523  48.212  42.608  0.00  0.00     0.210 C 
ENDBRANCH  14  18
BRANCH  15  20
HETATM   20  O   UNK N   1      39.354  51.170  42.232  0.00  0.00    -0.358 OA
HETATM   21  H   UNK N   1      38.854  51.995  42.309  0.00  0.00     0.218 HD
ENDBRANCH  15  20
ENDBRANCH   7  12
BRANCH  11  22
HETATM   22  O   UNK N   1      42.943  47.272  49.330  0.00  0.00    -0.360 OA
HETATM   23  H   UNK N   1      43.019  47.952  48.644  0.00  0.00     0.217 HD
ENDBRANCH  11  22
BRANCH   9  24
HETATM   24  O   UNK N   1      40.898  43.400  51.208  0.00  0.00    -0.361 OA
HETATM   25  H   UNK N   1      40.226  42.703  51.199  0.00  0.00     0.217 HD
ENDBRANCH   9  24
TORSDOF 5
ENDMDL
MODEL 5
REMARK VINA RESULT:      -6.9      2.944      3.439
REMARK  5 active torsions:
REMARK  status: ('A' for Active; 'I' for Inactive)
REMARK    1  A    between atoms: C_7  and  C_8 
REMARK    2  A    between atoms: C_10  and  O_11 
REMARK    3  A    between atoms: C_13  and  O_14 
REMARK    4  A    between atoms: C_19  and  O_20 
REMARK    5  A    between atoms: C_23  and  O_24 
ROOT
HETATM    1  O   UNK N   1      42.568  45.566  49.193  0.00  0.00    -0.286 OA
HETATM    2  C   UNK N   1      41.702  44.757  49.480  0.00  0.00     0.200 A 
HETATM    3  C   UNK N   1      41.334  44.525  50.829  0.00  0.00     0.082 A 
HETATM    4  C   UNK N   1      40.320  43.571  51.086  0.00  0.00     0.094 A 
HETATM    5  O   UNK N   1      39.734  42.919  50.085  0.00  0.00    -0.321 OA
HETATM    6  C   UNK N   1      40.061  43.116  48.814  0.00  0.00     0.159 A 
HETATM    7  C   UNK N   1      41.052  44.035  48.461  0.00  0.00     0.048 A 
HETATM    8  C   UNK N   1      39.920  43.298  52.398  0.00  0.00     0.074 A 
HETATM    9  C   UNK N   1      40.516  43.960  53.472  0.00  0.00     0.071 A 
HETATM   10  C   UNK N   1      41.518  44.907  53.235  0.00  0.00     0.074 A 
HETATM   11  C   UNK N   1      41.936  45.200  51.926  0.00  0.00     0.085 A 
ENDROOT
BRANCH   7  12
HETATM   12  C   UNK N   1      41.380  44.213  47.029  0.00  0.00    -0.017 A 
HETATM   13  C   UNK N   1      42.035  43.193  46.325  0.00  0.00     0.052 A 
HETATM   14  C   UNK N   1      42.403  43.382  44.985  0.00  0.00     0.102 A 
HETATM   15  C   UNK N   1      42.107  44.591  44.338  0.00  0.00     0.099 A 
HETATM   16  C   UNK N   1      41.452  45.612  45.043  0.00  0.00     0.040 A 
HETATM   17  C   UNK N   1      41.095  45.426  46.383  0.00  0.00     0.015 A 
BRANCH  14  18
HETATM   18  O   UNK N   1      43.064  42.405  44.330  0.00  0.00    -0.353 OA
HETATM   19  C   UNK N   1      44.386  42.142  44.614  0.00  0.00     0.210 C 
ENDBRANCH  14  18
BRANCH  15  20
HETATM   20  O   UNK N   1      42.469  44.772  43.050  0.00  0.00    -0.358 OA
HETATM   21  H   UNK N   1      43.352  44.539  42.731  0.00  0.00     0.218 HD
ENDBRANCH  15  20
ENDBRANCH   7  12
BRANCH  11  22
HETATM   22  O   UNK N   1      42.907  46.117  51.731  0.00  0.00    -0.360 OA
HETATM   23  H   UNK N   1      42.948  46.645  50.919  0.00  0.00     0.217 HD
ENDBRANCH  11  22
BRANCH   9  24
HETATM   24  O   UNK N   1      40.119  43.681  54.731  0.00  0.00    -0.361 OA
HETATM   25  H   UNK N   1      39.632  44.325  55.265  0.00  0.00     0.217 HD
ENDBRANCH   9  24
TORSDOF 5
ENDMDL
MODEL 6
REMARK VINA RESULT:      -6.9      1.399      7.081
REMARK  5 active torsions:
REMARK  status: ('A' for Active; 'I' for Inactive)
REMARK    1  A    between atoms: C_7  and  C_8 
REMARK    2  A    between atoms: C_10  and  O_11 
REMARK    3  A    between atoms: C_13  and  O_14 
REMARK    4  A    between atoms: C_19  and  O_20 
REMARK    5  A    between atoms: C_23  and  O_24 
ROOT
HETATM    1  O   UNK N   1      42.654  46.725  48.989  0.00  0.00    -0.286 OA
HETATM    2  C   UNK N   1      41.511  46.548  48.606  0.00  0.00     0.200 A 
HETATM    3  C   UNK N   1      41.050  47.116  47.391  0.00  0.00     0.082 A 
HETATM    4  C   UNK N   1      39.709  46.866  47.009  0.00  0.00     0.094 A 
HETATM    5  O   UNK N   1      38.915  46.120  47.771  0.00  0.00    -0.321 OA
HETATM    6  C   UNK N   1      39.320  45.579  48.913  0.00  0.00     0.159 A 
HETATM    7  C   UNK N   1      40.625  45.770  49.375  0.00  0.00     0.048 A 
HETATM    8  C   UNK N   1      39.198  47.405  45.823  0.00  0.00     0.074 A 
HETATM    9  C   UNK N   1      40.003  48.196  45.002  0.00  0.00     0.071 A 
HETATM   10  C   UNK N   1      41.330  48.450  45.364  0.00  0.00     0.074 A 
HETATM   11  C   UNK N   1      41.865  47.919  46.549  0.00  0.00     0.085 A 
ENDROOT
BRANCH   7  12
HETATM   12  C   UNK N   1      41.024  45.147  50.656  0.00  0.00    -0.017 A 
HETATM   13  C   UNK N   1      40.384  43.983  51.104  0.00  0.00     0.052 A 
HETATM   14  C   UNK N   1      40.717  43.425  52.346  0.00  0.00     0.102 A 
HETATM   15  C   UNK N   1      41.702  44.025  53.145  0.00  0.00     0.099 A 
HETATM   16  C   UNK N   1      42.343  45.190  52.698  0.00  0.00     0.040 A 
HETATM   17  C   UNK N   1      42.001  45.752  51.462  0.00  0.00     0.015 A 
BRANCH  14  18
HETATM   18  O   UNK N   1      40.069  42.324  52.780  0.00  0.00    -0.353 OA
HETATM   19  C   UNK N   1      38.973  42.437  53.608  0.00  0.00     0.210 C 
ENDBRANCH  14  18
BRANCH  15  20
HETATM   20  O   UNK N   1      42.016  43.489  54.344  0.00  0.00    -0.358 OA
HETATM   21  H   UNK N   1      42.856  43.681  54.784  0.00  0.00     0.218 HD
ENDBRANCH  15  20
ENDBRANCH   7  12
BRANCH  11  22
HETATM   22  O   UNK N   1      43.149  48.184  46.872  0.00  0.00    -0.360 OA
HETATM   23  H   UNK N   1      43.683  48.807  46.355  0.00  0.00     0.217 HD
ENDBRANCH  11  22
BRANCH   9  24
HETATM   24  O   UNK N   1      39.491  48.709  43.863  0.00  0.00    -0.361 OA
HETATM   25  H   UNK N   1      39.744  48.368  42.994  0.00  0.00     0.217 HD
ENDBRANCH   9  24
TORSDOF 5
ENDMDL
MODEL 7
REMARK VINA RESULT:      -6.3      1.603      2.892
REMARK  5 active torsions:
REMARK  status: ('A' for Active; 'I' for Inactive)
REMARK    1  A    between atoms: C_7  and  C_8 
REMARK    2  A    between atoms: C_10  and  O_11 
REMARK    3  A    between atoms: C_13  and  O_14 
REMARK    4  A    between atoms: C_19  and  O_20 
REMARK    5  A    between atoms: C_23  and  O_24 
ROOT
HETATM    1  O   UNK N   1      39.403  44.407  49.355  0.00  0.00    -0.286 OA
HETATM    2  C   UNK N   1      40.357  44.903  49.929  0.00  0.00     0.200 A 
HETATM    3  C   UNK N   1      40.740  44.468  51.223  0.00  0.00     0.082 A 
HETATM    4  C   UNK N   1      41.860  45.090  51.827  0.00  0.00     0.094 A 
HETATM    5  O   UNK N   1      42.527  46.049  51.192  0.00  0.00    -0.321 OA
HETATM    6  C   UNK N   1      42.188  46.476  49.982  0.00  0.00     0.159 A 
HETATM    7  C   UNK N   1      41.097  45.925  49.306  0.00  0.00     0.048 A 
HETATM    8  C   UNK N   1      42.280  44.705  53.105  0.00  0.00     0.074 A 
HETATM    9  C   UNK N   1      41.601  43.705  53.801  0.00  0.00     0.071 A 
HETATM   10  C   UNK N   1      40.494  43.079  53.218  0.00  0.00     0.074 A 
HETATM   11  C   UNK N   1      40.055  43.447  51.935  0.00  0.00     0.085 A 
ENDROOT
BRANCH   7  12
HETATM   12  C   UNK N   1      40.760  46.440  47.960  0.00  0.00    -0.017 A 
HETATM   13  C   UNK N   1      41.251  45.796  46.816  0.00  0.00     0.052 A 
HETATM   14  C   UNK N   1      40.985  46.315  45.541  0.00  0.00     0.102 A 
HETATM   15  C   UNK N   1      40.216  47.481  45.403  0.00  0.00     0.099 A 
HETATM   16  C   UNK N   1      39.724  48.126  46.548  0.00  0.00     0.040 A 
HETATM   17  C   UNK N   1      40.000  47.612  47.820  0.00  0.00     0.015 A 
BRANCH  14  18
HETATM   18  O   UNK N   1      41.493  45.704  44.451  0.00  0.00    -0.353 OA
HETATM   19  C   UNK N   1      41.896  44.388  44.509  0.00  0.00     0.210 C 
ENDBRANCH  14  18
BRANCH  15  20
HETATM   20  O   UNK N   1      39.967  47.982  44.175  0.00  0.00    -0.358 OA
HETATM   21  H   UNK N   1      40.682  48.247  43.578  0.00  0.00     0.218 HD
ENDBRANCH  15  20
ENDBRANCH   7  12
BRANCH  11  22
HETATM   22  O   UNK N   1      38.982  42.826  51.400  0.00  0.00    -0.360 OA
HETATM   23  H   UNK N   1      38.687  43.014  50.496  0.00  0.00     0.217 HD
ENDBRANCH  11  22
BRANCH   9  24
HETATM   24  O   UNK N   1      42.020  43.350  55.034  0.00  0.00    -0.361 OA
HETATM   25  H   UNK N   1      42.561  43.941  55.577  0.00  0.00     0.217 HD
ENDBRANCH   9  24
TORSDOF 5
ENDMDL
MODEL 8
REMARK VINA RESULT:      -6.3      2.010      2.314
REMARK  5 active torsions:
REMARK  status: ('A' for Active; 'I' for Inactive)
REMARK    1  A    between atoms: C_7  and  C_8 
REMARK    2  A    between atoms: C_10  and  O_11 
REMARK    3  A    between atoms: C_13  and  O_14 
REMARK    4  A    between atoms: C_19  and  O_20 
REMARK    5  A    between atoms: C_23  and  O_24 
ROOT
HETATM    1  O   UNK N   1      42.501  45.572  49.634  0.00  0.00    -0.286 OA
HETATM    2  C   UNK N   1      41.628  44.751  49.857  0.00  0.00     0.200 A 
HETATM    3  C   UNK N   1      41.249  44.427  51.184  0.00  0.00     0.082 A 
HETATM    4  C   UNK N   1      40.226  43.465  51.366  0.00  0.00     0.094 A 
HETATM    5  O   UNK N   1      39.643  42.889  50.318  0.00  0.00    -0.321 OA
HETATM    6  C   UNK N   1      39.981  43.173  49.066  0.00  0.00     0.159 A 
HETATM    7  C   UNK N   1      40.980  44.107  48.786  0.00  0.00     0.048 A 
HETATM    8  C   UNK N   1      39.815  43.103  52.653  0.00  0.00     0.074 A 
HETATM    9  C   UNK N   1      40.407  43.684  53.775  0.00  0.00     0.071 A 
HETATM   10  C   UNK N   1      41.417  44.638  53.612  0.00  0.00     0.074 A 
HETATM   11  C   UNK N   1      41.846  45.019  52.330  0.00  0.00     0.085 A 
ENDROOT
BRANCH   7  12
HETATM   12  C   UNK N   1      41.320  44.383  47.372  0.00  0.00    -0.017 A 
HETATM   13  C   UNK N   1      40.936  45.593  46.779  0.00  0.00     0.052 A 
HETATM   14  C   UNK N   1      41.203  45.833  45.423  0.00  0.00     0.102 A 
HETATM   15  C   UNK N   1      41.865  44.865  44.655  0.00  0.00     0.099 A 
HETATM   16  C   UNK N   1      42.250  43.653  45.248  0.00  0.00     0.040 A 
HETATM   17  C   UNK N   1      41.973  43.411  46.599  0.00  0.00     0.015 A 
BRANCH  14  18
HETATM   18  O   UNK N   1      40.796  46.989  44.856  0.00  0.00    -0.353 OA
HETATM   19  C   UNK N   1      40.004  47.872  45.557  0.00  0.00     0.210 C 
ENDBRANCH  14  18
BRANCH  15  20
HETATM   20  O   UNK N   1      42.114  45.096  43.348  0.00  0.00    -0.358 OA
HETATM   21  H   UNK N   1      41.494  44.826  42.655  0.00  0.00     0.218 HD
ENDBRANCH  15  20
ENDBRANCH   7  12
BRANCH  11  22
HETATM   22  O   UNK N   1      42.825  45.941  52.206  0.00  0.00    -0.360 OA
HETATM   23  H   UNK N   1      43.500  46.057  52.892  0.00  0.00     0.217 HD
ENDBRANCH  11  22
BRANCH   9  24
HETATM   24  O   UNK N   1      39.999  43.319  55.008  0.00  0.00    -0.361 OA
HETATM   25  H   UNK N   1      40.384  43.709  55.806  0.00  0.00     0.217 HD
ENDBRANCH   9  24
TORSDOF 5
ENDMDL
MODEL 9
REMARK VINA RESULT:      -6.3      1.976      7.917
REMARK  5 active torsions:
REMARK  status: ('A' for Active; 'I' for Inactive)
REMARK    1  A    between atoms: C_7  and  C_8 
REMARK    2  A    between atoms: C_10  and  O_11 
REMARK    3  A    between atoms: C_13  and  O_14 
REMARK    4  A    between atoms: C_19  and  O_20 
REMARK    5  A    between atoms: C_23  and  O_24 
ROOT
HETATM    1  O   UNK N   1      38.706  46.214  45.957  0.00  0.00    -0.286 OA
HETATM    2  C   UNK N   1      39.599  47.040  45.892  0.00  0.00     0.200 A 
HETATM    3  C   UNK N   1      39.504  48.155  45.022  0.00  0.00     0.082 A 
HETATM    4  C   UNK N   1      40.581  49.075  45.001  0.00  0.00     0.094 A 
HETATM    5  O   UNK N   1      41.644  48.891  45.779  0.00  0.00    -0.321 OA
HETATM    6  C   UNK N   1      41.759  47.855  46.601  0.00  0.00     0.159 A 
HETATM    7  C   UNK N   1      40.750  46.894  46.690  0.00  0.00     0.048 A 
HETATM    8  C   UNK N   1      40.544  50.190  44.158  0.00  0.00     0.074 A 
HETATM    9  C   UNK N   1      39.447  50.411  43.325  0.00  0.00     0.071 A 
HETATM   10  C   UNK N   1      38.373  49.514  43.335  0.00  0.00     0.074 A 
HETATM   11  C   UNK N   1      38.387  48.387  44.174  0.00  0.00     0.085 A 
ENDROOT
BRANCH   7  12
HETATM   12  C   UNK N   1      40.930  45.757  47.620  0.00  0.00    -0.017 A 
HETATM   13  C   UNK N   1      40.734  45.935  48.997  0.00  0.00     0.052 A 
HETATM   14  C   UNK N   1      40.963  44.877  49.887  0.00  0.00     0.102 A 
HETATM   15  C   UNK N   1      41.382  43.628  49.403  0.00  0.00     0.099 A 
HETATM   16  C   UNK N   1      41.578  43.450  48.025  0.00  0.00     0.040 A 
HETATM   17  C   UNK N   1      41.359  44.510  47.139  0.00  0.00     0.015 A 
BRANCH  14  18
HETATM   18  O   UNK N   1      40.804  45.072  51.213  0.00  0.00    -0.353 OA
HETATM   19  C   UNK N   1      41.879  45.414  52.005  0.00  0.00     0.210 C 
ENDBRANCH  14  18
BRANCH  15  20
HETATM   20  O   UNK N   1      41.608  42.613  50.264  0.00  0.00    -0.358 OA
HETATM   21  H   UNK N   1      41.838  42.773  51.191  0.00  0.00     0.218 HD
ENDBRANCH  15  20
ENDBRANCH   7  12
BRANCH  11  22
HETATM   22  O   UNK N   1      37.337  47.539  44.160  0.00  0.00    -0.360 OA
HETATM   23  H   UNK N   1      36.797  47.416  43.365  0.00  0.00     0.217 HD
ENDBRANCH  11  22
BRANCH   9  24
HETATM   24  O   UNK N   1      39.431  51.491  42.516  0.00  0.00    -0.361 OA
HETATM   25  H   UNK N   1      38.918  51.504  41.695  0.00  0.00     0.217 HD
ENDBRANCH   9  24
TORSDOF 5
ENDMDL
