MODEL 1
REMARK VINA RESULT:      -7.9      0.000      0.000
REMARK  12 active torsions:
REMARK  status: ('A' for Active; 'I' for Inactive)
REMARK    1  A    between atoms: C_2  and  O_3 
REMARK    2  A    between atoms: C_2  and  C_22 
REMARK    3  A    between atoms: O_3  and  C_4 
REMARK    4  A    between atoms: C_5  and  O_6 
REMARK    5  A    between atoms: C_8  and  O_9 
REMARK    6  A    between atoms: O_9  and  C_10 
REMARK    7  A    between atoms: C_14  and  O_15 
REMARK    8  A    between atoms: C_14  and  C_17 
REMARK    9  A    between atoms: C_17  and  O_19 
REMARK   10  A    between atoms: C_23  and  C_24 
REMARK   11  A    between atoms: C_26  and  O_27 
REMARK   12  A    between atoms: C_29  and  O_30 
ROOT
HETATM    1  C   UNK N   1      41.863  46.310  48.322  0.00  0.00     0.166 C 
HETATM    2  C   UNK N   1      40.812  45.656  47.395  0.00  0.00     0.177 C 
HETATM    3  C   UNK N   1      40.744  44.133  47.660  0.00  0.00     0.166 C 
HETATM    4  C   UNK N   1      40.432  43.851  49.147  0.00  0.00     0.084 C 
HETATM    5  C   UNK N   1      41.444  44.529  50.106  0.00  0.00     0.147 C 
HETATM    6  C   UNK N   1      41.480  46.049  49.799  0.00  0.00     0.084 C 
ENDROOT
BRANCH   1   7
HETATM    7  O   UNK N   1      41.929  47.669  48.069  0.00  0.00    -0.310 OA
BRANCH   7   8
HETATM    8  C   UNK N   1      42.595  48.215  47.012  0.00  0.00     0.283 C 
HETATM    9  O   UNK N   1      43.788  48.463  47.090  0.00  0.00    -0.260 OA
BRANCH   8  10
HETATM   10  C   UNK N   1      41.879  48.520  45.759  0.00  0.00     0.083 C 
HETATM   11  C   UNK N   1      40.652  49.074  45.768  0.00  0.00     0.017 C 
BRANCH  11  12
HETATM   12  C   UNK N   1      39.878  49.416  44.540  0.00  0.00    -0.033 A 
HETATM   13  C   UNK N   1      38.763  48.626  44.217  0.00  0.00     0.050 A 
HETATM   14  C   UNK N   1      37.996  48.886  43.075  0.00  0.00     0.099 A 
HETATM   15  C   UNK N   1      38.345  49.974  42.235  0.00  0.00     0.098 A 
HETATM   16  C   UNK N   1      39.449  50.766  42.562  0.00  0.00     0.040 A 
HETATM   17  C   UNK N   1      40.213  50.494  43.698  0.00  0.00     0.014 A 
BRANCH  14  18
HETATM   18  O   UNK N   1      36.944  48.079  42.817  0.00  0.00    -0.358 OA
HETATM   19  H   UNK N   1      36.908  47.451  42.086  0.00  0.00     0.218 HD
ENDBRANCH  14  18
BRANCH  15  20
HETATM   20  O   UNK N   1      37.646  50.282  41.119  0.00  0.00    -0.358 OA
HETATM   21  H   UNK N   1      36.685  50.250  41.056  0.00  0.00     0.218 HD
ENDBRANCH  15  20
ENDBRANCH  11  12
ENDBRANCH   8  10
ENDBRANCH   7   8
ENDBRANCH   1   7
BRANCH   2  22
HETATM   22  O   UNK N   1      39.542  46.222  47.613  0.00  0.00    -0.390 OA
HETATM   23  H   UNK N   1      39.261  45.963  48.529  0.00  0.00     0.210 HD
ENDBRANCH   2  22
BRANCH   3  24
HETATM   24  O   UNK N   1      41.945  43.533  47.320  0.00  0.00    -0.314 OA
BRANCH  24  25
HETATM   25  C   UNK N   1      42.160  42.839  46.171  0.00  0.00     0.255 C 
HETATM   26  O   UNK N   1      41.644  43.191  45.119  0.00  0.00    -0.266 OA
HETATM   27  C   UNK N   1      43.030  41.626  46.202  0.00  0.00     0.126 C 
ENDBRANCH  24  25
ENDBRANCH   3  24
BRANCH   5  28
HETATM   28  O   UNK N   1      42.725  43.979  49.899  0.00  0.00    -0.379 OA
HETATM   29  H   UNK N   1      42.682  43.012  50.120  0.00  0.00     0.211 HD
ENDBRANCH   5  28
BRANCH   5  30
HETATM   30  C   UNK N   1      41.018  44.256  51.546  0.00  0.00     0.176 C 
HETATM   31  O   UNK N   1      41.762  44.526  52.476  0.00  0.00    -0.648 OA
BRANCH  30  32
HETATM   32  O   UNK N   1      39.820  43.688  51.806  0.00  0.00    -0.774 OA
HETATM   33  H   UNK N   1      38.992  44.120  51.554  0.00  0.00     0.167 HD
ENDBRANCH  30  32
ENDBRANCH   5  30
TORSDOF 12
ENDMDL
MODEL 2
REMARK VINA RESULT:      -6.2      3.112      5.391
REMARK  12 active torsions:
REMARK  status: ('A' for Active; 'I' for Inactive)
REMARK    1  A    between atoms: C_2  and  O_3 
REMARK    2  A    between atoms: C_2  and  C_22 
REMARK    3  A    between atoms: O_3  and  C_4 
REMARK    4  A    between atoms: C_5  and  O_6 
REMARK    5  A    between atoms: C_8  and  O_9 
REMARK    6  A    between atoms: O_9  and  C_10 
REMARK    7  A    between atoms: C_14  and  O_15 
REMARK    8  A    between atoms: C_14  and  C_17 
REMARK    9  A    between atoms: C_17  and  O_19 
REMARK   10  A    between atoms: C_23  and  C_24 
REMARK   11  A    between atoms: C_26  and  O_27 
REMARK   12  A    between atoms: C_29  and  O_30 
ROOT
HETATM    1  C   UNK N   1      40.074  48.799  44.713  0.00  0.00     0.166 C 
HETATM    2  C   UNK N   1      38.953  48.665  45.769  0.00  0.00     0.177 C 
HETATM    3  C   UNK N   1      39.255  47.481  46.718  0.00  0.00     0.166 C 
HETATM    4  C   UNK N   1      40.637  47.657  47.387  0.00  0.00     0.084 C 
HETATM    5  C   UNK N   1      41.779  47.836  46.354  0.00  0.00     0.147 C 
HETATM    6  C   UNK N   1      41.428  49.028  45.425  0.00  0.00     0.084 C 
ENDROOT
BRANCH   1   7
HETATM    7  O   UNK N   1      39.789  49.851  43.859  0.00  0.00    -0.310 OA
BRANCH   7   8
HETATM    8  C   UNK N   1      39.044  49.729  42.723  0.00  0.00     0.283 C 
HETATM    9  O   UNK N   1      39.548  49.911  41.626  0.00  0.00    -0.260 OA
BRANCH   8  10
HETATM   10  C   UNK N   1      37.613  49.379  42.807  0.00  0.00     0.083 C 
HETATM   11  C   UNK N   1      36.689  50.285  43.177  0.00  0.00     0.017 C 
BRANCH  11  12
HETATM   12  C   UNK N   1      35.228  50.001  43.272  0.00  0.00    -0.033 A 
HETATM   13  C   UNK N   1      34.359  51.074  43.524  0.00  0.00     0.050 A 
HETATM   14  C   UNK N   1      32.977  50.878  43.634  0.00  0.00     0.099 A 
HETATM   15  C   UNK N   1      32.444  49.573  43.475  0.00  0.00     0.098 A 
HETATM   16  C   UNK N   1      33.309  48.507  43.215  0.00  0.00     0.040 A 
HETATM   17  C   UNK N   1      34.686  48.710  43.116  0.00  0.00     0.014 A 
BRANCH  14  18
HETATM   18  O   UNK N   1      32.200  51.952  43.889  0.00  0.00    -0.358 OA
HETATM   19  H   UNK N   1      32.538  52.841  44.049  0.00  0.00     0.218 HD
ENDBRANCH  14  18
BRANCH  15  20
HETATM   20  O   UNK N   1      31.120  49.315  43.566  0.00  0.00    -0.358 OA
HETATM   21  H   UNK N   1      30.570  49.561  44.319  0.00  0.00     0.218 HD
ENDBRANCH  15  20
ENDBRANCH  11  12
ENDBRANCH   8  10
ENDBRANCH   7   8
ENDBRANCH   1   7
BRANCH   2  22
HETATM   22  O   UNK N   1      38.843  49.848  46.524  0.00  0.00    -0.390 OA
HETATM   23  H   UNK N   1      38.288  49.635  47.320  0.00  0.00     0.210 HD
ENDBRANCH   2  22
BRANCH   3  24
HETATM   24  O   UNK N   1      39.232  46.286  46.017  0.00  0.00    -0.314 OA
BRANCH  24  25
HETATM   25  C   UNK N   1      39.351  45.058  46.587  0.00  0.00     0.255 C 
HETATM   26  O   UNK N   1      40.165  44.247  46.168  0.00  0.00    -0.266 OA
HETATM   27  C   UNK N   1      38.467  44.697  47.735  0.00  0.00     0.126 C 
ENDBRANCH  24  25
ENDBRANCH   3  24
BRANCH   5  28
HETATM   28  O   UNK N   1      41.902  46.663  45.583  0.00  0.00    -0.379 OA
HETATM   29  H   UNK N   1      41.536  46.851  44.678  0.00  0.00     0.211 HD
ENDBRANCH   5  28
BRANCH   5  30
HETATM   30  C   UNK N   1      43.088  48.072  47.102  0.00  0.00     0.176 C 
HETATM   31  O   UNK N   1      43.286  47.548  48.188  0.00  0.00    -0.648 OA
BRANCH  30  32
HETATM   32  O   UNK N   1      44.033  48.885  46.584  0.00  0.00    -0.774 OA
HETATM   33  H   UNK N   1      44.615  48.591  45.870  0.00  0.00     0.167 HD
ENDBRANCH  30  32
ENDBRANCH   5  30
TORSDOF 12
ENDMDL
MODEL 3
REMARK VINA RESULT:      -6.1     10.553     15.924
REMARK  12 active torsions:
REMARK  status: ('A' for Active; 'I' for Inactive)
REMARK    1  A    between atoms: C_2  and  O_3 
REMARK    2  A    between atoms: C_2  and  C_22 
REMARK    3  A    between atoms: O_3  and  C_4 
REMARK    4  A    between atoms: C_5  and  O_6 
REMARK    5  A    between atoms: C_8  and  O_9 
REMARK    6  A    between atoms: O_9  and  C_10 
REMARK    7  A    between atoms: C_14  and  O_15 
REMARK    8  A    between atoms: C_14  and  C_17 
REMARK    9  A    between atoms: C_17  and  O_19 
REMARK   10  A    between atoms: C_23  and  C_24 
REMARK   11  A    between atoms: C_26  and  O_27 
REMARK   12  A    between atoms: C_29  and  O_30 
ROOT
HETATM    1  C   UNK N   1      27.582  54.209  40.298  0.00  0.00     0.166 C 
HETATM    2  C   UNK N   1      27.186  54.392  38.814  0.00  0.00     0.177 C 
HETATM    3  C   UNK N   1      27.515  53.110  38.014  0.00  0.00     0.166 C 
HETATM    4  C   UNK N   1      26.811  51.883  38.634  0.00  0.00     0.084 C 
HETATM    5  C   UNK N   1      27.155  51.695  40.135  0.00  0.00     0.147 C 
HETATM    6  C   UNK N   1      26.812  53.005  40.891  0.00  0.00     0.084 C 
ENDROOT
BRANCH   1   7
HETATM    7  O   UNK N   1      27.297  55.366  41.004  0.00  0.00    -0.310 OA
BRANCH   7   8
HETATM    8  C   UNK N   1      28.171  55.969  41.859  0.00  0.00     0.283 C 
HETATM    9  O   UNK N   1      28.186  57.184  41.978  0.00  0.00    -0.260 OA
BRANCH   8  10
HETATM   10  C   UNK N   1      29.117  55.159  42.650  0.00  0.00     0.083 C 
HETATM   11  C   UNK N   1      30.437  55.422  42.653  0.00  0.00     0.017 C 
BRANCH  11  12
HETATM   12  C   UNK N   1      31.443  54.650  43.436  0.00  0.00    -0.033 A 
HETATM   13  C   UNK N   1      31.431  53.250  43.334  0.00  0.00     0.050 A 
HETATM   14  C   UNK N   1      32.342  52.462  44.048  0.00  0.00     0.099 A 
HETATM   15  C   UNK N   1      33.304  53.091  44.880  0.00  0.00     0.098 A 
HETATM   16  C   UNK N   1      33.321  54.485  44.974  0.00  0.00     0.040 A 
HETATM   17  C   UNK N   1      32.403  55.262  44.265  0.00  0.00     0.014 A 
BRANCH  14  18
HETATM   18  O   UNK N   1      32.267  51.120  43.913  0.00  0.00    -0.358 OA
HETATM   19  H   UNK N   1      32.393  50.494  44.636  0.00  0.00     0.218 HD
ENDBRANCH  14  18
BRANCH  15  20
HETATM   20  O   UNK N   1      34.213  52.391  45.594  0.00  0.00    -0.358 OA
HETATM   21  H   UNK N   1      33.990  51.687  46.215  0.00  0.00     0.218 HD
ENDBRANCH  15  20
ENDBRANCH  11  12
ENDBRANCH   8  10
ENDBRANCH   7   8
ENDBRANCH   1   7
BRANCH   2  22
HETATM   22  O   UNK N   1      25.810  54.668  38.701  0.00  0.00    -0.390 OA
HETATM   23  H   UNK N   1      25.443  54.046  38.020  0.00  0.00     0.210 HD
ENDBRANCH   2  22
BRANCH   3  24
HETATM   24  O   UNK N   1      28.884  52.894  37.996  0.00  0.00    -0.314 OA
BRANCH  24  25
HETATM   25  C   UNK N   1      29.802  53.816  37.602  0.00  0.00     0.255 C 
HETATM   26  O   UNK N   1      29.804  54.252  36.459  0.00  0.00    -0.266 OA
HETATM   27  C   UNK N   1      30.824  54.293  38.580  0.00  0.00     0.126 C 
ENDBRANCH  24  25
ENDBRANCH   3  24
BRANCH   5  28
HETATM   28  O   UNK N   1      28.531  51.424  40.270  0.00  0.00    -0.379 OA
HETATM   29  H   UNK N   1      29.033  52.203  39.913  0.00  0.00     0.211 HD
ENDBRANCH   5  28
BRANCH   5  30
HETATM   30  C   UNK N   1      26.363  50.509  40.677  0.00  0.00     0.176 C 
HETATM   31  O   UNK N   1      25.791  50.584  41.754  0.00  0.00    -0.648 OA
BRANCH  30  32
HETATM   32  O   UNK N   1      26.307  49.352  39.984  0.00  0.00    -0.774 OA
HETATM   33  H   UNK N   1      26.016  48.528  40.400  0.00  0.00     0.167 HD
ENDBRANCH  30  32
ENDBRANCH   5  30
TORSDOF 12
ENDMDL
MODEL 4
REMARK VINA RESULT:      -6.0      1.890      7.442
REMARK  12 active torsions:
REMARK  status: ('A' for Active; 'I' for Inactive)
REMARK    1  A    between atoms: C_2  and  O_3 
REMARK    2  A    between atoms: C_2  and  C_22 
REMARK    3  A    between atoms: O_3  and  C_4 
REMARK    4  A    between atoms: C_5  and  O_6 
REMARK    5  A    between atoms: C_8  and  O_9 
REMARK    6  A    between atoms: O_9  and  C_10 
REMARK    7  A    between atoms: C_14  and  O_15 
REMARK    8  A    between atoms: C_14  and  C_17 
REMARK    9  A    between atoms: C_17  and  O_19 
REMARK   10  A    between atoms: C_23  and  C_24 
REMARK   11  A    between atoms: C_26  and  O_27 
REMARK   12  A    between atoms: C_29  and  O_30 
ROOT
HETATM    1  C   UNK N   1      41.400  45.167  45.739  0.00  0.00     0.166 C 
HETATM    2  C   UNK N   1      42.013  46.570  45.956  0.00  0.00     0.177 C 
HETATM    3  C   UNK N   1      40.893  47.637  46.006  0.00  0.00     0.166 C 
HETATM    4  C   UNK N   1      39.865  47.299  47.108  0.00  0.00     0.084 C 
HETATM    5  C   UNK N   1      39.262  45.879  46.944  0.00  0.00     0.147 C 
HETATM    6  C   UNK N   1      40.420  44.849  46.894  0.00  0.00     0.084 C 
ENDROOT
BRANCH   1   7
HETATM    7  O   UNK N   1      42.408  44.220  45.682  0.00  0.00    -0.310 OA
BRANCH   7   8
HETATM    8  C   UNK N   1      42.547  43.201  46.578  0.00  0.00     0.283 C 
HETATM    9  O   UNK N   1      43.272  42.250  46.331  0.00  0.00    -0.260 OA
BRANCH   8  10
HETATM   10  C   UNK N   1      41.815  43.233  47.858  0.00  0.00     0.083 C 
HETATM   11  C   UNK N   1      42.342  43.808  48.955  0.00  0.00     0.017 C 
BRANCH  11  12
HETATM   12  C   UNK N   1      41.653  43.884  50.275  0.00  0.00    -0.033 A 
HETATM   13  C   UNK N   1      42.164  44.766  51.240  0.00  0.00     0.050 A 
HETATM   14  C   UNK N   1      41.571  44.881  52.503  0.00  0.00     0.099 A 
HETATM   15  C   UNK N   1      40.426  44.102  52.810  0.00  0.00     0.098 A 
HETATM   16  C   UNK N   1      39.913  43.231  51.845  0.00  0.00     0.040 A 
HETATM   17  C   UNK N   1      40.515  43.116  50.591  0.00  0.00     0.014 A 
BRANCH  14  18
HETATM   18  O   UNK N   1      42.122  45.740  53.389  0.00  0.00    -0.358 OA
HETATM   19  H   UNK N   1      43.019  46.086  53.323  0.00  0.00     0.218 HD
ENDBRANCH  14  18
BRANCH  15  20
HETATM   20  O   UNK N   1      39.804  44.167  54.008  0.00  0.00    -0.358 OA
HETATM   21  H   UNK N   1      39.368  44.956  54.350  0.00  0.00     0.218 HD
ENDBRANCH  15  20
ENDBRANCH  11  12
ENDBRANCH   8  10
ENDBRANCH   7   8
ENDBRANCH   1   7
BRANCH   2  22
HETATM   22  O   UNK N   1      42.744  46.609  47.158  0.00  0.00    -0.390 OA
HETATM   23  H   UNK N   1      42.675  45.707  47.570  0.00  0.00     0.210 HD
ENDBRANCH   2  22
BRANCH   3  24
HETATM   24  O   UNK N   1      40.247  47.712  44.782  0.00  0.00    -0.314 OA
BRANCH  24  25
HETATM   25  C   UNK N   1      39.400  48.712  44.421  0.00  0.00     0.255 C 
HETATM   26  O   UNK N   1      38.290  48.462  43.971  0.00  0.00    -0.266 OA
HETATM   27  C   UNK N   1      39.839  50.131  44.569  0.00  0.00     0.126 C 
ENDBRANCH  24  25
ENDBRANCH   3  24
BRANCH   5  28
HETATM   28  O   UNK N   1      38.530  45.818  45.742  0.00  0.00    -0.379 OA
HETATM   29  H   UNK N   1      38.224  44.881  45.617  0.00  0.00     0.211 HD
ENDBRANCH   5  28
BRANCH   5  30
HETATM   30  C   UNK N   1      38.317  45.608  48.111  0.00  0.00     0.176 C 
HETATM   31  O   UNK N   1      37.886  46.528  48.789  0.00  0.00    -0.648 OA
BRANCH  30  32
HETATM   32  O   UNK N   1      37.965  44.342  48.424  0.00  0.00    -0.774 OA
HETATM   33  H   UNK N   1      38.518  43.792  48.997  0.00  0.00     0.167 HD
ENDBRANCH  30  32
ENDBRANCH   5  30
TORSDOF 12
ENDMDL
MODEL 5
REMARK VINA RESULT:      -5.9      9.881     15.825
REMARK  12 active torsions:
REMARK  status: ('A' for Active; 'I' for Inactive)
REMARK    1  A    between atoms: C_2  and  O_3 
REMARK    2  A    between atoms: C_2  and  C_22 
REMARK    3  A    between atoms: O_3  and  C_4 
REMARK    4  A    between atoms: C_5  and  O_6 
REMARK    5  A    between atoms: C_8  and  O_9 
REMARK    6  A    between atoms: O_9  and  C_10 
REMARK    7  A    between atoms: C_14  and  O_15 
REMARK    8  A    between atoms: C_14  and  C_17 
REMARK    9  A    between atoms: C_17  and  O_19 
REMARK   10  A    between atoms: C_23  and  C_24 
REMARK   11  A    between atoms: C_26  and  O_27 
REMARK   12  A    between atoms: C_29  and  O_30 
ROOT
HETATM    1  C   UNK N   1      28.616  54.556  40.143  0.00  0.00     0.166 C 
HETATM    2  C   UNK N   1      28.289  54.571  41.654  0.00  0.00     0.177 C 
HETATM    3  C   UNK N   1      29.231  55.552  42.392  0.00  0.00     0.166 C 
HETATM    4  C   UNK N   1      29.131  56.968  41.784  0.00  0.00     0.084 C 
HETATM    5  C   UNK N   1      29.413  56.981  40.258  0.00  0.00     0.147 C 
HETATM    6  C   UNK N   1      28.450  55.982  39.566  0.00  0.00     0.084 C 
ENDROOT
BRANCH   1   7
HETATM    7  O   UNK N   1      27.779  53.666  39.492  0.00  0.00    -0.310 OA
BRANCH   7   8
HETATM    8  C   UNK N   1      28.129  52.388  39.170  0.00  0.00     0.283 C 
HETATM    9  O   UNK N   1      27.811  51.908  38.094  0.00  0.00    -0.260 OA
BRANCH   8  10
HETATM   10  C   UNK N   1      28.896  51.565  40.124  0.00  0.00     0.083 C 
HETATM   11  C   UNK N   1      30.236  51.658  40.215  0.00  0.00     0.017 C 
BRANCH  11  12
HETATM   12  C   UNK N   1      31.069  50.864  41.163  0.00  0.00    -0.033 A 
HETATM   13  C   UNK N   1      31.892  51.559  42.063  0.00  0.00     0.050 A 
HETATM   14  C   UNK N   1      32.706  50.877  42.976  0.00  0.00     0.099 A 
HETATM   15  C   UNK N   1      32.690  49.459  43.000  0.00  0.00     0.098 A 
HETATM   16  C   UNK N   1      31.863  48.768  42.110  0.00  0.00     0.040 A 
HETATM   17  C   UNK N   1      31.061  49.456  41.197  0.00  0.00     0.014 A 
BRANCH  14  18
HETATM   18  O   UNK N   1      33.483  51.607  43.805  0.00  0.00    -0.358 OA
HETATM   19  H   UNK N   1      33.838  52.477  43.591  0.00  0.00     0.218 HD
ENDBRANCH  14  18
BRANCH  15  20
HETATM   20  O   UNK N   1      33.449  48.739  43.857  0.00  0.00    -0.358 OA
HETATM   21  H   UNK N   1      33.230  47.850  44.159  0.00  0.00     0.218 HD
ENDBRANCH  15  20
ENDBRANCH  11  12
ENDBRANCH   8  10
ENDBRANCH   7   8
ENDBRANCH   1   7
BRANCH   2  22
HETATM   22  O   UNK N   1      26.954  54.963  41.866  0.00  0.00    -0.390 OA
HETATM   23  H   UNK N   1      26.624  55.345  41.011  0.00  0.00     0.210 HD
ENDBRANCH   2  22
BRANCH   3  24
HETATM   24  O   UNK N   1      30.542  55.108  42.313  0.00  0.00    -0.314 OA
BRANCH  24  25
HETATM   25  C   UNK N   1      31.373  54.974  43.380  0.00  0.00     0.255 C 
HETATM   26  O   UNK N   1      32.540  55.334  43.316  0.00  0.00    -0.266 OA
HETATM   27  C   UNK N   1      30.850  54.369  44.642  0.00  0.00     0.126 C 
ENDBRANCH  24  25
ENDBRANCH   3  24
BRANCH   5  28
HETATM   28  O   UNK N   1      30.745  56.585  40.025  0.00  0.00    -0.379 OA
HETATM   29  H   UNK N   1      30.726  55.741  39.501  0.00  0.00     0.211 HD
ENDBRANCH   5  28
BRANCH   5  30
HETATM   30  C   UNK N   1      29.222  58.401  39.735  0.00  0.00     0.176 C 
HETATM   31  O   UNK N   1      28.848  59.294  40.481  0.00  0.00    -0.648 OA
BRANCH  30  32
HETATM   32  O   UNK N   1      29.440  58.684  38.432  0.00  0.00    -0.774 OA
HETATM   33  H   UNK N   1      29.869  59.508  38.159  0.00  0.00     0.167 HD
ENDBRANCH  30  32
ENDBRANCH   5  30
TORSDOF 12
ENDMDL
MODEL 6
REMARK VINA RESULT:      -5.8     13.964     17.285
REMARK  12 active torsions:
REMARK  status: ('A' for Active; 'I' for Inactive)
REMARK    1  A    between atoms: C_2  and  O_3 
REMARK    2  A    between atoms: C_2  and  C_22 
REMARK    3  A    between atoms: O_3  and  C_4 
REMARK    4  A    between atoms: C_5  and  O_6 
REMARK    5  A    between atoms: C_8  and  O_9 
REMARK    6  A    between atoms: O_9  and  C_10 
REMARK    7  A    between atoms: C_14  and  O_15 
REMARK    8  A    between atoms: C_14  and  C_17 
REMARK    9  A    between atoms: C_17  and  O_19 
REMARK   10  A    between atoms: C_23  and  C_24 
REMARK   11  A    between atoms: C_26  and  O_27 
REMARK   12  A    between atoms: C_29  and  O_30 
ROOT
HETATM    1  C   UNK N   1      32.300  43.680  59.878  0.00  0.00     0.166 C 
HETATM    2  C   UNK N   1      30.848  43.988  60.315  0.00  0.00     0.177 C 
HETATM    3  C   UNK N   1      30.116  44.778  59.204  0.00  0.00     0.166 C 
HETATM    4  C   UNK N   1      30.145  43.999  57.870  0.00  0.00     0.084 C 
HETATM    5  C   UNK N   1      31.586  43.637  57.425  0.00  0.00     0.147 C 
HETATM    6  C   UNK N   1      32.279  42.853  58.570  0.00  0.00     0.084 C 
ENDROOT
BRANCH   1   7
HETATM    7  O   UNK N   1      32.953  42.986  60.883  0.00  0.00    -0.310 OA
BRANCH   7   8
HETATM    8  C   UNK N   1      33.029  43.412  62.176  0.00  0.00     0.283 C 
HETATM    9  O   UNK N   1      32.274  42.963  63.024  0.00  0.00    -0.260 OA
BRANCH   8  10
HETATM   10  C   UNK N   1      34.024  44.428  62.567  0.00  0.00     0.083 C 
HETATM   11  C   UNK N   1      35.318  44.318  62.213  0.00  0.00     0.017 C 
BRANCH  11  12
HETATM   12  C   UNK N   1      36.371  45.312  62.565  0.00  0.00    -0.033 A 
HETATM   13  C   UNK N   1      37.561  44.841  63.142  0.00  0.00     0.050 A 
HETATM   14  C   UNK N   1      38.589  45.721  63.504  0.00  0.00     0.099 A 
HETATM   15  C   UNK N   1      38.430  47.111  63.274  0.00  0.00     0.098 A 
HETATM   16  C   UNK N   1      37.248  47.578  62.692  0.00  0.00     0.040 A 
HETATM   17  C   UNK N   1      36.225  46.695  62.342  0.00  0.00     0.014 A 
BRANCH  14  18
HETATM   18  O   UNK N   1      39.703  45.202  64.065  0.00  0.00    -0.358 OA
HETATM   19  H   UNK N   1      39.722  44.386  64.578  0.00  0.00     0.218 HD
ENDBRANCH  14  18
BRANCH  15  20
HETATM   20  O   UNK N   1      39.383  48.014  63.598  0.00  0.00    -0.358 OA
HETATM   21  H   UNK N   1      39.450  48.893  63.209  0.00  0.00     0.218 HD
ENDBRANCH  15  20
ENDBRANCH  11  12
ENDBRANCH   8  10
ENDBRANCH   7   8
ENDBRANCH   1   7
BRANCH   2  22
HETATM   22  O   UNK N   1      30.148  42.796  60.575  0.00  0.00    -0.390 OA
HETATM   23  H   UNK N   1      29.650  42.563  59.747  0.00  0.00     0.210 HD
ENDBRANCH   2  22
BRANCH   3  24
HETATM   24  O   UNK N   1      30.708  46.018  59.026  0.00  0.00    -0.314 OA
BRANCH  24  25
HETATM   25  C   UNK N   1      30.145  47.047  58.339  0.00  0.00     0.255 C 
HETATM   26  O   UNK N   1      30.648  47.460  57.304  0.00  0.00    -0.266 OA
HETATM   27  C   UNK N   1      28.901  47.683  58.866  0.00  0.00     0.126 C 
ENDBRANCH  24  25
ENDBRANCH   3  24
BRANCH   5  28
HETATM   28  O   UNK N   1      32.307  44.819  57.165  0.00  0.00    -0.379 OA
HETATM   29  H   UNK N   1      32.012  45.170  56.283  0.00  0.00     0.211 HD
ENDBRANCH   5  28
BRANCH   5  30
HETATM   30  C   UNK N   1      31.513  42.812  56.143  0.00  0.00     0.176 C 
HETATM   31  O   UNK N   1      30.471  42.266  55.814  0.00  0.00    -0.648 OA
BRANCH  30  32
HETATM   32  O   UNK N   1      32.609  42.655  55.369  0.00  0.00    -0.774 OA
HETATM   33  H   UNK N   1      33.500  42.775  55.726  0.00  0.00     0.167 HD
ENDBRANCH  30  32
ENDBRANCH   5  30
TORSDOF 12
ENDMDL
MODEL 7
REMARK VINA RESULT:      -5.7     10.991     16.646
REMARK  12 active torsions:
REMARK  status: ('A' for Active; 'I' for Inactive)
REMARK    1  A    between atoms: C_2  and  O_3 
REMARK    2  A    between atoms: C_2  and  C_22 
REMARK    3  A    between atoms: O_3  and  C_4 
REMARK    4  A    between atoms: C_5  and  O_6 
REMARK    5  A    between atoms: C_8  and  O_9 
REMARK    6  A    between atoms: O_9  and  C_10 
REMARK    7  A    between atoms: C_14  and  O_15 
REMARK    8  A    between atoms: C_14  and  C_17 
REMARK    9  A    between atoms: C_17  and  O_19 
REMARK   10  A    between atoms: C_23  and  C_24 
REMARK   11  A    between atoms: C_26  and  O_27 
REMARK   12  A    between atoms: C_29  and  O_30 
ROOT
HETATM    1  C   UNK N   1      28.132  55.156  39.991  0.00  0.00     0.166 C 
HETATM    2  C   UNK N   1      27.637  54.149  38.927  0.00  0.00     0.177 C 
HETATM    3  C   UNK N   1      26.402  53.380  39.457  0.00  0.00     0.166 C 
HETATM    4  C   UNK N   1      25.280  54.362  39.862  0.00  0.00     0.084 C 
HETATM    5  C   UNK N   1      25.757  55.414  40.899  0.00  0.00     0.147 C 
HETATM    6  C   UNK N   1      26.995  56.151  40.326  0.00  0.00     0.084 C 
ENDROOT
BRANCH   1   7
HETATM    7  O   UNK N   1      29.244  55.829  39.517  0.00  0.00    -0.310 OA
BRANCH   7   8
HETATM    8  C   UNK N   1      30.157  56.450  40.318  0.00  0.00     0.283 C 
HETATM    9  O   UNK N   1      30.213  57.669  40.367  0.00  0.00    -0.260 OA
BRANCH   8  10
HETATM   10  C   UNK N   1      31.094  55.655  41.132  0.00  0.00     0.083 C 
HETATM   11  C   UNK N   1      30.896  55.467  42.451  0.00  0.00     0.017 C 
BRANCH  11  12
HETATM   12  C   UNK N   1      31.797  54.667  43.328  0.00  0.00    -0.033 A 
HETATM   13  C   UNK N   1      31.596  53.279  43.396  0.00  0.00     0.050 A 
HETATM   14  C   UNK N   1      32.400  52.469  44.206  0.00  0.00     0.099 A 
HETATM   15  C   UNK N   1      33.444  53.058  44.963  0.00  0.00     0.098 A 
HETATM   16  C   UNK N   1      33.649  54.438  44.889  0.00  0.00     0.040 A 
HETATM   17  C   UNK N   1      32.838  55.241  44.085  0.00  0.00     0.014 A 
BRANCH  14  18
HETATM   18  O   UNK N   1      32.144  51.143  44.233  0.00  0.00    -0.358 OA
HETATM   19  H   UNK N   1      31.782  50.644  43.492  0.00  0.00     0.218 HD
ENDBRANCH  14  18
BRANCH  15  20
HETATM   20  O   UNK N   1      34.258  52.333  45.763  0.00  0.00    -0.358 OA
HETATM   21  H   UNK N   1      34.912  51.702  45.441  0.00  0.00     0.218 HD
ENDBRANCH  15  20
ENDBRANCH  11  12
ENDBRANCH   8  10
ENDBRANCH   7   8
ENDBRANCH   1   7
BRANCH   2  22
HETATM   22  O   UNK N   1      27.292  54.817  37.738  0.00  0.00    -0.390 OA
HETATM   23  H   UNK N   1      27.157  55.773  37.970  0.00  0.00     0.210 HD
ENDBRANCH   2  22
BRANCH   3  24
HETATM   24  O   UNK N   1      26.752  52.605  40.550  0.00  0.00    -0.314 OA
BRANCH  24  25
HETATM   25  C   UNK N   1      26.789  51.246  40.547  0.00  0.00     0.255 C 
HETATM   26  O   UNK N   1      27.698  50.642  39.996  0.00  0.00    -0.266 OA
HETATM   27  C   UNK N   1      25.695  50.485  41.222  0.00  0.00     0.126 C 
ENDBRANCH  24  25
ENDBRANCH   3  24
BRANCH   5  28
HETATM   28  O   UNK N   1      26.113  54.763  42.096  0.00  0.00    -0.379 OA
HETATM   29  H   UNK N   1      27.085  54.563  42.059  0.00  0.00     0.211 HD
ENDBRANCH   5  28
BRANCH   5  30
HETATM   30  C   UNK N   1      24.609  56.378  41.184  0.00  0.00     0.176 C 
HETATM   31  O   UNK N   1      24.088  56.414  42.288  0.00  0.00    -0.648 OA
BRANCH  30  32
HETATM   32  O   UNK N   1      24.139  57.187  40.210  0.00  0.00    -0.774 OA
HETATM   33  H   UNK N   1      24.505  58.071  40.068  0.00  0.00     0.167 HD
ENDBRANCH  30  32
ENDBRANCH   5  30
TORSDOF 12
ENDMDL
MODEL 8
REMARK VINA RESULT:      -5.6     13.883     15.773
REMARK  12 active torsions:
REMARK  status: ('A' for Active; 'I' for Inactive)
REMARK    1  A    between atoms: C_2  and  O_3 
REMARK    2  A    between atoms: C_2  and  C_22 
REMARK    3  A    between atoms: O_3  and  C_4 
REMARK    4  A    between atoms: C_5  and  O_6 
REMARK    5  A    between atoms: C_8  and  O_9 
REMARK    6  A    between atoms: O_9  and  C_10 
REMARK    7  A    between atoms: C_14  and  O_15 
REMARK    8  A    between atoms: C_14  and  C_17 
REMARK    9  A    between atoms: C_17  and  O_19 
REMARK   10  A    between atoms: C_23  and  C_24 
REMARK   11  A    between atoms: C_26  and  O_27 
REMARK   12  A    between atoms: C_29  and  O_30 
ROOT
HETATM    1  C   UNK N   1      30.033  42.302  56.335  0.00  0.00     0.166 C 
HETATM    2  C   UNK N   1      28.694  42.845  55.785  0.00  0.00     0.177 C 
HETATM    3  C   UNK N   1      28.240  42.005  54.568  0.00  0.00     0.166 C 
HETATM    4  C   UNK N   1      28.124  40.512  54.947  0.00  0.00     0.084 C 
HETATM    5  C   UNK N   1      29.439  39.946  55.543  0.00  0.00     0.147 C 
HETATM    6  C   UNK N   1      29.855  40.822  56.753  0.00  0.00     0.084 C 
ENDROOT
BRANCH   1   7
HETATM    7  O   UNK N   1      30.441  43.066  57.415  0.00  0.00    -0.310 OA
BRANCH   7   8
HETATM    8  C   UNK N   1      31.517  43.904  57.391  0.00  0.00     0.283 C 
HETATM    9  O   UNK N   1      32.642  43.465  57.209  0.00  0.00    -0.260 OA
BRANCH   8  10
HETATM   10  C   UNK N   1      31.336  45.354  57.592  0.00  0.00     0.083 C 
HETATM   11  C   UNK N   1      30.191  45.857  58.089  0.00  0.00     0.017 C 
BRANCH  11  12
HETATM   12  C   UNK N   1      29.946  47.308  58.326  0.00  0.00    -0.033 A 
HETATM   13  C   UNK N   1      30.350  48.219  57.337  0.00  0.00     0.050 A 
HETATM   14  C   UNK N   1      30.158  49.596  57.497  0.00  0.00     0.099 A 
HETATM   15  C   UNK N   1      29.534  50.080  58.674  0.00  0.00     0.098 A 
HETATM   16  C   UNK N   1      29.123  49.173  59.655  0.00  0.00     0.040 A 
HETATM   17  C   UNK N   1      29.326  47.801  59.491  0.00  0.00     0.014 A 
BRANCH  14  18
HETATM   18  O   UNK N   1      30.582  50.417  56.512  0.00  0.00    -0.358 OA
HETATM   19  H   UNK N   1      30.743  51.361  56.623  0.00  0.00     0.218 HD
ENDBRANCH  14  18
BRANCH  15  20
HETATM   20  O   UNK N   1      29.316  51.397  58.892  0.00  0.00    -0.358 OA
HETATM   21  H   UNK N   1      29.015  51.765  59.730  0.00  0.00     0.218 HD
ENDBRANCH  15  20
ENDBRANCH  11  12
ENDBRANCH   8  10
ENDBRANCH   7   8
ENDBRANCH   1   7
BRANCH   2  22
HETATM   22  O   UNK N   1      27.698  42.800  56.778  0.00  0.00    -0.390 OA
HETATM   23  H   UNK N   1      28.095  43.180  57.606  0.00  0.00     0.210 HD
ENDBRANCH   2  22
BRANCH   3  24
HETATM   24  O   UNK N   1      29.140  42.146  53.525  0.00  0.00    -0.314 OA
BRANCH  24  25
HETATM   25  C   UNK N   1      28.814  42.594  52.283  0.00  0.00     0.255 C 
HETATM   26  O   UNK N   1      29.442  42.230  51.299  0.00  0.00    -0.266 OA
HETATM   27  C   UNK N   1      27.678  43.552  52.127  0.00  0.00     0.126 C 
ENDBRANCH  24  25
ENDBRANCH   3  24
BRANCH   5  28
HETATM   28  O   UNK N   1      30.452  39.989  54.564  0.00  0.00    -0.379 OA
HETATM   29  H   UNK N   1      30.058  40.361  53.731  0.00  0.00     0.211 HD
ENDBRANCH   5  28
BRANCH   5  30
HETATM   30  C   UNK N   1      29.210  38.494  55.951  0.00  0.00     0.176 C 
HETATM   31  O   UNK N   1      28.270  38.192  56.670  0.00  0.00    -0.648 OA
BRANCH  30  32
HETATM   32  O   UNK N   1      30.060  37.528  55.543  0.00  0.00    -0.774 OA
HETATM   33  H   UNK N   1      30.677  37.674  54.812  0.00  0.00     0.167 HD
ENDBRANCH  30  32
ENDBRANCH   5  30
TORSDOF 12
ENDMDL
MODEL 9
REMARK VINA RESULT:      -5.6      9.248     15.115
REMARK  12 active torsions:
REMARK  status: ('A' for Active; 'I' for Inactive)
REMARK    1  A    between atoms: C_2  and  O_3 
REMARK    2  A    between atoms: C_2  and  C_22 
REMARK    3  A    between atoms: O_3  and  C_4 
REMARK    4  A    between atoms: C_5  and  O_6 
REMARK    5  A    between atoms: C_8  and  O_9 
REMARK    6  A    between atoms: O_9  and  C_10 
REMARK    7  A    between atoms: C_14  and  O_15 
REMARK    8  A    between atoms: C_14  and  C_17 
REMARK    9  A    between atoms: C_17  and  O_19 
REMARK   10  A    between atoms: C_23  and  C_24 
REMARK   11  A    between atoms: C_26  and  O_27 
REMARK   12  A    between atoms: C_29  and  O_30 
ROOT
HETATM    1  C   UNK N   1      29.149  54.969  42.486  0.00  0.00     0.166 C 
HETATM    2  C   UNK N   1      29.916  55.738  41.385  0.00  0.00     0.177 C 
HETATM    3  C   UNK N   1      29.255  55.494  40.007  0.00  0.00     0.166 C 
HETATM    4  C   UNK N   1      27.764  55.898  40.037  0.00  0.00     0.084 C 
HETATM    5  C   UNK N   1      26.974  55.175  41.159  0.00  0.00     0.147 C 
HETATM    6  C   UNK N   1      27.677  55.445  42.515  0.00  0.00     0.084 C 
ENDROOT
BRANCH   1   7
HETATM    7  O   UNK N   1      29.754  55.181  43.713  0.00  0.00    -0.310 OA
BRANCH   7   8
HETATM    8  C   UNK N   1      31.020  54.774  44.017  0.00  0.00     0.283 C 
HETATM    9  O   UNK N   1      31.814  55.545  44.533  0.00  0.00    -0.260 OA
BRANCH   8  10
HETATM   10  C   UNK N   1      31.449  53.394  43.719  0.00  0.00     0.083 C 
HETATM   11  C   UNK N   1      32.670  52.947  44.066  0.00  0.00     0.017 C 
BRANCH  11  12
HETATM   12  C   UNK N   1      33.162  51.565  43.805  0.00  0.00    -0.033 A 
HETATM   13  C   UNK N   1      34.540  51.377  43.607  0.00  0.00     0.050 A 
HETATM   14  C   UNK N   1      35.069  50.107  43.349  0.00  0.00     0.099 A 
HETATM   15  C   UNK N   1      34.200  48.987  43.298  0.00  0.00     0.098 A 
HETATM   16  C   UNK N   1      32.830  49.173  43.504  0.00  0.00     0.040 A 
HETATM   17  C   UNK N   1      32.310  50.444  43.752  0.00  0.00     0.014 A 
BRANCH  14  18
HETATM   18  O   UNK N   1      36.402  50.000  43.156  0.00  0.00    -0.358 OA
HETATM   19  H   UNK N   1      37.024  50.730  43.249  0.00  0.00     0.218 HD
ENDBRANCH  14  18
BRANCH  15  20
HETATM   20  O   UNK N   1      34.646  47.734  43.056  0.00  0.00    -0.358 OA
HETATM   21  H   UNK N   1      34.667  47.030  43.715  0.00  0.00     0.218 HD
ENDBRANCH  15  20
ENDBRANCH  11  12
ENDBRANCH   8  10
ENDBRANCH   7   8
ENDBRANCH   1   7
BRANCH   2  22
HETATM   22  O   UNK N   1      29.920  57.118  41.659  0.00  0.00    -0.390 OA
HETATM   23  H   UNK N   1      30.867  57.384  41.801  0.00  0.00     0.210 HD
ENDBRANCH   2  22
BRANCH   3  24
HETATM   24  O   UNK N   1      29.362  54.158  39.654  0.00  0.00    -0.314 OA
BRANCH  24  25
HETATM   25  C   UNK N   1      30.539  53.491  39.518  0.00  0.00     0.255 C 
HETATM   26  O   UNK N   1      31.436  53.937  38.816  0.00  0.00    -0.266 OA
HETATM   27  C   UNK N   1      30.729  52.193  40.231  0.00  0.00     0.126 C 
ENDBRANCH  24  25
ENDBRANCH   3  24
BRANCH   5  28
HETATM   28  O   UNK N   1      26.964  53.789  40.906  0.00  0.00    -0.379 OA
HETATM   29  H   UNK N   1      26.137  53.411  41.307  0.00  0.00     0.211 HD
ENDBRANCH   5  28
BRANCH   5  30
HETATM   30  C   UNK N   1      25.537  55.688  41.158  0.00  0.00     0.176 C 
HETATM   31  O   UNK N   1      24.857  55.627  40.145  0.00  0.00    -0.648 OA
BRANCH  30  32
HETATM   32  O   UNK N   1      25.008  56.239  42.272  0.00  0.00    -0.774 OA
HETATM   33  H   UNK N   1      25.568  56.643  42.950  0.00  0.00     0.167 HD
ENDBRANCH  30  32
ENDBRANCH   5  30
TORSDOF 12
ENDMDL
