MODEL 1
REMARK VINA RESULT:      -7.3      0.000      0.000
REMARK  11 active torsions:
REMARK  status: ('A' for Active; 'I' for Inactive)
REMARK    1  A    between atoms: C_2  and  O_3 
REMARK    2  A    between atoms: C_2  and  C_20 
REMARK    3  A    between atoms: O_3  and  C_4 
REMARK    4  A    between atoms: C_5  and  O_6 
REMARK    5  A    between atoms: C_8  and  O_9 
REMARK    6  A    between atoms: C_12  and  O_13 
REMARK    7  A    between atoms: C_12  and  C_15 
REMARK    8  A    between atoms: C_15  and  O_17 
REMARK    9  A    between atoms: C_21  and  C_22 
REMARK   10  A    between atoms: C_24  and  O_25 
REMARK   11  A    between atoms: C_27  and  O_28 
ROOT
HETATM    1  C   UNK N   1      41.440  46.104  46.698  0.00  0.00     0.166 C 
HETATM    2  C   UNK N   1      39.894  46.187  46.580  0.00  0.00     0.176 C 
HETATM    3  C   UNK N   1      39.304  44.774  46.440  0.00  0.00     0.152 C 
HETATM    4  C   UNK N   1      39.882  44.083  45.184  0.00  0.00     0.083 C 
HETATM    5  C   UNK N   1      41.437  44.021  45.137  0.00  0.00     0.150 C 
HETATM    6  C   UNK N   1      42.011  45.441  45.422  0.00  0.00     0.084 C 
ENDROOT
BRANCH   1   7
HETATM    7  O   UNK N   1      41.998  47.368  46.809  0.00  0.00    -0.310 OA
BRANCH   7   8
HETATM    8  C   UNK N   1      42.762  47.811  47.847  0.00  0.00     0.283 C 
HETATM    9  O   UNK N   1      43.623  48.659  47.676  0.00  0.00    -0.260 OA
BRANCH   8  10
HETATM   10  C   UNK N   1      42.579  47.236  49.191  0.00  0.00     0.083 C 
HETATM   11  C   UNK N   1      41.923  46.076  49.378  0.00  0.00     0.017 C 
BRANCH  11  12
HETATM   12  C   UNK N   1      41.697  45.476  50.718  0.00  0.00    -0.033 A 
HETATM   13  C   UNK N   1      40.701  44.499  50.859  0.00  0.00     0.050 A 
HETATM   14  C   UNK N   1      40.425  43.931  52.108  0.00  0.00     0.099 A 
HETATM   15  C   UNK N   1      41.174  44.322  53.232  0.00  0.00     0.098 A 
HETATM   16  C   UNK N   1      42.186  45.281  53.095  0.00  0.00     0.040 A 
HETATM   17  C   UNK N   1      42.442  45.862  51.851  0.00  0.00     0.014 A 
BRANCH  14  18
HETATM   18  O   UNK N   1      39.434  43.022  52.212  0.00  0.00    -0.358 OA
HETATM   19  H   UNK N   1      39.547  42.186  52.687  0.00  0.00     0.218 HD
ENDBRANCH  14  18
BRANCH  15  20
HETATM   20  O   UNK N   1      40.917  43.775  54.440  0.00  0.00    -0.358 OA
HETATM   21  H   UNK N   1      40.097  43.964  54.919  0.00  0.00     0.218 HD
ENDBRANCH  15  20
ENDBRANCH  11  12
ENDBRANCH   8  10
ENDBRANCH   7   8
ENDBRANCH   1   7
BRANCH   2  22
HETATM   22  O   UNK N   1      39.552  46.986  45.473  0.00  0.00    -0.390 OA
HETATM   23  H   UNK N   1      39.360  46.373  44.717  0.00  0.00     0.210 HD
ENDBRANCH   2  22
BRANCH   3  24
HETATM   24  O   UNK N   1      39.573  44.044  47.607  0.00  0.00    -0.393 OA
HETATM   25  H   UNK N   1      40.556  44.065  47.741  0.00  0.00     0.210 HD
ENDBRANCH   3  24
BRANCH   5  26
HETATM   26  O   UNK N   1      41.782  43.630  43.827  0.00  0.00    -0.379 OA
HETATM   27  H   UNK N   1      42.561  43.014  43.873  0.00  0.00     0.211 HD
ENDBRANCH   5  26
BRANCH   5  28
HETATM   28  C   UNK N   1      42.041  42.985  46.075  0.00  0.00     0.293 C 
HETATM   29  O   UNK N   1      42.143  43.200  47.275  0.00  0.00    -0.262 OA
BRANCH  28  30
HETATM   30  O   UNK N   1      42.368  41.767  45.569  0.00  0.00    -0.324 OA
HETATM   31  C   UNK N   1      43.160  40.851  46.225  0.00  0.00     0.213 C 
ENDBRANCH  28  30
ENDBRANCH   5  28
TORSDOF 11
ENDMDL
MODEL 2
REMARK VINA RESULT:      -7.2      3.072      6.624
REMARK  11 active torsions:
REMARK  status: ('A' for Active; 'I' for Inactive)
REMARK    1  A    between atoms: C_2  and  O_3 
REMARK    2  A    between atoms: C_2  and  C_20 
REMARK    3  A    between atoms: O_3  and  C_4 
REMARK    4  A    between atoms: C_5  and  O_6 
REMARK    5  A    between atoms: C_8  and  O_9 
REMARK    6  A    between atoms: C_12  and  O_13 
REMARK    7  A    between atoms: C_12  and  C_15 
REMARK    8  A    between atoms: C_15  and  O_17 
REMARK    9  A    between atoms: C_21  and  C_22 
REMARK   10  A    between atoms: C_24  and  O_25 
REMARK   11  A    between atoms: C_27  and  O_28 
ROOT
HETATM    1  C   UNK N   1      41.867  46.108  47.863  0.00  0.00     0.166 C 
HETATM    2  C   UNK N   1      41.954  45.306  49.190  0.00  0.00     0.176 C 
HETATM    3  C   UNK N   1      41.405  43.885  48.979  0.00  0.00     0.152 C 
HETATM    4  C   UNK N   1      39.934  43.952  48.511  0.00  0.00     0.083 C 
HETATM    5  C   UNK N   1      39.699  44.811  47.233  0.00  0.00     0.150 C 
HETATM    6  C   UNK N   1      40.387  46.197  47.421  0.00  0.00     0.084 C 
ENDROOT
BRANCH   1   7
HETATM    7  O   UNK N   1      42.340  47.400  48.032  0.00  0.00    -0.310 OA
BRANCH   7   8
HETATM    8  C   UNK N   1      42.884  48.181  47.056  0.00  0.00     0.283 C 
HETATM    9  O   UNK N   1      43.998  48.664  47.186  0.00  0.00    -0.260 OA
BRANCH   8  10
HETATM   10  C   UNK N   1      42.108  48.485  45.841  0.00  0.00     0.083 C 
HETATM   11  C   UNK N   1      40.957  49.179  45.895  0.00  0.00     0.017 C 
BRANCH  11  12
HETATM   12  C   UNK N   1      40.134  49.485  44.696  0.00  0.00    -0.033 A 
HETATM   13  C   UNK N   1      39.022  48.676  44.419  0.00  0.00     0.050 A 
HETATM   14  C   UNK N   1      38.239  48.901  43.280  0.00  0.00     0.099 A 
HETATM   15  C   UNK N   1      38.551  49.968  42.419  0.00  0.00     0.098 A 
HETATM   16  C   UNK N   1      39.646  50.794  42.703  0.00  0.00     0.040 A 
HETATM   17  C   UNK N   1      40.439  50.552  43.826  0.00  0.00     0.014 A 
BRANCH  14  18
HETATM   18  O   UNK N   1      37.200  48.080  43.026  0.00  0.00    -0.358 OA
HETATM   19  H   UNK N   1      36.688  47.660  43.731  0.00  0.00     0.218 HD
ENDBRANCH  14  18
BRANCH  15  20
HETATM   20  O   UNK N   1      37.797  50.195  41.322  0.00  0.00    -0.358 OA
HETATM   21  H   UNK N   1      38.021  50.889  40.686  0.00  0.00     0.218 HD
ENDBRANCH  15  20
ENDBRANCH  11  12
ENDBRANCH   8  10
ENDBRANCH   7   8
ENDBRANCH   1   7
BRANCH   2  22
HETATM   22  O   UNK N   1      41.229  45.980  50.191  0.00  0.00    -0.390 OA
HETATM   23  H   UNK N   1      40.470  46.438  49.746  0.00  0.00     0.210 HD
ENDBRANCH   2  22
BRANCH   3  24
HETATM   24  O   UNK N   1      42.217  43.211  48.056  0.00  0.00    -0.393 OA
HETATM   25  H   UNK N   1      42.707  42.510  48.560  0.00  0.00     0.210 HD
ENDBRANCH   3  24
BRANCH   5  26
HETATM   26  O   UNK N   1      38.305  44.991  47.123  0.00  0.00    -0.379 OA
HETATM   27  H   UNK N   1      38.088  45.221  46.181  0.00  0.00     0.211 HD
ENDBRANCH   5  26
BRANCH   5  28
HETATM   28  C   UNK N   1      40.157  44.140  45.946  0.00  0.00     0.293 C 
HETATM   29  O   UNK N   1      39.350  43.672  45.154  0.00  0.00    -0.262 OA
BRANCH  28  30
HETATM   30  O   UNK N   1      41.480  44.166  45.638  0.00  0.00    -0.324 OA
HETATM   31  C   UNK N   1      41.971  44.068  44.355  0.00  0.00     0.213 C 
ENDBRANCH  28  30
ENDBRANCH   5  28
TORSDOF 11
ENDMDL
MODEL 3
REMARK VINA RESULT:      -7.1      3.073      7.062
REMARK  11 active torsions:
REMARK  status: ('A' for Active; 'I' for Inactive)
REMARK    1  A    between atoms: C_2  and  O_3 
REMARK    2  A    between atoms: C_2  and  C_20 
REMARK    3  A    between atoms: O_3  and  C_4 
REMARK    4  A    between atoms: C_5  and  O_6 
REMARK    5  A    between atoms: C_8  and  O_9 
REMARK    6  A    between atoms: C_12  and  O_13 
REMARK    7  A    between atoms: C_12  and  C_15 
REMARK    8  A    between atoms: C_15  and  O_17 
REMARK    9  A    between atoms: C_21  and  C_22 
REMARK   10  A    between atoms: C_24  and  O_25 
REMARK   11  A    between atoms: C_27  and  O_28 
ROOT
HETATM    1  C   UNK N   1      41.492  45.638  48.490  0.00  0.00     0.166 C 
HETATM    2  C   UNK N   1      40.309  44.988  47.722  0.00  0.00     0.176 C 
HETATM    3  C   UNK N   1      39.378  44.267  48.711  0.00  0.00     0.152 C 
HETATM    4  C   UNK N   1      40.161  43.175  49.473  0.00  0.00     0.083 C 
HETATM    5  C   UNK N   1      41.432  43.687  50.212  0.00  0.00     0.150 C 
HETATM    6  C   UNK N   1      42.289  44.533  49.222  0.00  0.00     0.084 C 
ENDROOT
BRANCH   1   7
HETATM    7  O   UNK N   1      42.357  46.281  47.618  0.00  0.00    -0.310 OA
BRANCH   7   8
HETATM    8  C   UNK N   1      42.350  47.613  47.330  0.00  0.00     0.283 C 
HETATM    9  O   UNK N   1      42.820  48.427  48.109  0.00  0.00    -0.260 OA
BRANCH   8  10
HETATM   10  C   UNK N   1      41.734  48.090  46.079  0.00  0.00     0.083 C 
HETATM   11  C   UNK N   1      40.525  48.679  46.070  0.00  0.00     0.017 C 
BRANCH  11  12
HETATM   12  C   UNK N   1      39.859  49.152  44.828  0.00  0.00    -0.033 A 
HETATM   13  C   UNK N   1      38.727  48.464  44.367  0.00  0.00     0.050 A 
HETATM   14  C   UNK N   1      38.089  48.848  43.182  0.00  0.00     0.099 A 
HETATM   15  C   UNK N   1      38.568  49.955  42.460  0.00  0.00     0.098 A 
HETATM   16  C   UNK N   1      39.684  50.661  42.927  0.00  0.00     0.040 A 
HETATM   17  C   UNK N   1      40.332  50.261  44.097  0.00  0.00     0.014 A 
BRANCH  14  18
HETATM   18  O   UNK N   1      37.026  48.139  42.749  0.00  0.00    -0.358 OA
HETATM   19  H   UNK N   1      36.514  48.399  41.971  0.00  0.00     0.218 HD
ENDBRANCH  14  18
BRANCH  15  20
HETATM   20  O   UNK N   1      37.954  50.335  41.319  0.00  0.00    -0.358 OA
HETATM   21  H   UNK N   1      38.195  51.154  40.860  0.00  0.00     0.218 HD
ENDBRANCH  15  20
ENDBRANCH  11  12
ENDBRANCH   8  10
ENDBRANCH   7   8
ENDBRANCH   1   7
BRANCH   2  22
HETATM   22  O   UNK N   1      40.813  44.091  46.761  0.00  0.00    -0.390 OA
HETATM   23  H   UNK N   1      41.733  43.847  47.041  0.00  0.00     0.210 HD
ENDBRANCH   2  22
BRANCH   3  24
HETATM   24  O   UNK N   1      38.813  45.210  49.582  0.00  0.00    -0.393 OA
HETATM   25  H   UNK N   1      39.540  45.523  50.180  0.00  0.00     0.210 HD
ENDBRANCH   3  24
BRANCH   5  26
HETATM   26  O   UNK N   1      42.158  42.542  50.599  0.00  0.00    -0.379 OA
HETATM   27  H   UNK N   1      43.062  42.825  50.902  0.00  0.00     0.211 HD
ENDBRANCH   5  26
BRANCH   5  28
HETATM   28  C   UNK N   1      41.134  44.466  51.485  0.00  0.00     0.293 C 
HETATM   29  O   UNK N   1      41.791  45.451  51.794  0.00  0.00    -0.262 OA
BRANCH  28  30
HETATM   30  O   UNK N   1      40.049  44.110  52.222  0.00  0.00    -0.324 OA
HETATM   31  C   UNK N   1      40.122  43.418  53.411  0.00  0.00     0.213 C 
ENDBRANCH  28  30
ENDBRANCH   5  28
TORSDOF 11
ENDMDL
MODEL 4
REMARK VINA RESULT:      -6.6     13.883     16.453
REMARK  11 active torsions:
REMARK  status: ('A' for Active; 'I' for Inactive)
REMARK    1  A    between atoms: C_2  and  O_3 
REMARK    2  A    between atoms: C_2  and  C_20 
REMARK    3  A    between atoms: O_3  and  C_4 
REMARK    4  A    between atoms: C_5  and  O_6 
REMARK    5  A    between atoms: C_8  and  O_9 
REMARK    6  A    between atoms: C_12  and  O_13 
REMARK    7  A    between atoms: C_12  and  C_15 
REMARK    8  A    between atoms: C_15  and  O_17 
REMARK    9  A    between atoms: C_21  and  C_22 
REMARK   10  A    between atoms: C_24  and  O_25 
REMARK   11  A    between atoms: C_27  and  O_28 
ROOT
HETATM    1  C   UNK N   1      27.959  54.823  40.194  0.00  0.00     0.166 C 
HETATM    2  C   UNK N   1      26.407  54.887  40.179  0.00  0.00     0.176 C 
HETATM    3  C   UNK N   1      25.825  53.467  40.270  0.00  0.00     0.152 C 
HETATM    4  C   UNK N   1      26.320  52.617  39.078  0.00  0.00     0.083 C 
HETATM    5  C   UNK N   1      27.868  52.551  38.928  0.00  0.00     0.150 C 
HETATM    6  C   UNK N   1      28.445  53.999  38.979  0.00  0.00     0.084 C 
ENDROOT
BRANCH   1   7
HETATM    7  O   UNK N   1      28.509  56.092  40.096  0.00  0.00    -0.310 OA
BRANCH   7   8
HETATM    8  C   UNK N   1      29.452  56.616  40.928  0.00  0.00     0.283 C 
HETATM    9  O   UNK N   1      29.512  57.819  41.133  0.00  0.00    -0.260 OA
BRANCH   8  10
HETATM   10  C   UNK N   1      30.444  55.731  41.564  0.00  0.00     0.083 C 
HETATM   11  C   UNK N   1      30.543  55.630  42.902  0.00  0.00     0.017 C 
BRANCH  11  12
HETATM   12  C   UNK N   1      31.544  54.768  43.581  0.00  0.00    -0.033 A 
HETATM   13  C   UNK N   1      31.450  53.377  43.426  0.00  0.00     0.050 A 
HETATM   14  C   UNK N   1      32.347  52.522  44.077  0.00  0.00     0.099 A 
HETATM   15  C   UNK N   1      33.373  53.062  44.872  0.00  0.00     0.098 A 
HETATM   16  C   UNK N   1      33.487  54.451  45.012  0.00  0.00     0.040 A 
HETATM   17  C   UNK N   1      32.577  55.300  44.381  0.00  0.00     0.014 A 
BRANCH  14  18
HETATM   18  O   UNK N   1      32.203  51.188  43.934  0.00  0.00    -0.358 OA
HETATM   19  H   UNK N   1      32.924  50.620  43.626  0.00  0.00     0.218 HD
ENDBRANCH  14  18
BRANCH  15  20
HETATM   20  O   UNK N   1      34.246  52.243  45.498  0.00  0.00    -0.358 OA
HETATM   21  H   UNK N   1      35.111  52.557  45.799  0.00  0.00     0.218 HD
ENDBRANCH  15  20
ENDBRANCH  11  12
ENDBRANCH   8  10
ENDBRANCH   7   8
ENDBRANCH   1   7
BRANCH   2  22
HETATM   22  O   UNK N   1      25.978  55.531  39.003  0.00  0.00    -0.390 OA
HETATM   23  H   UNK N   1      25.305  56.210  39.269  0.00  0.00     0.210 HD
ENDBRANCH   2  22
BRANCH   3  24
HETATM   24  O   UNK N   1      26.185  52.900  41.502  0.00  0.00    -0.393 OA
HETATM   25  H   UNK N   1      25.412  52.359  41.807  0.00  0.00     0.210 HD
ENDBRANCH   3  24
BRANCH   5  26
HETATM   26  O   UNK N   1      28.124  51.991  37.659  0.00  0.00    -0.379 OA
HETATM   27  H   UNK N   1      27.352  51.420  37.402  0.00  0.00     0.211 HD
ENDBRANCH   5  26
BRANCH   5  28
HETATM   28  C   UNK N   1      28.550  51.651  39.948  0.00  0.00     0.293 C 
HETATM   29  O   UNK N   1      28.030  50.609  40.322  0.00  0.00    -0.262 OA
BRANCH  28  30
HETATM   30  O   UNK N   1      29.805  51.975  40.359  0.00  0.00    -0.324 OA
HETATM   31  C   UNK N   1      30.775  51.045  40.665  0.00  0.00     0.213 C 
ENDBRANCH  28  30
ENDBRANCH   5  28
TORSDOF 11
ENDMDL
MODEL 5
REMARK VINA RESULT:      -6.6      5.534      8.730
REMARK  11 active torsions:
REMARK  status: ('A' for Active; 'I' for Inactive)
REMARK    1  A    between atoms: C_2  and  O_3 
REMARK    2  A    between atoms: C_2  and  C_20 
REMARK    3  A    between atoms: O_3  and  C_4 
REMARK    4  A    between atoms: C_5  and  O_6 
REMARK    5  A    between atoms: C_8  and  O_9 
REMARK    6  A    between atoms: C_12  and  O_13 
REMARK    7  A    between atoms: C_12  and  C_15 
REMARK    8  A    between atoms: C_15  and  O_17 
REMARK    9  A    between atoms: C_21  and  C_22 
REMARK   10  A    between atoms: C_24  and  O_25 
REMARK   11  A    between atoms: C_27  and  O_28 
ROOT
HETATM    1  C   UNK N   1      39.554  47.751  45.023  0.00  0.00     0.166 C 
HETATM    2  C   UNK N   1      40.107  48.894  45.918  0.00  0.00     0.176 C 
HETATM    3  C   UNK N   1      41.385  48.425  46.633  0.00  0.00     0.152 C 
HETATM    4  C   UNK N   1      41.079  47.188  47.506  0.00  0.00     0.083 C 
HETATM    5  C   UNK N   1      40.430  45.999  46.738  0.00  0.00     0.150 C 
HETATM    6  C   UNK N   1      39.219  46.529  45.911  0.00  0.00     0.084 C 
ENDROOT
BRANCH   1   7
HETATM    7  O   UNK N   1      38.390  48.142  44.380  0.00  0.00    -0.310 OA
BRANCH   7   8
HETATM    8  C   UNK N   1      38.290  49.138  43.456  0.00  0.00     0.283 C 
HETATM    9  O   UNK N   1      39.158  49.304  42.614  0.00  0.00    -0.260 OA
BRANCH   8  10
HETATM   10  C   UNK N   1      37.139  50.058  43.489  0.00  0.00     0.083 C 
HETATM   11  C   UNK N   1      35.874  49.603  43.518  0.00  0.00     0.017 C 
BRANCH  11  12
HETATM   12  C   UNK N   1      34.687  50.497  43.528  0.00  0.00    -0.033 A 
HETATM   13  C   UNK N   1      34.727  51.659  44.313  0.00  0.00     0.050 A 
HETATM   14  C   UNK N   1      33.620  52.513  44.385  0.00  0.00     0.099 A 
HETATM   15  C   UNK N   1      32.464  52.220  43.640  0.00  0.00     0.098 A 
HETATM   16  C   UNK N   1      32.427  51.074  42.835  0.00  0.00     0.040 A 
HETATM   17  C   UNK N   1      33.523  50.213  42.784  0.00  0.00     0.014 A 
BRANCH  14  18
HETATM   18  O   UNK N   1      33.680  53.601  45.181  0.00  0.00    -0.358 OA
HETATM   19  H   UNK N   1      32.900  54.134  45.387  0.00  0.00     0.218 HD
ENDBRANCH  14  18
BRANCH  15  20
HETATM   20  O   UNK N   1      31.394  53.042  43.700  0.00  0.00    -0.358 OA
HETATM   21  H   UNK N   1      31.240  53.620  44.461  0.00  0.00     0.218 HD
ENDBRANCH  15  20
ENDBRANCH  11  12
ENDBRANCH   8  10
ENDBRANCH   7   8
ENDBRANCH   1   7
BRANCH   2  22
HETATM   22  O   UNK N   1      39.123  49.276  46.849  0.00  0.00    -0.390 OA
HETATM   23  H   UNK N   1      38.783  48.446  47.274  0.00  0.00     0.210 HD
ENDBRANCH   2  22
BRANCH   3  24
HETATM   24  O   UNK N   1      42.376  48.158  45.676  0.00  0.00    -0.393 OA
HETATM   25  H   UNK N   1      42.405  48.939  45.065  0.00  0.00     0.210 HD
ENDBRANCH   3  24
BRANCH   5  26
HETATM   26  O   UNK N   1      39.968  45.095  47.717  0.00  0.00    -0.379 OA
HETATM   27  H   UNK N   1      39.373  44.429  47.280  0.00  0.00     0.211 HD
ENDBRANCH   5  26
BRANCH   5  28
HETATM   28  C   UNK N   1      41.403  45.229  45.857  0.00  0.00     0.293 C 
HETATM   29  O   UNK N   1      41.550  45.513  44.677  0.00  0.00    -0.262 OA
BRANCH  28  30
HETATM   30  O   UNK N   1      42.189  44.283  46.436  0.00  0.00    -0.324 OA
HETATM   31  C   UNK N   1      42.295  42.988  45.976  0.00  0.00     0.213 C 
ENDBRANCH  28  30
ENDBRANCH   5  28
TORSDOF 11
ENDMDL
MODEL 6
REMARK VINA RESULT:      -6.5      3.311      7.666
REMARK  11 active torsions:
REMARK  status: ('A' for Active; 'I' for Inactive)
REMARK    1  A    between atoms: C_2  and  O_3 
REMARK    2  A    between atoms: C_2  and  C_20 
REMARK    3  A    between atoms: O_3  and  C_4 
REMARK    4  A    between atoms: C_5  and  O_6 
REMARK    5  A    between atoms: C_8  and  O_9 
REMARK    6  A    between atoms: C_12  and  O_13 
REMARK    7  A    between atoms: C_12  and  C_15 
REMARK    8  A    between atoms: C_15  and  O_17 
REMARK    9  A    between atoms: C_21  and  C_22 
REMARK   10  A    between atoms: C_24  and  O_25 
REMARK   11  A    between atoms: C_27  and  O_28 
ROOT
HETATM    1  C   UNK N   1      40.171  45.212  48.685  0.00  0.00     0.166 C 
HETATM    2  C   UNK N   1      41.268  44.500  47.847  0.00  0.00     0.176 C 
HETATM    3  C   UNK N   1      41.940  43.404  48.691  0.00  0.00     0.152 C 
HETATM    4  C   UNK N   1      42.577  44.027  49.953  0.00  0.00     0.083 C 
HETATM    5  C   UNK N   1      41.594  44.853  50.834  0.00  0.00     0.150 C 
HETATM    6  C   UNK N   1      40.825  45.861  49.928  0.00  0.00     0.084 C 
ENDROOT
BRANCH   1   7
HETATM    7  O   UNK N   1      39.561  46.218  47.951  0.00  0.00    -0.310 OA
BRANCH   7   8
HETATM    8  C   UNK N   1      38.722  46.032  46.893  0.00  0.00     0.283 C 
HETATM    9  O   UNK N   1      37.994  45.054  46.832  0.00  0.00    -0.260 OA
BRANCH   8  10
HETATM   10  C   UNK N   1      38.717  46.999  45.781  0.00  0.00     0.083 C 
HETATM   11  C   UNK N   1      39.450  48.127  45.825  0.00  0.00     0.017 C 
BRANCH  11  12
HETATM   12  C   UNK N   1      39.453  49.138  44.736  0.00  0.00    -0.033 A 
HETATM   13  C   UNK N   1      38.602  48.947  43.638  0.00  0.00     0.050 A 
HETATM   14  C   UNK N   1      38.597  49.852  42.570  0.00  0.00     0.099 A 
HETATM   15  C   UNK N   1      39.432  50.982  42.610  0.00  0.00     0.098 A 
HETATM   16  C   UNK N   1      40.268  51.191  43.714  0.00  0.00     0.040 A 
HETATM   17  C   UNK N   1      40.288  50.274  44.767  0.00  0.00     0.014 A 
BRANCH  14  18
HETATM   18  O   UNK N   1      37.792  49.616  41.513  0.00  0.00    -0.358 OA
HETATM   19  H   UNK N   1      37.186  50.285  41.166  0.00  0.00     0.218 HD
ENDBRANCH  14  18
BRANCH  15  20
HETATM   20  O   UNK N   1      39.429  51.862  41.586  0.00  0.00    -0.358 OA
HETATM   21  H   UNK N   1      38.826  52.620  41.569  0.00  0.00     0.218 HD
ENDBRANCH  15  20
ENDBRANCH  11  12
ENDBRANCH   8  10
ENDBRANCH   7   8
ENDBRANCH   1   7
BRANCH   2  22
HETATM   22  O   UNK N   1      42.213  45.448  47.411  0.00  0.00    -0.390 OA
HETATM   23  H   UNK N   1      42.230  45.410  46.420  0.00  0.00     0.210 HD
ENDBRANCH   2  22
BRANCH   3  24
HETATM   24  O   UNK N   1      40.991  42.424  49.014  0.00  0.00    -0.393 OA
HETATM   25  H   UNK N   1      40.903  41.834  48.221  0.00  0.00     0.210 HD
ENDBRANCH   3  24
BRANCH   5  26
HETATM   26  O   UNK N   1      42.387  45.565  51.758  0.00  0.00    -0.379 OA
HETATM   27  H   UNK N   1      42.940  46.225  51.261  0.00  0.00     0.211 HD
ENDBRANCH   5  26
BRANCH   5  28
HETATM   28  C   UNK N   1      40.632  44.001  51.650  0.00  0.00     0.293 C 
HETATM   29  O   UNK N   1      39.670  43.455  51.128  0.00  0.00    -0.262 OA
BRANCH  28  30
HETATM   30  O   UNK N   1      40.924  43.768  52.957  0.00  0.00    -0.324 OA
HETATM   31  C   UNK N   1      39.992  43.375  53.892  0.00  0.00     0.213 C 
ENDBRANCH  28  30
ENDBRANCH   5  28
TORSDOF 11
ENDMDL
MODEL 7
REMARK VINA RESULT:      -6.3     13.349     16.580
REMARK  11 active torsions:
REMARK  status: ('A' for Active; 'I' for Inactive)
REMARK    1  A    between atoms: C_2  and  O_3 
REMARK    2  A    between atoms: C_2  and  C_20 
REMARK    3  A    between atoms: O_3  and  C_4 
REMARK    4  A    between atoms: C_5  and  O_6 
REMARK    5  A    between atoms: C_8  and  O_9 
REMARK    6  A    between atoms: C_12  and  O_13 
REMARK    7  A    between atoms: C_12  and  C_15 
REMARK    8  A    between atoms: C_15  and  O_17 
REMARK    9  A    between atoms: C_21  and  C_22 
REMARK   10  A    between atoms: C_24  and  O_25 
REMARK   11  A    between atoms: C_27  and  O_28 
ROOT
HETATM    1  C   UNK N   1      49.783  56.401  43.219  0.00  0.00     0.166 C 
HETATM    2  C   UNK N   1      49.465  54.974  43.743  0.00  0.00     0.176 C 
HETATM    3  C   UNK N   1      48.507  55.060  44.943  0.00  0.00     0.152 C 
HETATM    4  C   UNK N   1      49.151  55.894  46.073  0.00  0.00     0.083 C 
HETATM    5  C   UNK N   1      49.603  57.322  45.648  0.00  0.00     0.150 C 
HETATM    6  C   UNK N   1      50.457  57.217  44.348  0.00  0.00     0.084 C 
ENDROOT
BRANCH   1   7
HETATM    7  O   UNK N   1      50.660  56.352  42.147  0.00  0.00    -0.310 OA
BRANCH   7   8
HETATM    8  C   UNK N   1      50.389  55.817  40.923  0.00  0.00     0.283 C 
HETATM    9  O   UNK N   1      51.120  54.972  40.431  0.00  0.00    -0.260 OA
BRANCH   8  10
HETATM   10  C   UNK N   1      49.221  56.287  40.158  0.00  0.00     0.083 C 
HETATM   11  C   UNK N   1      48.486  55.447  39.408  0.00  0.00     0.017 C 
BRANCH  11  12
HETATM   12  C   UNK N   1      47.316  55.886  38.604  0.00  0.00    -0.033 A 
HETATM   13  C   UNK N   1      46.514  56.927  39.095  0.00  0.00     0.050 A 
HETATM   14  C   UNK N   1      45.379  57.350  38.392  0.00  0.00     0.099 A 
HETATM   15  C   UNK N   1      45.054  56.746  37.165  0.00  0.00     0.098 A 
HETATM   16  C   UNK N   1      45.864  55.722  36.657  0.00  0.00     0.040 A 
HETATM   17  C   UNK N   1      46.981  55.287  37.372  0.00  0.00     0.014 A 
BRANCH  14  18
HETATM   18  O   UNK N   1      44.611  58.328  38.914  0.00  0.00    -0.358 OA
HETATM   19  H   UNK N   1      44.626  59.234  38.575  0.00  0.00     0.218 HD
ENDBRANCH  14  18
BRANCH  15  20
HETATM   20  O   UNK N   1      43.964  57.152  36.479  0.00  0.00    -0.358 OA
HETATM   21  H   UNK N   1      43.089  56.771  36.643  0.00  0.00     0.218 HD
ENDBRANCH  15  20
ENDBRANCH  11  12
ENDBRANCH   8  10
ENDBRANCH   7   8
ENDBRANCH   1   7
BRANCH   2  22
HETATM   22  O   UNK N   1      50.664  54.330  44.104  0.00  0.00    -0.390 OA
HETATM   23  H   UNK N   1      51.038  53.924  43.279  0.00  0.00     0.210 HD
ENDBRANCH   2  22
BRANCH   3  24
HETATM   24  O   UNK N   1      47.287  55.607  44.520  0.00  0.00    -0.393 OA
HETATM   25  H   UNK N   1      47.051  56.322  45.167  0.00  0.00     0.210 HD
ENDBRANCH   3  24
BRANCH   5  26
HETATM   26  O   UNK N   1      50.406  57.817  46.696  0.00  0.00    -0.379 OA
HETATM   27  H   UNK N   1      50.415  58.809  46.649  0.00  0.00     0.211 HD
ENDBRANCH   5  26
BRANCH   5  28
HETATM   28  C   UNK N   1      48.456  58.307  45.473  0.00  0.00     0.293 C 
HETATM   29  O   UNK N   1      48.532  59.234  44.679  0.00  0.00    -0.262 OA
BRANCH  28  30
HETATM   30  O   UNK N   1      47.296  58.072  46.142  0.00  0.00    -0.324 OA
HETATM   31  C   UNK N   1      46.492  59.066  46.654  0.00  0.00     0.213 C 
ENDBRANCH  28  30
ENDBRANCH   5  28
TORSDOF 11
ENDMDL
MODEL 8
REMARK VINA RESULT:      -6.2     13.623     16.750
REMARK  11 active torsions:
REMARK  status: ('A' for Active; 'I' for Inactive)
REMARK    1  A    between atoms: C_2  and  O_3 
REMARK    2  A    between atoms: C_2  and  C_20 
REMARK    3  A    between atoms: O_3  and  C_4 
REMARK    4  A    between atoms: C_5  and  O_6 
REMARK    5  A    between atoms: C_8  and  O_9 
REMARK    6  A    between atoms: C_12  and  O_13 
REMARK    7  A    between atoms: C_12  and  C_15 
REMARK    8  A    between atoms: C_15  and  O_17 
REMARK    9  A    between atoms: C_21  and  C_22 
REMARK   10  A    between atoms: C_24  and  O_25 
REMARK   11  A    between atoms: C_27  and  O_28 
ROOT
HETATM    1  C   UNK N   1      50.591  55.717  43.531  0.00  0.00     0.166 C 
HETATM    2  C   UNK N   1      49.182  55.094  43.735  0.00  0.00     0.176 C 
HETATM    3  C   UNK N   1      48.379  55.938  44.738  0.00  0.00     0.152 C 
HETATM    4  C   UNK N   1      49.119  55.995  46.093  0.00  0.00     0.083 C 
HETATM    5  C   UNK N   1      50.584  56.516  46.009  0.00  0.00     0.150 C 
HETATM    6  C   UNK N   1      51.336  55.738  44.887  0.00  0.00     0.084 C 
ENDROOT
BRANCH   1   7
HETATM    7  O   UNK N   1      51.343  54.964  42.643  0.00  0.00    -0.310 OA
BRANCH   7   8
HETATM    8  C   UNK N   1      51.497  55.223  41.314  0.00  0.00     0.283 C 
HETATM    9  O   UNK N   1      52.540  54.954  40.738  0.00  0.00    -0.260 OA
BRANCH   8  10
HETATM   10  C   UNK N   1      50.410  55.873  40.562  0.00  0.00     0.083 C 
HETATM   11  C   UNK N   1      49.435  55.158  39.972  0.00  0.00     0.017 C 
BRANCH  11  12
HETATM   12  C   UNK N   1      48.335  55.774  39.185  0.00  0.00    -0.033 A 
HETATM   13  C   UNK N   1      47.587  56.806  39.769  0.00  0.00     0.050 A 
HETATM   14  C   UNK N   1      46.517  57.392  39.082  0.00  0.00     0.099 A 
HETATM   15  C   UNK N   1      46.206  56.962  37.780  0.00  0.00     0.098 A 
HETATM   16  C   UNK N   1      46.964  55.948  37.182  0.00  0.00     0.040 A 
HETATM   17  C   UNK N   1      48.015  55.350  37.879  0.00  0.00     0.014 A 
BRANCH  14  18
HETATM   18  O   UNK N   1      45.796  58.356  39.690  0.00  0.00    -0.358 OA
HETATM   19  H   UNK N   1      45.950  58.615  40.609  0.00  0.00     0.218 HD
ENDBRANCH  14  18
BRANCH  15  20
HETATM   20  O   UNK N   1      45.179  57.527  37.109  0.00  0.00    -0.358 OA
HETATM   21  H   UNK N   1      45.239  58.423  36.748  0.00  0.00     0.218 HD
ENDBRANCH  15  20
ENDBRANCH  11  12
ENDBRANCH   8  10
ENDBRANCH   7   8
ENDBRANCH   1   7
BRANCH   2  22
HETATM   22  O   UNK N   1      49.319  53.769  44.190  0.00  0.00    -0.390 OA
HETATM   23  H   UNK N   1      48.785  53.688  45.022  0.00  0.00     0.210 HD
ENDBRANCH   2  22
BRANCH   3  24
HETATM   24  O   UNK N   1      48.172  57.218  44.202  0.00  0.00    -0.393 OA
HETATM   25  H   UNK N   1      47.219  57.266  43.930  0.00  0.00     0.210 HD
ENDBRANCH   3  24
BRANCH   5  26
HETATM   26  O   UNK N   1      51.182  56.234  47.254  0.00  0.00    -0.379 OA
HETATM   27  H   UNK N   1      50.764  55.414  47.630  0.00  0.00     0.211 HD
ENDBRANCH   5  26
BRANCH   5  28
HETATM   28  C   UNK N   1      50.693  58.020  45.802  0.00  0.00     0.293 C 
HETATM   29  O   UNK N   1      49.827  58.780  46.213  0.00  0.00    -0.262 OA
BRANCH  28  30
HETATM   30  O   UNK N   1      51.830  58.515  45.245  0.00  0.00    -0.324 OA
HETATM   31  C   UNK N   1      51.844  59.384  44.176  0.00  0.00     0.213 C 
ENDBRANCH  28  30
ENDBRANCH   5  28
TORSDOF 11
ENDMDL
MODEL 9
REMARK VINA RESULT:      -6.2      3.186      6.623
REMARK  11 active torsions:
REMARK  status: ('A' for Active; 'I' for Inactive)
REMARK    1  A    between atoms: C_2  and  O_3 
REMARK    2  A    between atoms: C_2  and  C_20 
REMARK    3  A    between atoms: O_3  and  C_4 
REMARK    4  A    between atoms: C_5  and  O_6 
REMARK    5  A    between atoms: C_8  and  O_9 
REMARK    6  A    between atoms: C_12  and  O_13 
REMARK    7  A    between atoms: C_12  and  C_15 
REMARK    8  A    between atoms: C_15  and  O_17 
REMARK    9  A    between atoms: C_21  and  C_22 
REMARK   10  A    between atoms: C_24  and  O_25 
REMARK   11  A    between atoms: C_27  and  O_28 
ROOT
HETATM    1  C   UNK N   1      41.325  46.062  47.916  0.00  0.00     0.166 C 
HETATM    2  C   UNK N   1      39.828  45.935  48.311  0.00  0.00     0.176 C 
HETATM    3  C   UNK N   1      39.370  44.475  48.160  0.00  0.00     0.152 C 
HETATM    4  C   UNK N   1      39.560  44.010  46.699  0.00  0.00     0.083 C 
HETATM    5  C   UNK N   1      41.008  44.175  46.150  0.00  0.00     0.150 C 
HETATM    6  C   UNK N   1      41.499  45.626  46.442  0.00  0.00     0.084 C 
ENDROOT
BRANCH   1   7
HETATM    7  O   UNK N   1      41.758  47.374  48.026  0.00  0.00    -0.310 OA
BRANCH   7   8
HETATM    8  C   UNK N   1      42.429  48.073  47.068  0.00  0.00     0.283 C 
HETATM    9  O   UNK N   1      43.580  48.438  47.246  0.00  0.00    -0.260 OA
BRANCH   8  10
HETATM   10  C   UNK N   1      41.749  48.433  45.811  0.00  0.00     0.083 C 
HETATM   11  C   UNK N   1      40.536  49.016  45.808  0.00  0.00     0.017 C 
BRANCH  11  12
HETATM   12  C   UNK N   1      39.808  49.372  44.563  0.00  0.00    -0.033 A 
HETATM   13  C   UNK N   1      40.181  50.536  43.875  0.00  0.00     0.050 A 
HETATM   14  C   UNK N   1      39.500  50.934  42.718  0.00  0.00     0.099 A 
HETATM   15  C   UNK N   1      38.449  50.143  42.221  0.00  0.00     0.098 A 
HETATM   16  C   UNK N   1      38.087  48.967  42.890  0.00  0.00     0.040 A 
HETATM   17  C   UNK N   1      38.753  48.586  44.056  0.00  0.00     0.014 A 
BRANCH  14  18
HETATM   18  O   UNK N   1      39.862  52.079  42.104  0.00  0.00    -0.358 OA
HETATM   19  H   UNK N   1      39.217  52.673  41.695  0.00  0.00     0.218 HD
ENDBRANCH  14  18
BRANCH  15  20
HETATM   20  O   UNK N   1      37.791  50.518  41.103  0.00  0.00    -0.358 OA
HETATM   21  H   UNK N   1      37.971  51.363  40.667  0.00  0.00     0.218 HD
ENDBRANCH  15  20
ENDBRANCH  11  12
ENDBRANCH   8  10
ENDBRANCH   7   8
ENDBRANCH   1   7
BRANCH   2  22
HETATM   22  O   UNK N   1      39.057  46.789  47.499  0.00  0.00    -0.390 OA
HETATM   23  H   UNK N   1      38.195  46.939  47.966  0.00  0.00     0.210 HD
ENDBRANCH   2  22
BRANCH   3  24
HETATM   24  O   UNK N   1      40.085  43.673  49.061  0.00  0.00    -0.393 OA
HETATM   25  H   UNK N   1      39.419  43.245  49.659  0.00  0.00     0.210 HD
ENDBRANCH   3  24
BRANCH   5  26
HETATM   26  O   UNK N   1      40.933  43.978  44.756  0.00  0.00    -0.379 OA
HETATM   27  H   UNK N   1      41.561  43.251  44.503  0.00  0.00     0.211 HD
ENDBRANCH   5  26
BRANCH   5  28
HETATM   28  C   UNK N   1      41.992  43.144  46.685  0.00  0.00     0.293 C 
HETATM   29  O   UNK N   1      42.373  43.174  47.847  0.00  0.00    -0.262 OA
BRANCH  28  30
HETATM   30  O   UNK N   1      42.358  42.118  45.872  0.00  0.00    -0.324 OA
HETATM   31  C   UNK N   1      43.616  41.984  45.326  0.00  0.00     0.213 C 
ENDBRANCH  28  30
ENDBRANCH   5  28
TORSDOF 11
ENDMDL
