MODEL 1
REMARK VINA RESULT:      -8.2      0.000      0.000
REMARK  3 active torsions:
REMARK  status: ('A' for Active; 'I' for Inactive)
REMARK    1  A    between atoms: C_10  and  C_11 
REMARK    2  A    between atoms: C_11  and  C_12 
REMARK    3  A    between atoms: C_12  and  O_14 
ROOT
HETATM    1  O   UNK N   1      41.983  47.808  45.775  0.00  0.00    -0.293 OA
HETATM    2  C   UNK N   1      41.571  46.934  46.524  0.00  0.00     0.153 C 
HETATM    3  C   UNK N   1      40.428  46.098  46.087  0.00  0.00     0.047 C 
HETATM    4  C   UNK N   1      40.004  45.050  46.813  0.00  0.00    -0.013 C 
HETATM    5  C   UNK N   1      40.664  44.659  48.125  0.00  0.00    -0.022 C 
HETATM    6  C   UNK N   1      41.291  45.934  48.797  0.00  0.00     0.009 C 
HETATM    7  C   UNK N   1      42.287  46.645  47.835  0.00  0.00     0.060 C 
HETATM    8  C   UNK N   1      42.862  47.943  48.432  0.00  0.00     0.018 C 
HETATM    9  C   UNK N   1      41.880  45.598  50.190  0.00  0.00     0.016 C 
HETATM   10  C   UNK N   1      40.793  44.987  51.110  0.00  0.00     0.025 C 
HETATM   11  C   UNK N   1      40.151  43.745  50.468  0.00  0.00     0.010 C 
HETATM   12  C   UNK N   1      39.578  44.098  49.083  0.00  0.00     0.014 C 
HETATM   13  C   UNK N   1      41.702  43.553  47.794  0.00  0.00     0.020 C 
ENDROOT
BRANCH  10  14
HETATM   14  C   UNK N   1      41.350  44.668  52.494  0.00  0.00     0.010 C 
HETATM   15  C   UNK N   1      42.111  45.570  53.147  0.00  0.00     0.026 C 
BRANCH  14  16
HETATM   16  C   UNK N   1      41.062  43.347  53.126  0.00  0.00     0.171 C 
HETATM   17  O   UNK N   1      41.922  42.482  53.175  0.00  0.00    -0.646 OA
BRANCH  16  18
HETATM   18  O   UNK N   1      39.828  43.087  53.614  0.00  0.00    -0.773 OA
HETATM   19  H   UNK N   1      39.445  42.200  53.557  0.00  0.00     0.167 HD
ENDBRANCH  16  18
ENDBRANCH  14  16
ENDBRANCH  10  14
TORSDOF 3
ENDMDL
MODEL 2
REMARK VINA RESULT:      -7.3      1.982      3.122
REMARK  3 active torsions:
REMARK  status: ('A' for Active; 'I' for Inactive)
REMARK    1  A    between atoms: C_10  and  C_11 
REMARK    2  A    between atoms: C_11  and  C_12 
REMARK    3  A    between atoms: C_12  and  O_14 
ROOT
HETATM    1  O   UNK N   1      42.669  42.802  44.257  0.00  0.00    -0.293 OA
HETATM    2  C   UNK N   1      42.197  43.486  45.153  0.00  0.00     0.153 C 
HETATM    3  C   UNK N   1      41.936  44.921  44.896  0.00  0.00     0.047 C 
HETATM    4  C   UNK N   1      41.314  45.696  45.800  0.00  0.00    -0.013 C 
HETATM    5  C   UNK N   1      40.845  45.154  47.140  0.00  0.00    -0.022 C 
HETATM    6  C   UNK N   1      41.761  43.952  47.569  0.00  0.00     0.009 C 
HETATM    7  C   UNK N   1      41.791  42.847  46.472  0.00  0.00     0.060 C 
HETATM    8  C   UNK N   1      42.742  41.688  46.826  0.00  0.00     0.018 C 
HETATM    9  C   UNK N   1      41.383  43.439  48.981  0.00  0.00     0.016 C 
HETATM   10  C   UNK N   1      41.477  44.583  50.021  0.00  0.00     0.025 C 
HETATM   11  C   UNK N   1      40.600  45.781  49.617  0.00  0.00     0.010 C 
HETATM   12  C   UNK N   1      40.987  46.271  48.209  0.00  0.00     0.014 C 
HETATM   13  C   UNK N   1      39.350  44.770  46.970  0.00  0.00     0.020 C 
ENDROOT
BRANCH  10  14
HETATM   14  C   UNK N   1      41.128  44.091  51.423  0.00  0.00     0.010 C 
HETATM   15  C   UNK N   1      40.112  43.224  51.609  0.00  0.00     0.026 C 
BRANCH  14  16
HETATM   16  C   UNK N   1      41.907  44.580  52.599  0.00  0.00     0.171 C 
HETATM   17  O   UNK N   1      42.536  45.625  52.534  0.00  0.00    -0.646 OA
BRANCH  16  18
HETATM   18  O   UNK N   1      41.952  43.845  53.732  0.00  0.00    -0.773 OA
HETATM   19  H   UNK N   1      42.257  44.231  54.566  0.00  0.00     0.167 HD
ENDBRANCH  16  18
ENDBRANCH  14  16
ENDBRANCH  10  14
TORSDOF 3
ENDMDL
MODEL 3
REMARK VINA RESULT:      -6.5      1.340      5.729
REMARK  3 active torsions:
REMARK  status: ('A' for Active; 'I' for Inactive)
REMARK    1  A    between atoms: C_10  and  C_11 
REMARK    2  A    between atoms: C_11  and  C_12 
REMARK    3  A    between atoms: C_12  and  O_14 
ROOT
HETATM    1  O   UNK N   1      41.578  43.626  52.756  0.00  0.00    -0.293 OA
HETATM    2  C   UNK N   1      41.379  43.847  51.571  0.00  0.00     0.153 C 
HETATM    3  C   UNK N   1      41.038  42.715  50.678  0.00  0.00     0.047 C 
HETATM    4  C   UNK N   1      40.697  42.910  49.393  0.00  0.00    -0.013 C 
HETATM    5  C   UNK N   1      40.644  44.296  48.774  0.00  0.00    -0.022 C 
HETATM    6  C   UNK N   1      41.659  45.240  49.514  0.00  0.00     0.009 C 
HETATM    7  C   UNK N   1      41.381  45.276  51.046  0.00  0.00     0.060 C 
HETATM    8  C   UNK N   1      42.407  46.130  51.814  0.00  0.00     0.018 C 
HETATM    9  C   UNK N   1      41.714  46.636  48.844  0.00  0.00     0.016 C 
HETATM   10  C   UNK N   1      42.093  46.508  47.347  0.00  0.00     0.025 C 
HETATM   11  C   UNK N   1      41.124  45.575  46.601  0.00  0.00     0.010 C 
HETATM   12  C   UNK N   1      41.079  44.197  47.286  0.00  0.00     0.014 C 
HETATM   13  C   UNK N   1      39.169  44.772  48.865  0.00  0.00     0.020 C 
ENDROOT
BRANCH  10  14
HETATM   14  C   UNK N   1      42.173  47.875  46.674  0.00  0.00     0.010 C 
HETATM   15  C   UNK N   1      43.347  48.537  46.609  0.00  0.00     0.026 C 
BRANCH  14  16
HETATM   16  C   UNK N   1      40.943  48.491  46.094  0.00  0.00     0.171 C 
HETATM   17  O   UNK N   1      40.954  48.948  44.962  0.00  0.00    -0.646 OA
BRANCH  16  18
HETATM   18  O   UNK N   1      39.818  48.583  46.838  0.00  0.00    -0.773 OA
HETATM   19  H   UNK N   1      39.854  48.561  47.804  0.00  0.00     0.167 HD
ENDBRANCH  16  18
ENDBRANCH  14  16
ENDBRANCH  10  14
TORSDOF 3
ENDMDL
MODEL 4
REMARK VINA RESULT:      -6.4      1.440      2.685
REMARK  3 active torsions:
REMARK  status: ('A' for Active; 'I' for Inactive)
REMARK    1  A    between atoms: C_10  and  C_11 
REMARK    2  A    between atoms: C_11  and  C_12 
REMARK    3  A    between atoms: C_12  and  O_14 
ROOT
HETATM    1  O   UNK N   1      38.687  45.937  45.479  0.00  0.00    -0.293 OA
HETATM    2  C   UNK N   1      39.561  46.090  46.320  0.00  0.00     0.153 C 
HETATM    3  C   UNK N   1      40.901  46.546  45.884  0.00  0.00     0.047 C 
HETATM    4  C   UNK N   1      41.867  46.841  46.771  0.00  0.00    -0.013 C 
HETATM    5  C   UNK N   1      41.648  46.722  48.270  0.00  0.00    -0.022 C 
HETATM    6  C   UNK N   1      40.570  45.616  48.557  0.00  0.00     0.009 C 
HETATM    7  C   UNK N   1      39.243  45.912  47.797  0.00  0.00     0.060 C 
HETATM    8  C   UNK N   1      38.190  44.807  47.994  0.00  0.00     0.018 C 
HETATM    9  C   UNK N   1      40.396  45.388  50.080  0.00  0.00     0.016 C 
HETATM   10  C   UNK N   1      41.747  45.002  50.732  0.00  0.00     0.025 C 
HETATM   11  C   UNK N   1      42.827  46.062  50.453  0.00  0.00     0.010 C 
HETATM   12  C   UNK N   1      42.979  46.278  48.936  0.00  0.00     0.014 C 
HETATM   13  C   UNK N   1      41.246  48.133  48.778  0.00  0.00     0.020 C 
ENDROOT
BRANCH  10  14
HETATM   14  C   UNK N   1      41.591  44.753  52.229  0.00  0.00     0.010 C 
HETATM   15  C   UNK N   1      41.995  45.681  53.121  0.00  0.00     0.026 C 
BRANCH  14  16
HETATM   16  C   UNK N   1      40.999  43.471  52.713  0.00  0.00     0.171 C 
HETATM   17  O   UNK N   1      41.712  42.593  53.172  0.00  0.00    -0.646 OA
BRANCH  16  18
HETATM   18  O   UNK N   1      39.667  43.260  52.607  0.00  0.00    -0.773 OA
HETATM   19  H   UNK N   1      39.265  43.020  51.761  0.00  0.00     0.167 HD
ENDBRANCH  16  18
ENDBRANCH  14  16
ENDBRANCH  10  14
TORSDOF 3
ENDMDL
MODEL 5
REMARK VINA RESULT:      -6.2      2.649      6.606
REMARK  3 active torsions:
REMARK  status: ('A' for Active; 'I' for Inactive)
REMARK    1  A    between atoms: C_10  and  C_11 
REMARK    2  A    between atoms: C_11  and  C_12 
REMARK    3  A    between atoms: C_12  and  O_14 
ROOT
HETATM    1  O   UNK N   1      42.921  45.120  50.245  0.00  0.00    -0.293 OA
HETATM    2  C   UNK N   1      42.044  45.331  49.421  0.00  0.00     0.153 C 
HETATM    3  C   UNK N   1      41.356  44.176  48.797  0.00  0.00     0.047 C 
HETATM    4  C   UNK N   1      40.309  44.343  47.971  0.00  0.00    -0.013 C 
HETATM    5  C   UNK N   1      39.768  45.719  47.623  0.00  0.00    -0.022 C 
HETATM    6  C   UNK N   1      40.927  46.777  47.716  0.00  0.00     0.009 C 
HETATM    7  C   UNK N   1      41.599  46.754  49.120  0.00  0.00     0.060 C 
HETATM    8  C   UNK N   1      42.790  47.724  49.221  0.00  0.00     0.018 C 
HETATM    9  C   UNK N   1      40.442  48.177  47.264  0.00  0.00     0.016 C 
HETATM   10  C   UNK N   1      39.880  48.121  45.821  0.00  0.00     0.025 C 
HETATM   11  C   UNK N   1      38.754  47.080  45.698  0.00  0.00     0.010 C 
HETATM   12  C   UNK N   1      39.254  45.699  46.157  0.00  0.00     0.014 C 
HETATM   13  C   UNK N   1      38.589  45.997  48.594  0.00  0.00     0.020 C 
ENDROOT
BRANCH  10  14
HETATM   14  C   UNK N   1      39.416  49.496  45.350  0.00  0.00     0.010 C 
HETATM   15  C   UNK N   1      38.678  50.282  46.161  0.00  0.00     0.026 C 
BRANCH  14  16
HETATM   16  C   UNK N   1      39.771  49.973  43.980  0.00  0.00     0.171 C 
HETATM   17  O   UNK N   1      40.368  51.027  43.826  0.00  0.00    -0.646 OA
BRANCH  16  18
HETATM   18  O   UNK N   1      39.396  49.255  42.898  0.00  0.00    -0.773 OA
HETATM   19  H   UNK N   1      40.043  48.979  42.233  0.00  0.00     0.167 HD
ENDBRANCH  16  18
ENDBRANCH  14  16
ENDBRANCH  10  14
TORSDOF 3
ENDMDL
MODEL 6
REMARK VINA RESULT:      -6.0     12.407     15.193
REMARK  3 active torsions:
REMARK  status: ('A' for Active; 'I' for Inactive)
REMARK    1  A    between atoms: C_10  and  C_11 
REMARK    2  A    between atoms: C_11  and  C_12 
REMARK    3  A    between atoms: C_12  and  O_14 
ROOT
HETATM    1  O   UNK N   1      33.935  49.553  43.521  0.00  0.00    -0.293 OA
HETATM    2  C   UNK N   1      33.561  50.689  43.773  0.00  0.00     0.153 C 
HETATM    3  C   UNK N   1      33.986  51.316  45.047  0.00  0.00     0.047 C 
HETATM    4  C   UNK N   1      33.702  52.599  45.328  0.00  0.00    -0.013 C 
HETATM    5  C   UNK N   1      32.929  53.484  44.365  0.00  0.00    -0.022 C 
HETATM    6  C   UNK N   1      31.971  52.596  43.492  0.00  0.00     0.009 C 
HETATM    7  C   UNK N   1      32.760  51.478  42.749  0.00  0.00     0.060 C 
HETATM    8  C   UNK N   1      31.841  50.540  41.944  0.00  0.00     0.018 C 
HETATM    9  C   UNK N   1      31.085  53.471  42.570  0.00  0.00     0.016 C 
HETATM   10  C   UNK N   1      30.264  54.486  43.404  0.00  0.00     0.025 C 
HETATM   11  C   UNK N   1      31.178  55.358  44.282  0.00  0.00     0.010 C 
HETATM   12  C   UNK N   1      32.054  54.470  45.185  0.00  0.00     0.014 C 
HETATM   13  C   UNK N   1      33.980  54.271  43.536  0.00  0.00     0.020 C 
ENDROOT
BRANCH  10  14
HETATM   14  C   UNK N   1      29.369  55.344  42.514  0.00  0.00     0.010 C 
HETATM   15  C   UNK N   1      29.806  56.533  42.053  0.00  0.00     0.026 C 
BRANCH  14  16
HETATM   16  C   UNK N   1      27.998  54.870  42.161  0.00  0.00     0.171 C 
HETATM   17  O   UNK N   1      27.785  54.341  41.082  0.00  0.00    -0.646 OA
BRANCH  16  18
HETATM   18  O   UNK N   1      26.974  55.062  43.023  0.00  0.00    -0.773 OA
HETATM   19  H   UNK N   1      26.765  55.944  43.362  0.00  0.00     0.167 HD
ENDBRANCH  16  18
ENDBRANCH  14  16
ENDBRANCH  10  14
TORSDOF 3
ENDMDL
MODEL 7
REMARK VINA RESULT:      -5.9     13.871     16.396
REMARK  3 active torsions:
REMARK  status: ('A' for Active; 'I' for Inactive)
REMARK    1  A    between atoms: C_10  and  C_11 
REMARK    2  A    between atoms: C_11  and  C_12 
REMARK    3  A    between atoms: C_12  and  O_14 
ROOT
HETATM    1  O   UNK N   1      28.732  52.279  38.279  0.00  0.00    -0.293 OA
HETATM    2  C   UNK N   1      28.962  53.123  39.133  0.00  0.00     0.153 C 
HETATM    3  C   UNK N   1      28.618  54.537  38.852  0.00  0.00     0.047 C 
HETATM    4  C   UNK N   1      28.741  55.490  39.791  0.00  0.00    -0.013 C 
HETATM    5  C   UNK N   1      29.241  55.182  41.192  0.00  0.00    -0.022 C 
HETATM    6  C   UNK N   1      30.199  53.938  41.146  0.00  0.00     0.009 C 
HETATM    7  C   UNK N   1      29.496  52.710  40.496  0.00  0.00     0.060 C 
HETATM    8  C   UNK N   1      30.433  51.495  40.363  0.00  0.00     0.018 C 
HETATM    9  C   UNK N   1      30.817  53.656  42.538  0.00  0.00     0.016 C 
HETATM   10  C   UNK N   1      31.579  54.901  43.060  0.00  0.00     0.025 C 
HETATM   11  C   UNK N   1      30.666  56.139  43.100  0.00  0.00     0.010 C 
HETATM   12  C   UNK N   1      30.059  56.398  41.710  0.00  0.00     0.014 C 
HETATM   13  C   UNK N   1      27.986  54.971  42.081  0.00  0.00     0.020 C 
ENDROOT
BRANCH  10  14
HETATM   14  C   UNK N   1      32.212  54.636  44.422  0.00  0.00     0.010 C 
HETATM   15  C   UNK N   1      31.583  53.857  45.327  0.00  0.00     0.026 C 
BRANCH  14  16
HETATM   16  C   UNK N   1      33.529  55.249  44.763  0.00  0.00     0.171 C 
HETATM   17  O   UNK N   1      33.684  55.838  45.821  0.00  0.00    -0.646 OA
BRANCH  16  18
HETATM   18  O   UNK N   1      34.551  55.190  43.879  0.00  0.00    -0.773 OA
HETATM   19  H   UNK N   1      35.103  54.399  43.806  0.00  0.00     0.167 HD
ENDBRANCH  16  18
ENDBRANCH  14  16
ENDBRANCH  10  14
TORSDOF 3
ENDMDL
MODEL 8
REMARK VINA RESULT:      -5.7      1.646      5.755
REMARK  3 active torsions:
REMARK  status: ('A' for Active; 'I' for Inactive)
REMARK    1  A    between atoms: C_10  and  C_11 
REMARK    2  A    between atoms: C_11  and  C_12 
REMARK    3  A    between atoms: C_12  and  O_14 
ROOT
HETATM    1  O   UNK N   1      42.426  45.616  52.922  0.00  0.00    -0.293 OA
HETATM    2  C   UNK N   1      41.916  45.175  51.903  0.00  0.00     0.153 C 
HETATM    3  C   UNK N   1      41.218  43.869  51.959  0.00  0.00     0.047 C 
HETATM    4  C   UNK N   1      40.541  43.388  50.903  0.00  0.00    -0.013 C 
HETATM    5  C   UNK N   1      40.451  44.146  49.589  0.00  0.00    -0.022 C 
HETATM    6  C   UNK N   1      41.727  45.045  49.414  0.00  0.00     0.009 C 
HETATM    7  C   UNK N   1      41.911  46.004  50.627  0.00  0.00     0.060 C 
HETATM    8  C   UNK N   1      43.195  46.847  50.527  0.00  0.00     0.018 C 
HETATM    9  C   UNK N   1      41.727  45.754  48.036  0.00  0.00     0.016 C 
HETATM   10  C   UNK N   1      41.641  44.716  46.889  0.00  0.00     0.025 C 
HETATM   11  C   UNK N   1      40.407  43.809  47.045  0.00  0.00     0.010 C 
HETATM   12  C   UNK N   1      40.424  43.121  48.422  0.00  0.00     0.014 C 
HETATM   13  C   UNK N   1      39.122  44.947  49.623  0.00  0.00     0.020 C 
ENDROOT
BRANCH  10  14
HETATM   14  C   UNK N   1      41.660  45.394  45.522  0.00  0.00     0.010 C 
HETATM   15  C   UNK N   1      41.951  44.685  44.413  0.00  0.00     0.026 C 
BRANCH  14  16
HETATM   16  C   UNK N   1      41.365  46.853  45.412  0.00  0.00     0.171 C 
HETATM   17  O   UNK N   1      40.244  47.238  45.117  0.00  0.00    -0.646 OA
BRANCH  16  18
HETATM   18  O   UNK N   1      42.351  47.758  45.600  0.00  0.00    -0.773 OA
HETATM   19  H   UNK N   1      43.234  47.483  45.885  0.00  0.00     0.167 HD
ENDBRANCH  16  18
ENDBRANCH  14  16
ENDBRANCH  10  14
TORSDOF 3
ENDMDL
MODEL 9
REMARK VINA RESULT:      -5.5     13.620     16.666
REMARK  3 active torsions:
REMARK  status: ('A' for Active; 'I' for Inactive)
REMARK    1  A    between atoms: C_10  and  C_11 
REMARK    2  A    between atoms: C_11  and  C_12 
REMARK    3  A    between atoms: C_12  and  O_14 
ROOT
HETATM    1  O   UNK N   1      33.164  52.142  45.172  0.00  0.00    -0.293 OA
HETATM    2  C   UNK N   1      32.364  52.760  44.486  0.00  0.00     0.153 C 
HETATM    3  C   UNK N   1      31.551  53.825  45.118  0.00  0.00     0.047 C 
HETATM    4  C   UNK N   1      30.739  54.614  44.394  0.00  0.00    -0.013 C 
HETATM    5  C   UNK N   1      30.600  54.462  42.889  0.00  0.00    -0.022 C 
HETATM    6  C   UNK N   1      30.883  52.971  42.483  0.00  0.00     0.009 C 
HETATM    7  C   UNK N   1      32.281  52.506  42.988  0.00  0.00     0.060 C 
HETATM    8  C   UNK N   1      32.560  51.024  42.676  0.00  0.00     0.018 C 
HETATM    9  C   UNK N   1      30.646  52.750  40.968  0.00  0.00     0.016 C 
HETATM   10  C   UNK N   1      29.201  53.147  40.578  0.00  0.00     0.025 C 
HETATM   11  C   UNK N   1      28.891  54.600  40.979  0.00  0.00     0.010 C 
HETATM   12  C   UNK N   1      29.138  54.800  42.485  0.00  0.00     0.014 C 
HETATM   13  C   UNK N   1      31.577  55.482  42.243  0.00  0.00     0.020 C 
ENDROOT
BRANCH  10  14
HETATM   14  C   UNK N   1      28.942  52.917  39.092  0.00  0.00     0.010 C 
HETATM   15  C   UNK N   1      29.732  53.495  38.164  0.00  0.00     0.026 C 
BRANCH  14  16
HETATM   16  C   UNK N   1      27.802  52.055  38.660  0.00  0.00     0.171 C 
HETATM   17  O   UNK N   1      27.191  52.306  37.633  0.00  0.00    -0.646 OA
BRANCH  16  18
HETATM   18  O   UNK N   1      27.414  51.013  39.428  0.00  0.00    -0.773 OA
HETATM   19  H   UNK N   1      28.020  50.607  40.063  0.00  0.00     0.167 HD
ENDBRANCH  16  18
ENDBRANCH  14  16
ENDBRANCH  10  14
TORSDOF 3
ENDMDL
