MODEL 1
REMARK VINA RESULT:      -6.2      0.000      0.000
REMARK  3 active torsions:
REMARK  status: ('A' for Active; 'I' for Inactive)
REMARK    1  A    between atoms: C_10  and  C_11 
REMARK    2  A    between atoms: C_11  and  C_12 
REMARK    3  A    between atoms: C_12  and  O_14 
ROOT
HETATM    1  O   UNK N   1      29.741  55.309  40.669  0.00  0.00    -0.293 OA
HETATM    2  C   UNK N   1      30.183  54.907  41.734  0.00  0.00     0.155 C 
HETATM    3  C   UNK N   1      30.734  53.526  41.860  0.00  0.00    -0.013 C 
HETATM    4  C   UNK N   1      31.487  53.194  42.958  0.00  0.00    -0.061 C 
HETATM    5  C   UNK N   1      31.865  54.247  44.025  0.00  0.00    -0.020 C 
HETATM    6  C   UNK N   1      31.555  55.710  43.563  0.00  0.00     0.021 C 
HETATM    7  C   UNK N   1      30.183  55.813  42.927  0.00  0.00     0.084 C 
HETATM    8  C   UNK N   1      33.405  54.190  44.254  0.00  0.00     0.014 C 
HETATM    9  C   UNK N   1      33.940  52.775  44.506  0.00  0.00     0.011 C 
HETATM   10  C   UNK N   1      33.555  51.840  43.334  0.00  0.00     0.028 C 
HETATM   11  C   UNK N   1      32.027  51.776  43.182  0.00  0.00     0.045 C 
HETATM   12  C   UNK N   1      31.098  53.927  45.331  0.00  0.00     0.020 C 
HETATM   13  C   UNK N   1      30.439  52.525  40.764  0.00  0.00     0.052 C 
ENDROOT
BRANCH  10  14
HETATM   14  C   UNK N   1      34.187  50.453  43.494  0.00  0.00     0.010 C 
HETATM   15  C   UNK N   1      35.520  50.295  43.359  0.00  0.00     0.026 C 
BRANCH  14  16
HETATM   16  C   UNK N   1      33.295  49.284  43.804  0.00  0.00     0.171 C 
HETATM   17  O   UNK N   1      32.965  48.528  42.905  0.00  0.00    -0.646 OA
BRANCH  16  18
HETATM   18  O   UNK N   1      32.835  49.036  45.053  0.00  0.00    -0.773 OA
HETATM   19  H   UNK N   1      33.400  48.992  45.832  0.00  0.00     0.167 HD
ENDBRANCH  16  18
ENDBRANCH  14  16
ENDBRANCH  10  14
TORSDOF 3
ENDMDL
MODEL 2
REMARK VINA RESULT:      -6.1      1.575      5.457
REMARK  3 active torsions:
REMARK  status: ('A' for Active; 'I' for Inactive)
REMARK    1  A    between atoms: C_10  and  C_11 
REMARK    2  A    between atoms: C_11  and  C_12 
REMARK    3  A    between atoms: C_12  and  O_14 
ROOT
HETATM    1  O   UNK N   1      33.150  49.339  43.374  0.00  0.00    -0.293 OA
HETATM    2  C   UNK N   1      33.173  50.553  43.511  0.00  0.00     0.155 C 
HETATM    3  C   UNK N   1      32.267  51.428  42.712  0.00  0.00    -0.013 C 
HETATM    4  C   UNK N   1      32.090  52.738  43.082  0.00  0.00    -0.061 C 
HETATM    5  C   UNK N   1      32.730  53.305  44.369  0.00  0.00    -0.020 C 
HETATM    6  C   UNK N   1      33.315  52.187  45.295  0.00  0.00     0.021 C 
HETATM    7  C   UNK N   1      34.111  51.170  44.502  0.00  0.00     0.084 C 
HETATM    8  C   UNK N   1      31.620  54.012  45.204  0.00  0.00     0.014 C 
HETATM    9  C   UNK N   1      30.776  55.004  44.395  0.00  0.00     0.011 C 
HETATM   10  C   UNK N   1      30.135  54.295  43.177  0.00  0.00     0.028 C 
HETATM   11  C   UNK N   1      31.227  53.709  42.267  0.00  0.00     0.045 C 
HETATM   12  C   UNK N   1      33.844  54.304  43.971  0.00  0.00     0.020 C 
HETATM   13  C   UNK N   1      31.569  50.840  41.505  0.00  0.00     0.052 C 
ENDROOT
BRANCH  10  14
HETATM   14  C   UNK N   1      29.181  55.227  42.423  0.00  0.00     0.010 C 
HETATM   15  C   UNK N   1      29.566  56.480  42.107  0.00  0.00     0.026 C 
BRANCH  14  16
HETATM   16  C   UNK N   1      27.820  54.715  42.045  0.00  0.00     0.171 C 
HETATM   17  O   UNK N   1      27.688  54.062  41.024  0.00  0.00    -0.646 OA
BRANCH  16  18
HETATM   18  O   UNK N   1      26.721  54.955  42.800  0.00  0.00    -0.773 OA
HETATM   19  H   UNK N   1      25.905  54.448  42.734  0.00  0.00     0.167 HD
ENDBRANCH  16  18
ENDBRANCH  14  16
ENDBRANCH  10  14
TORSDOF 3
ENDMDL
MODEL 3
REMARK VINA RESULT:      -5.8      3.399      4.650
REMARK  3 active torsions:
REMARK  status: ('A' for Active; 'I' for Inactive)
REMARK    1  A    between atoms: C_10  and  C_11 
REMARK    2  A    between atoms: C_11  and  C_12 
REMARK    3  A    between atoms: C_12  and  O_14 
ROOT
HETATM    1  O   UNK N   1      29.609  53.105  37.774  0.00  0.00    -0.293 OA
HETATM    2  C   UNK N   1      29.281  53.595  38.845  0.00  0.00     0.155 C 
HETATM    3  C   UNK N   1      30.043  53.287  40.090  0.00  0.00    -0.013 C 
HETATM    4  C   UNK N   1      29.855  54.061  41.208  0.00  0.00    -0.061 C 
HETATM    5  C   UNK N   1      28.947  55.310  41.180  0.00  0.00    -0.020 C 
HETATM    6  C   UNK N   1      28.537  55.726  39.728  0.00  0.00     0.021 C 
HETATM    7  C   UNK N   1      28.109  54.526  38.907  0.00  0.00     0.084 C 
HETATM    8  C   UNK N   1      29.745  56.517  41.758  0.00  0.00     0.014 C 
HETATM    9  C   UNK N   1      30.421  56.223  43.103  0.00  0.00     0.011 C 
HETATM   10  C   UNK N   1      31.356  54.995  42.977  0.00  0.00     0.028 C 
HETATM   11  C   UNK N   1      30.555  53.758  42.539  0.00  0.00     0.045 C 
HETATM   12  C   UNK N   1      27.684  55.025  42.028  0.00  0.00     0.020 C 
HETATM   13  C   UNK N   1      31.003  52.118  40.082  0.00  0.00     0.052 C 
ENDROOT
BRANCH  10  14
HETATM   14  C   UNK N   1      32.145  54.756  44.269  0.00  0.00     0.010 C 
HETATM   15  C   UNK N   1      31.630  53.979  45.243  0.00  0.00     0.026 C 
BRANCH  14  16
HETATM   16  C   UNK N   1      33.494  55.400  44.420  0.00  0.00     0.171 C 
HETATM   17  O   UNK N   1      34.460  54.903  43.865  0.00  0.00    -0.646 OA
BRANCH  16  18
HETATM   18  O   UNK N   1      33.683  56.519  45.159  0.00  0.00    -0.773 OA
HETATM   19  H   UNK N   1      33.269  57.365  44.964  0.00  0.00     0.167 HD
ENDBRANCH  16  18
ENDBRANCH  14  16
ENDBRANCH  10  14
TORSDOF 3
ENDMDL
MODEL 4
REMARK VINA RESULT:      -5.6      2.639      4.373
REMARK  3 active torsions:
REMARK  status: ('A' for Active; 'I' for Inactive)
REMARK    1  A    between atoms: C_10  and  C_11 
REMARK    2  A    between atoms: C_11  and  C_12 
REMARK    3  A    between atoms: C_12  and  O_14 
ROOT
HETATM    1  O   UNK N   1      26.240  54.386  40.538  0.00  0.00    -0.293 OA
HETATM    2  C   UNK N   1      27.419  54.126  40.350  0.00  0.00     0.155 C 
HETATM    3  C   UNK N   1      28.435  54.380  41.412  0.00  0.00    -0.013 C 
HETATM    4  C   UNK N   1      29.683  53.817  41.306  0.00  0.00    -0.061 C 
HETATM    5  C   UNK N   1      30.030  52.841  40.160  0.00  0.00    -0.020 C 
HETATM    6  C   UNK N   1      28.768  52.370  39.364  0.00  0.00     0.021 C 
HETATM    7  C   UNK N   1      27.849  53.532  39.044  0.00  0.00     0.084 C 
HETATM    8  C   UNK N   1      30.648  51.551  40.779  0.00  0.00     0.014 C 
HETATM    9  C   UNK N   1      31.779  51.825  41.778  0.00  0.00     0.011 C 
HETATM   10  C   UNK N   1      31.281  52.757  42.910  0.00  0.00     0.028 C 
HETATM   11  C   UNK N   1      30.794  54.093  42.326  0.00  0.00     0.045 C 
HETATM   12  C   UNK N   1      31.034  53.532  39.205  0.00  0.00     0.020 C 
HETATM   13  C   UNK N   1      28.057  55.264  42.581  0.00  0.00     0.052 C 
ENDROOT
BRANCH  10  14
HETATM   14  C   UNK N   1      32.349  52.944  43.993  0.00  0.00     0.010 C 
HETATM   15  C   UNK N   1      33.443  52.155  44.009  0.00  0.00     0.026 C 
BRANCH  14  16
HETATM   16  C   UNK N   1      32.151  54.019  45.024  0.00  0.00     0.171 C 
HETATM   17  O   UNK N   1      33.052  54.810  45.244  0.00  0.00    -0.646 OA
BRANCH  16  18
HETATM   18  O   UNK N   1      31.001  54.143  45.728  0.00  0.00    -0.773 OA
HETATM   19  H   UNK N   1      30.179  53.698  45.494  0.00  0.00     0.167 HD
ENDBRANCH  16  18
ENDBRANCH  14  16
ENDBRANCH  10  14
TORSDOF 3
ENDMDL
MODEL 5
REMARK VINA RESULT:      -5.3      1.502      5.838
REMARK  3 active torsions:
REMARK  status: ('A' for Active; 'I' for Inactive)
REMARK    1  A    between atoms: C_10  and  C_11 
REMARK    2  A    between atoms: C_11  and  C_12 
REMARK    3  A    between atoms: C_12  and  O_14 
ROOT
HETATM    1  O   UNK N   1      32.771  49.869  43.102  0.00  0.00    -0.293 OA
HETATM    2  C   UNK N   1      32.675  51.086  43.170  0.00  0.00     0.155 C 
HETATM    3  C   UNK N   1      31.790  51.836  42.233  0.00  0.00    -0.013 C 
HETATM    4  C   UNK N   1      31.463  53.140  42.506  0.00  0.00    -0.061 C 
HETATM    5  C   UNK N   1      31.910  53.825  43.817  0.00  0.00    -0.020 C 
HETATM    6  C   UNK N   1      32.484  52.811  44.862  0.00  0.00     0.021 C 
HETATM    7  C   UNK N   1      33.445  51.834  44.216  0.00  0.00     0.084 C 
HETATM    8  C   UNK N   1      30.661  54.468  44.491  0.00  0.00     0.014 C 
HETATM    9  C   UNK N   1      29.827  55.339  43.543  0.00  0.00     0.011 C 
HETATM   10  C   UNK N   1      29.385  54.516  42.308  0.00  0.00     0.028 C 
HETATM   11  C   UNK N   1      30.614  53.988  41.551  0.00  0.00     0.045 C 
HETATM   12  C   UNK N   1      32.972  54.900  43.479  0.00  0.00     0.020 C 
HETATM   13  C   UNK N   1      31.279  51.128  40.996  0.00  0.00     0.052 C 
ENDROOT
BRANCH  10  14
HETATM   14  C   UNK N   1      28.441  55.320  41.407  0.00  0.00     0.010 C 
HETATM   15  C   UNK N   1      27.114  55.078  41.427  0.00  0.00     0.026 C 
BRANCH  14  16
HETATM   16  C   UNK N   1      29.024  56.377  40.512  0.00  0.00     0.171 C 
HETATM   17  O   UNK N   1      29.007  56.214  39.304  0.00  0.00    -0.646 OA
BRANCH  16  18
HETATM   18  O   UNK N   1      29.576  57.514  40.999  0.00  0.00    -0.773 OA
HETATM   19  H   UNK N   1      30.246  57.529  41.691  0.00  0.00     0.167 HD
ENDBRANCH  16  18
ENDBRANCH  14  16
ENDBRANCH  10  14
TORSDOF 3
ENDMDL
MODEL 6
REMARK VINA RESULT:      -5.1      3.301      5.576
REMARK  3 active torsions:
REMARK  status: ('A' for Active; 'I' for Inactive)
REMARK    1  A    between atoms: C_10  and  C_11 
REMARK    2  A    between atoms: C_11  and  C_12 
REMARK    3  A    between atoms: C_12  and  O_14 
ROOT
HETATM    1  O   UNK N   1      26.942  51.068  37.749  0.00  0.00    -0.293 OA
HETATM    2  C   UNK N   1      27.485  52.139  37.975  0.00  0.00     0.155 C 
HETATM    3  C   UNK N   1      27.776  52.568  39.374  0.00  0.00    -0.013 C 
HETATM    4  C   UNK N   1      28.639  53.611  39.598  0.00  0.00    -0.061 C 
HETATM    5  C   UNK N   1      29.399  54.291  38.438  0.00  0.00    -0.020 C 
HETATM    6  C   UNK N   1      29.297  53.489  37.097  0.00  0.00     0.021 C 
HETATM    7  C   UNK N   1      27.877  53.028  36.834  0.00  0.00     0.084 C 
HETATM    8  C   UNK N   1      30.916  54.331  38.794  0.00  0.00     0.014 C 
HETATM    9  C   UNK N   1      31.207  54.892  40.191  0.00  0.00     0.011 C 
HETATM   10  C   UNK N   1      30.443  54.080  41.265  0.00  0.00     0.028 C 
HETATM   11  C   UNK N   1      28.929  54.145  41.006  0.00  0.00     0.045 C 
HETATM   12  C   UNK N   1      28.838  55.721  38.247  0.00  0.00     0.020 C 
HETATM   13  C   UNK N   1      27.100  51.835  40.512  0.00  0.00     0.052 C 
ENDROOT
BRANCH  10  14
HETATM   14  C   UNK N   1      30.816  54.532  42.681  0.00  0.00     0.010 C 
HETATM   15  C   UNK N   1      30.656  55.821  43.045  0.00  0.00     0.026 C 
BRANCH  14  16
HETATM   16  C   UNK N   1      31.357  53.515  43.646  0.00  0.00     0.171 C 
HETATM   17  O   UNK N   1      31.852  52.487  43.216  0.00  0.00    -0.646 OA
BRANCH  16  18
HETATM   18  O   UNK N   1      31.311  53.694  44.987  0.00  0.00    -0.773 OA
HETATM   19  H   UNK N   1      30.687  54.280  45.428  0.00  0.00     0.167 HD
ENDBRANCH  16  18
ENDBRANCH  14  16
ENDBRANCH  10  14
TORSDOF 3
ENDMDL
MODEL 7
REMARK VINA RESULT:      -5.0      2.253      6.732
REMARK  3 active torsions:
REMARK  status: ('A' for Active; 'I' for Inactive)
REMARK    1  A    between atoms: C_10  and  C_11 
REMARK    2  A    between atoms: C_11  and  C_12 
REMARK    3  A    between atoms: C_12  and  O_14 
ROOT
HETATM    1  O   UNK N   1      32.677  51.785  43.669  0.00  0.00    -0.293 OA
HETATM    2  C   UNK N   1      31.857  52.004  42.789  0.00  0.00     0.155 C 
HETATM    3  C   UNK N   1      31.140  53.310  42.722  0.00  0.00    -0.013 C 
HETATM    4  C   UNK N   1      30.458  53.652  41.581  0.00  0.00    -0.061 C 
HETATM    5  C   UNK N   1      30.498  52.759  40.321  0.00  0.00    -0.020 C 
HETATM    6  C   UNK N   1      31.592  51.642  40.408  0.00  0.00     0.021 C 
HETATM    7  C   UNK N   1      31.577  50.954  41.758  0.00  0.00     0.084 C 
HETATM    8  C   UNK N   1      30.889  53.642  39.099  0.00  0.00     0.014 C 
HETATM    9  C   UNK N   1      30.057  54.924  38.972  0.00  0.00     0.011 C 
HETATM   10  C   UNK N   1      30.159  55.761  40.271  0.00  0.00     0.028 C 
HETATM   11  C   UNK N   1      29.645  54.948  41.470  0.00  0.00     0.045 C 
HETATM   12  C   UNK N   1      29.102  52.121  40.119  0.00  0.00     0.020 C 
HETATM   13  C   UNK N   1      31.183  54.224  43.928  0.00  0.00     0.052 C 
ENDROOT
BRANCH  10  14
HETATM   14  C   UNK N   1      29.444  57.109  40.127  0.00  0.00     0.010 C 
HETATM   15  C   UNK N   1      29.764  57.941  39.115  0.00  0.00     0.026 C 
BRANCH  14  16
HETATM   16  C   UNK N   1      28.387  57.476  41.130  0.00  0.00     0.171 C 
HETATM   17  O   UNK N   1      28.688  58.163  42.092  0.00  0.00    -0.646 OA
BRANCH  16  18
HETATM   18  O   UNK N   1      27.102  57.069  41.009  0.00  0.00    -0.773 OA
HETATM   19  H   UNK N   1      26.772  56.229  41.346  0.00  0.00     0.167 HD
ENDBRANCH  16  18
ENDBRANCH  14  16
ENDBRANCH  10  14
TORSDOF 3
ENDMDL
MODEL 8
REMARK VINA RESULT:      -4.8      3.652      6.963
REMARK  3 active torsions:
REMARK  status: ('A' for Active; 'I' for Inactive)
REMARK    1  A    between atoms: C_10  and  C_11 
REMARK    2  A    between atoms: C_11  and  C_12 
REMARK    3  A    between atoms: C_12  and  O_14 
ROOT
HETATM    1  O   UNK N   1      28.726  50.098  40.425  0.00  0.00    -0.293 OA
HETATM    2  C   UNK N   1      29.142  51.246  40.404  0.00  0.00     0.155 C 
HETATM    3  C   UNK N   1      28.201  52.401  40.482  0.00  0.00    -0.013 C 
HETATM    4  C   UNK N   1      28.687  53.655  40.756  0.00  0.00    -0.061 C 
HETATM    5  C   UNK N   1      30.178  53.886  41.087  0.00  0.00    -0.020 C 
HETATM    6  C   UNK N   1      30.952  52.551  41.352  0.00  0.00     0.021 C 
HETATM    7  C   UNK N   1      30.616  51.500  40.313  0.00  0.00     0.084 C 
HETATM    8  C   UNK N   1      30.272  54.701  42.412  0.00  0.00     0.014 C 
HETATM    9  C   UNK N   1      29.391  55.956  42.429  0.00  0.00     0.011 C 
HETATM   10  C   UNK N   1      27.914  55.579  42.155  0.00  0.00     0.028 C 
HETATM   11  C   UNK N   1      27.784  54.895  40.784  0.00  0.00     0.045 C 
HETATM   12  C   UNK N   1      30.834  54.657  39.916  0.00  0.00     0.020 C 
HETATM   13  C   UNK N   1      26.727  52.151  40.249  0.00  0.00     0.052 C 
ENDROOT
BRANCH  10  14
HETATM   14  C   UNK N   1      26.990  56.793  42.294  0.00  0.00     0.010 C 
HETATM   15  C   UNK N   1      27.425  58.020  41.944  0.00  0.00     0.026 C 
BRANCH  14  16
HETATM   16  C   UNK N   1      25.599  56.584  42.823  0.00  0.00     0.171 C 
HETATM   17  O   UNK N   1      24.672  56.465  42.039  0.00  0.00    -0.646 OA
BRANCH  16  18
HETATM   18  O   UNK N   1      25.330  56.527  44.149  0.00  0.00    -0.773 OA
HETATM   19  H   UNK N   1      24.603  57.000  44.569  0.00  0.00     0.167 HD
ENDBRANCH  16  18
ENDBRANCH  14  16
ENDBRANCH  10  14
TORSDOF 3
ENDMDL
MODEL 9
REMARK VINA RESULT:      -4.8     14.059     16.434
REMARK  3 active torsions:
REMARK  status: ('A' for Active; 'I' for Inactive)
REMARK    1  A    between atoms: C_10  and  C_11 
REMARK    2  A    between atoms: C_11  and  C_12 
REMARK    3  A    between atoms: C_12  and  O_14 
ROOT
HETATM    1  O   UNK N   1      30.070  43.070  57.445  0.00  0.00    -0.293 OA
HETATM    2  C   UNK N   1      29.506  44.043  57.923  0.00  0.00     0.155 C 
HETATM    3  C   UNK N   1      30.107  45.404  57.816  0.00  0.00    -0.013 C 
HETATM    4  C   UNK N   1      29.339  46.508  58.085  0.00  0.00    -0.061 C 
HETATM    5  C   UNK N   1      27.832  46.383  58.402  0.00  0.00    -0.020 C 
HETATM    6  C   UNK N   1      27.267  44.956  58.095  0.00  0.00     0.021 C 
HETATM    7  C   UNK N   1      28.188  43.871  58.616  0.00  0.00     0.084 C 
HETATM    8  C   UNK N   1      27.048  47.359  57.475  0.00  0.00     0.014 C 
HETATM    9  C   UNK N   1      27.604  48.788  57.470  0.00  0.00     0.011 C 
HETATM   10  C   UNK N   1      29.099  48.780  57.069  0.00  0.00     0.028 C 
HETATM   11  C   UNK N   1      29.912  47.930  58.059  0.00  0.00     0.045 C 
HETATM   12  C   UNK N   1      27.606  46.735  59.893  0.00  0.00     0.020 C 
HETATM   13  C   UNK N   1      31.561  45.524  57.413  0.00  0.00     0.052 C 
ENDROOT
BRANCH  10  14
HETATM   14  C   UNK N   1      29.649  50.204  56.929  0.00  0.00     0.010 C 
HETATM   15  C   UNK N   1      29.213  51.183  57.747  0.00  0.00     0.026 C 
BRANCH  14  16
HETATM   16  C   UNK N   1      30.679  50.478  55.869  0.00  0.00     0.171 C 
HETATM   17  O   UNK N   1      30.325  50.606  54.709  0.00  0.00    -0.646 OA
BRANCH  16  18
HETATM   18  O   UNK N   1      31.999  50.588  56.154  0.00  0.00    -0.773 OA
HETATM   19  H   UNK N   1      32.448  50.057  56.820  0.00  0.00     0.167 HD
ENDBRANCH  16  18
ENDBRANCH  14  16
ENDBRANCH  10  14
TORSDOF 3
ENDMDL
