MODEL 1
REMARK VINA RESULT:      -8.0      0.000      0.000
REMARK  3 active torsions:
REMARK  status: ('A' for Active; 'I' for Inactive)
REMARK    1  A    between atoms: C_10  and  C_11 
REMARK    2  A    between atoms: C_11  and  C_12 
REMARK    3  A    between atoms: C_12  and  O_14 
ROOT
HETATM    1  O   UNK N   1      41.529  48.099  46.016  0.00  0.00    -0.298 OA
HETATM    2  C   UNK N   1      41.627  46.958  46.444  0.00  0.00     0.131 C 
HETATM    3  C   UNK N   1      42.359  46.656  47.740  0.00  0.00     0.056 C 
HETATM    4  C   UNK N   1      41.344  45.947  48.695  0.00  0.00     0.005 C 
HETATM    5  C   UNK N   1      40.694  44.684  48.010  0.00  0.00    -0.039 C 
HETATM    6  C   UNK N   1      39.996  45.130  46.688  0.00  0.00     0.017 C 
HETATM    7  C   UNK N   1      40.962  45.827  45.719  0.00  0.00     0.079 C 
HETATM    8  C   UNK N   1      39.603  44.119  48.965  0.00  0.00     0.010 C 
HETATM    9  C   UNK N   1      40.166  43.755  50.348  0.00  0.00     0.010 C 
HETATM   10  C   UNK N   1      40.850  44.982  50.999  0.00  0.00     0.025 C 
HETATM   11  C   UNK N   1      41.937  45.582  50.083  0.00  0.00     0.015 C 
HETATM   12  C   UNK N   1      41.737  43.569  47.691  0.00  0.00     0.015 C 
HETATM   13  C   UNK N   1      42.959  47.938  48.349  0.00  0.00     0.018 C 
ENDROOT
BRANCH  10  14
HETATM   14  C   UNK N   1      41.405  44.719  52.400  0.00  0.00     0.010 C 
HETATM   15  C   UNK N   1      42.142  45.640  53.057  0.00  0.00     0.026 C 
BRANCH  14  16
HETATM   16  C   UNK N   1      41.086  43.425  53.073  0.00  0.00     0.171 C 
HETATM   17  O   UNK N   1      41.923  42.537  53.141  0.00  0.00    -0.646 OA
BRANCH  16  18
HETATM   18  O   UNK N   1      39.873  43.241  53.639  0.00  0.00    -0.773 OA
HETATM   19  H   UNK N   1      39.768  43.236  54.602  0.00  0.00     0.167 HD
ENDBRANCH  16  18
ENDBRANCH  14  16
ENDBRANCH  10  14
TORSDOF 3
ENDMDL
MODEL 2
REMARK VINA RESULT:      -7.3      2.130      3.355
REMARK  3 active torsions:
REMARK  status: ('A' for Active; 'I' for Inactive)
REMARK    1  A    between atoms: C_10  and  C_11 
REMARK    2  A    between atoms: C_11  and  C_12 
REMARK    3  A    between atoms: C_12  and  O_14 
ROOT
HETATM    1  O   UNK N   1      43.534  42.727  44.381  0.00  0.00    -0.298 OA
HETATM    2  C   UNK N   1      42.528  43.181  44.906  0.00  0.00     0.131 C 
HETATM    3  C   UNK N   1      41.998  42.627  46.218  0.00  0.00     0.056 C 
HETATM    4  C   UNK N   1      41.955  43.808  47.241  0.00  0.00     0.005 C 
HETATM    5  C   UNK N   1      41.133  45.030  46.676  0.00  0.00    -0.039 C 
HETATM    6  C   UNK N   1      41.770  45.486  45.327  0.00  0.00     0.017 C 
HETATM    7  C   UNK N   1      41.825  44.353  44.290  0.00  0.00     0.079 C 
HETATM    8  C   UNK N   1      41.253  46.206  47.688  0.00  0.00     0.010 C 
HETATM    9  C   UNK N   1      40.759  45.825  49.093  0.00  0.00     0.010 C 
HETATM   10  C   UNK N   1      41.530  44.593  49.625  0.00  0.00     0.025 C 
HETATM   11  C   UNK N   1      41.446  43.400  48.650  0.00  0.00     0.015 C 
HETATM   12  C   UNK N   1      39.629  44.689  46.447  0.00  0.00     0.015 C 
HETATM   13  C   UNK N   1      42.856  41.443  46.705  0.00  0.00     0.018 C 
ENDROOT
BRANCH  10  14
HETATM   14  C   UNK N   1      41.129  44.167  51.039  0.00  0.00     0.010 C 
HETATM   15  C   UNK N   1      40.108  43.312  51.263  0.00  0.00     0.026 C 
BRANCH  14  16
HETATM   16  C   UNK N   1      41.917  44.680  52.199  0.00  0.00     0.171 C 
HETATM   17  O   UNK N   1      42.444  45.782  52.154  0.00  0.00    -0.646 OA
BRANCH  16  18
HETATM   18  O   UNK N   1      42.027  43.935  53.322  0.00  0.00    -0.773 OA
HETATM   19  H   UNK N   1      41.592  43.073  53.392  0.00  0.00     0.167 HD
ENDBRANCH  16  18
ENDBRANCH  14  16
ENDBRANCH  10  14
TORSDOF 3
ENDMDL
MODEL 3
REMARK VINA RESULT:      -6.5      1.414      2.860
REMARK  3 active torsions:
REMARK  status: ('A' for Active; 'I' for Inactive)
REMARK    1  A    between atoms: C_10  and  C_11 
REMARK    2  A    between atoms: C_11  and  C_12 
REMARK    3  A    between atoms: C_12  and  O_14 
ROOT
HETATM    1  O   UNK N   1      41.554  45.648  44.642  0.00  0.00    -0.298 OA
HETATM    2  C   UNK N   1      41.381  46.267  45.681  0.00  0.00     0.131 C 
HETATM    3  C   UNK N   1      40.528  45.707  46.807  0.00  0.00     0.056 C 
HETATM    4  C   UNK N   1      41.432  45.626  48.081  0.00  0.00     0.005 C 
HETATM    5  C   UNK N   1      42.097  47.019  48.405  0.00  0.00    -0.039 C 
HETATM    6  C   UNK N   1      42.923  47.484  47.166  0.00  0.00     0.017 C 
HETATM    7  C   UNK N   1      42.069  47.582  45.893  0.00  0.00     0.079 C 
HETATM    8  C   UNK N   1      43.081  46.823  49.595  0.00  0.00     0.010 C 
HETATM    9  C   UNK N   1      42.387  46.252  50.842  0.00  0.00     0.010 C 
HETATM   10  C   UNK N   1      41.689  44.911  50.510  0.00  0.00     0.025 C 
HETATM   11  C   UNK N   1      40.707  45.053  49.329  0.00  0.00     0.015 C 
HETATM   12  C   UNK N   1      41.050  48.117  48.768  0.00  0.00     0.015 C 
HETATM   13  C   UNK N   1      39.921  44.346  46.417  0.00  0.00     0.018 C 
ENDROOT
BRANCH  10  14
HETATM   14  C   UNK N   1      41.005  44.248  51.708  0.00  0.00     0.010 C 
HETATM   15  C   UNK N   1      39.876  43.521  51.570  0.00  0.00     0.026 C 
BRANCH  14  16
HETATM   16  C   UNK N   1      41.629  44.377  53.059  0.00  0.00     0.171 C 
HETATM   17  O   UNK N   1      42.122  43.405  53.611  0.00  0.00    -0.646 OA
BRANCH  16  18
HETATM   18  O   UNK N   1      41.677  45.584  53.666  0.00  0.00    -0.773 OA
HETATM   19  H   UNK N   1      41.249  45.728  54.522  0.00  0.00     0.167 HD
ENDBRANCH  16  18
ENDBRANCH  14  16
ENDBRANCH  10  14
TORSDOF 3
ENDMDL
MODEL 4
REMARK VINA RESULT:      -6.4      3.295      5.689
REMARK  3 active torsions:
REMARK  status: ('A' for Active; 'I' for Inactive)
REMARK    1  A    between atoms: C_10  and  C_11 
REMARK    2  A    between atoms: C_11  and  C_12 
REMARK    3  A    between atoms: C_12  and  O_14 
ROOT
HETATM    1  O   UNK N   1      38.076  45.912  48.711  0.00  0.00    -0.298 OA
HETATM    2  C   UNK N   1      39.187  46.028  48.216  0.00  0.00     0.131 C 
HETATM    3  C   UNK N   1      40.285  45.013  48.484  0.00  0.00     0.056 C 
HETATM    4  C   UNK N   1      40.735  44.436  47.102  0.00  0.00     0.005 C 
HETATM    5  C   UNK N   1      41.147  45.586  46.104  0.00  0.00    -0.039 C 
HETATM    6  C   UNK N   1      39.942  46.563  45.934  0.00  0.00     0.017 C 
HETATM    7  C   UNK N   1      39.473  47.156  47.271  0.00  0.00     0.079 C 
HETATM    8  C   UNK N   1      41.448  44.944  44.719  0.00  0.00     0.010 C 
HETATM    9  C   UNK N   1      42.548  43.874  44.794  0.00  0.00     0.010 C 
HETATM   10  C   UNK N   1      42.167  42.772  45.812  0.00  0.00     0.025 C 
HETATM   11  C   UNK N   1      41.853  43.363  47.203  0.00  0.00     0.015 C 
HETATM   12  C   UNK N   1      42.394  46.387  46.590  0.00  0.00     0.015 C 
HETATM   13  C   UNK N   1      39.805  43.922  49.459  0.00  0.00     0.018 C 
ENDROOT
BRANCH  10  14
HETATM   14  C   UNK N   1      43.191  41.640  45.922  0.00  0.00     0.010 C 
HETATM   15  C   UNK N   1      42.871  40.440  46.451  0.00  0.00     0.026 C 
BRANCH  14  16
HETATM   16  C   UNK N   1      44.569  41.859  45.392  0.00  0.00     0.171 C 
HETATM   17  O   UNK N   1      45.454  42.289  46.118  0.00  0.00    -0.646 OA
BRANCH  16  18
HETATM   18  O   UNK N   1      44.854  41.551  44.107  0.00  0.00    -0.773 OA
HETATM   19  H   UNK N   1      45.051  42.245  43.461  0.00  0.00     0.167 HD
ENDBRANCH  16  18
ENDBRANCH  14  16
ENDBRANCH  10  14
TORSDOF 3
ENDMDL
MODEL 5
REMARK VINA RESULT:      -6.3      1.713      2.626
REMARK  3 active torsions:
REMARK  status: ('A' for Active; 'I' for Inactive)
REMARK    1  A    between atoms: C_10  and  C_11 
REMARK    2  A    between atoms: C_11  and  C_12 
REMARK    3  A    between atoms: C_12  and  O_14 
ROOT
HETATM    1  O   UNK N   1      38.571  45.701  45.841  0.00  0.00    -0.298 OA
HETATM    2  C   UNK N   1      39.487  45.885  46.630  0.00  0.00     0.131 C 
HETATM    3  C   UNK N   1      39.240  45.981  48.126  0.00  0.00     0.056 C 
HETATM    4  C   UNK N   1      40.092  44.865  48.813  0.00  0.00     0.005 C 
HETATM    5  C   UNK N   1      41.612  44.965  48.401  0.00  0.00    -0.039 C 
HETATM    6  C   UNK N   1      41.720  44.871  46.847  0.00  0.00     0.017 C 
HETATM    7  C   UNK N   1      40.900  45.956  46.134  0.00  0.00     0.079 C 
HETATM    8  C   UNK N   1      42.362  43.746  49.012  0.00  0.00     0.010 C 
HETATM    9  C   UNK N   1      42.220  43.675  50.540  0.00  0.00     0.010 C 
HETATM   10  C   UNK N   1      40.727  43.631  50.947  0.00  0.00     0.025 C 
HETATM   11  C   UNK N   1      39.938  44.818  50.357  0.00  0.00     0.015 C 
HETATM   12  C   UNK N   1      42.281  46.287  48.885  0.00  0.00     0.015 C 
HETATM   13  C   UNK N   1      37.737  45.870  48.447  0.00  0.00     0.018 C 
ENDROOT
BRANCH  10  14
HETATM   14  C   UNK N   1      40.492  43.518  52.455  0.00  0.00     0.010 C 
HETATM   15  C   UNK N   1      39.386  42.930  52.961  0.00  0.00     0.026 C 
BRANCH  14  16
HETATM   16  C   UNK N   1      41.534  44.036  53.389  0.00  0.00     0.171 C 
HETATM   17  O   UNK N   1      42.244  43.265  54.018  0.00  0.00    -0.646 OA
BRANCH  16  18
HETATM   18  O   UNK N   1      41.718  45.369  53.522  0.00  0.00    -0.773 OA
HETATM   19  H   UNK N   1      41.072  45.917  53.991  0.00  0.00     0.167 HD
ENDBRANCH  16  18
ENDBRANCH  14  16
ENDBRANCH  10  14
TORSDOF 3
ENDMDL
MODEL 6
REMARK VINA RESULT:      -6.0      3.466      7.238
REMARK  3 active torsions:
REMARK  status: ('A' for Active; 'I' for Inactive)
REMARK    1  A    between atoms: C_10  and  C_11 
REMARK    2  A    between atoms: C_11  and  C_12 
REMARK    3  A    between atoms: C_12  and  O_14 
ROOT
HETATM    1  O   UNK N   1      41.534  43.068  46.602  0.00  0.00    -0.298 OA
HETATM    2  C   UNK N   1      41.628  44.243  46.923  0.00  0.00     0.131 C 
HETATM    3  C   UNK N   1      41.847  45.335  45.889  0.00  0.00     0.056 C 
HETATM    4  C   UNK N   1      40.661  46.344  46.016  0.00  0.00     0.005 C 
HETATM    5  C   UNK N   1      40.512  46.875  47.495  0.00  0.00    -0.039 C 
HETATM    6  C   UNK N   1      40.311  45.658  48.450  0.00  0.00     0.017 C 
HETATM    7  C   UNK N   1      41.461  44.643  48.358  0.00  0.00     0.079 C 
HETATM    8  C   UNK N   1      39.235  47.761  47.567  0.00  0.00     0.010 C 
HETATM    9  C   UNK N   1      39.276  48.933  46.574  0.00  0.00     0.010 C 
HETATM   10  C   UNK N   1      39.475  48.415  45.128  0.00  0.00     0.025 C 
HETATM   11  C   UNK N   1      40.728  47.523  45.008  0.00  0.00     0.015 C 
HETATM   12  C   UNK N   1      41.748  47.701  47.965  0.00  0.00     0.015 C 
HETATM   13  C   UNK N   1      41.976  44.739  44.474  0.00  0.00     0.018 C 
ENDROOT
BRANCH  10  14
HETATM   14  C   UNK N   1      39.487  49.516  44.065  0.00  0.00     0.010 C 
HETATM   15  C   UNK N   1      40.264  50.613  44.186  0.00  0.00     0.026 C 
BRANCH  14  16
HETATM   16  C   UNK N   1      38.647  49.348  42.843  0.00  0.00     0.171 C 
HETATM   17  O   UNK N   1      37.558  48.796  42.907  0.00  0.00    -0.646 OA
BRANCH  16  18
HETATM   18  O   UNK N   1      39.076  49.837  41.658  0.00  0.00    -0.773 OA
HETATM   19  H   UNK N   1      38.787  50.706  41.343  0.00  0.00     0.167 HD
ENDBRANCH  16  18
ENDBRANCH  14  16
ENDBRANCH  10  14
TORSDOF 3
ENDMDL
MODEL 7
REMARK VINA RESULT:      -6.0      1.168      5.762
REMARK  3 active torsions:
REMARK  status: ('A' for Active; 'I' for Inactive)
REMARK    1  A    between atoms: C_10  and  C_11 
REMARK    2  A    between atoms: C_11  and  C_12 
REMARK    3  A    between atoms: C_12  and  O_14 
ROOT
HETATM    1  O   UNK N   1      41.788  43.336  52.532  0.00  0.00    -0.298 OA
HETATM    2  C   UNK N   1      41.116  43.824  51.635  0.00  0.00     0.131 C 
HETATM    3  C   UNK N   1      41.319  45.259  51.181  0.00  0.00     0.056 C 
HETATM    4  C   UNK N   1      41.664  45.223  49.657  0.00  0.00     0.005 C 
HETATM    5  C   UNK N   1      40.571  44.434  48.837  0.00  0.00    -0.039 C 
HETATM    6  C   UNK N   1      40.451  42.990  49.416  0.00  0.00     0.017 C 
HETATM    7  C   UNK N   1      40.107  42.982  50.913  0.00  0.00     0.079 C 
HETATM    8  C   UNK N   1      41.053  44.325  47.362  0.00  0.00     0.010 C 
HETATM    9  C   UNK N   1      41.318  45.700  46.728  0.00  0.00     0.010 C 
HETATM   10  C   UNK N   1      42.352  46.494  47.561  0.00  0.00     0.025 C 
HETATM   11  C   UNK N   1      41.919  46.623  49.037  0.00  0.00     0.015 C 
HETATM   12  C   UNK N   1      39.173  45.124  48.880  0.00  0.00     0.015 C 
HETATM   13  C   UNK N   1      42.404  45.958  52.023  0.00  0.00     0.018 C 
ENDROOT
BRANCH  10  14
HETATM   14  C   UNK N   1      42.706  47.864  46.978  0.00  0.00     0.010 C 
HETATM   15  C   UNK N   1      43.904  48.445  47.204  0.00  0.00     0.026 C 
BRANCH  14  16
HETATM   16  C   UNK N   1      41.715  48.555  46.102  0.00  0.00     0.171 C 
HETATM   17  O   UNK N   1      40.517  48.474  46.334  0.00  0.00    -0.646 OA
BRANCH  16  18
HETATM   18  O   UNK N   1      42.141  49.304  45.061  0.00  0.00    -0.773 OA
HETATM   19  H   UNK N   1      42.212  48.926  44.172  0.00  0.00     0.167 HD
ENDBRANCH  16  18
ENDBRANCH  14  16
ENDBRANCH  10  14
TORSDOF 3
ENDMDL
MODEL 8
REMARK VINA RESULT:      -5.9     12.598     15.125
REMARK  3 active torsions:
REMARK  status: ('A' for Active; 'I' for Inactive)
REMARK    1  A    between atoms: C_10  and  C_11 
REMARK    2  A    between atoms: C_11  and  C_12 
REMARK    3  A    between atoms: C_12  and  O_14 
ROOT
HETATM    1  O   UNK N   1      33.297  49.402  44.020  0.00  0.00    -0.298 OA
HETATM    2  C   UNK N   1      33.481  50.602  43.874  0.00  0.00     0.131 C 
HETATM    3  C   UNK N   1      32.742  51.395  42.809  0.00  0.00     0.056 C 
HETATM    4  C   UNK N   1      31.957  52.534  43.537  0.00  0.00     0.005 C 
HETATM    5  C   UNK N   1      32.910  53.403  44.445  0.00  0.00    -0.039 C 
HETATM    6  C   UNK N   1      33.615  52.467  45.476  0.00  0.00     0.017 C 
HETATM    7  C   UNK N   1      34.403  51.336  44.800  0.00  0.00     0.079 C 
HETATM    8  C   UNK N   1      32.036  54.420  45.235  0.00  0.00     0.010 C 
HETATM    9  C   UNK N   1      31.203  55.320  44.309  0.00  0.00     0.010 C 
HETATM   10  C   UNK N   1      30.306  54.466  43.381  0.00  0.00     0.025 C 
HETATM   11  C   UNK N   1      31.129  53.435  42.581  0.00  0.00     0.015 C 
HETATM   12  C   UNK N   1      33.991  54.170  43.623  0.00  0.00     0.015 C 
HETATM   13  C   UNK N   1      31.830  50.480  41.971  0.00  0.00     0.018 C 
ENDROOT
BRANCH  10  14
HETATM   14  C   UNK N   1      29.409  55.285  42.450  0.00  0.00     0.010 C 
HETATM   15  C   UNK N   1      29.801  56.477  41.952  0.00  0.00     0.026 C 
BRANCH  14  16
HETATM   16  C   UNK N   1      28.082  54.729  42.052  0.00  0.00     0.171 C 
HETATM   17  O   UNK N   1      27.972  54.039  41.049  0.00  0.00    -0.646 OA
BRANCH  16  18
HETATM   18  O   UNK N   1      26.995  54.963  42.821  0.00  0.00    -0.773 OA
HETATM   19  H   UNK N   1      26.917  55.777  43.339  0.00  0.00     0.167 HD
ENDBRANCH  16  18
ENDBRANCH  14  16
ENDBRANCH  10  14
TORSDOF 3
ENDMDL
MODEL 9
REMARK VINA RESULT:      -5.8      2.605      6.515
REMARK  3 active torsions:
REMARK  status: ('A' for Active; 'I' for Inactive)
REMARK    1  A    between atoms: C_10  and  C_11 
REMARK    2  A    between atoms: C_11  and  C_12 
REMARK    3  A    between atoms: C_12  and  O_14 
ROOT
HETATM    1  O   UNK N   1      43.046  45.097  49.934  0.00  0.00    -0.298 OA
HETATM    2  C   UNK N   1      41.879  45.339  49.663  0.00  0.00     0.131 C 
HETATM    3  C   UNK N   1      41.421  46.743  49.307  0.00  0.00     0.056 C 
HETATM    4  C   UNK N   1      40.782  46.678  47.882  0.00  0.00     0.005 C 
HETATM    5  C   UNK N   1      39.643  45.588  47.809  0.00  0.00    -0.039 C 
HETATM    6  C   UNK N   1      40.242  44.205  48.214  0.00  0.00     0.017 C 
HETATM    7  C   UNK N   1      40.876  44.226  49.613  0.00  0.00     0.079 C 
HETATM    8  C   UNK N   1      39.156  45.490  46.335  0.00  0.00     0.010 C 
HETATM    9  C   UNK N   1      38.651  46.837  45.793  0.00  0.00     0.010 C 
HETATM   10  C   UNK N   1      39.751  47.919  45.912  0.00  0.00     0.025 C 
HETATM   11  C   UNK N   1      40.272  48.048  47.359  0.00  0.00     0.015 C 
HETATM   12  C   UNK N   1      38.434  45.918  48.738  0.00  0.00     0.015 C 
HETATM   13  C   UNK N   1      42.587  47.745  49.395  0.00  0.00     0.018 C 
ENDROOT
BRANCH  10  14
HETATM   14  C   UNK N   1      39.346  49.287  45.357  0.00  0.00     0.010 C 
HETATM   15  C   UNK N   1      38.763  50.225  46.133  0.00  0.00     0.026 C 
BRANCH  14  16
HETATM   16  C   UNK N   1      39.643  49.603  43.929  0.00  0.00     0.171 C 
HETATM   17  O   UNK N   1      39.466  48.766  43.056  0.00  0.00    -0.646 OA
BRANCH  16  18
HETATM   18  O   UNK N   1      40.084  50.835  43.589  0.00  0.00    -0.773 OA
HETATM   19  H   UNK N   1      39.463  51.533  43.331  0.00  0.00     0.167 HD
ENDBRANCH  16  18
ENDBRANCH  14  16
ENDBRANCH  10  14
TORSDOF 3
ENDMDL
