MODEL 1
REMARK VINA RESULT:      -7.4      0.000      0.000
REMARK  8 active torsions:
REMARK  status: ('A' for Active; 'I' for Inactive)
REMARK    1  A    between atoms: C_2  and  O_3 
REMARK    2  A    between atoms: C_2  and  C_17 
REMARK    3  A    between atoms: O_3  and  C_4 
REMARK    4  A    between atoms: C_11  and  O_12 
REMARK    5  A    between atoms: O_12  and  C_13 
REMARK    6  A    between atoms: C_17  and  C_18 
REMARK    7  A    between atoms: C_17  and  C_21 
REMARK    8  A    between atoms: C_18  and  O_19 
ROOT
HETATM    1  C   UNK N   1      40.556  46.310  47.692  0.00  0.00     0.136 C 
HETATM    2  C   UNK N   1      41.706  46.218  48.710  0.00  0.00     0.071 C 
HETATM    3  C   UNK N   1      41.657  44.878  49.498  0.00  0.00     0.255 C 
HETATM    4  N   UNK N   1      40.387  44.881  50.242  0.00  0.00     0.096 N 
HETATM    5  C   UNK N   1      40.349  43.912  51.351  0.00  0.00     0.310 C 
HETATM    6  C   UNK N   1      39.418  44.580  49.173  0.00  0.00     0.228 C 
HETATM    7  C   UNK N   1      40.065  43.467  48.322  0.00  0.00     0.070 C 
HETATM    8  C   UNK N   1      41.573  43.619  48.600  0.00  0.00     0.167 C 
HETATM    9  C   UNK N   1      39.232  45.884  48.354  0.00  0.00     0.068 C 
ENDROOT
BRANCH   1  10
HETATM   10  O   UNK N   1      40.474  47.597  47.197  0.00  0.00    -0.315 OA
BRANCH  10  11
HETATM   11  C   UNK N   1      40.019  47.933  45.959  0.00  0.00     0.270 C 
HETATM   12  O   UNK N   1      40.460  47.386  44.960  0.00  0.00    -0.264 OA
BRANCH  11  13
HETATM   13  C   UNK N   1      38.989  49.031  45.862  0.00  0.00     0.142 C 
BRANCH  13  14
HETATM   14  C   UNK N   1      39.065  50.084  46.991  0.00  0.00     0.183 C 
BRANCH  14  15
HETATM   15  O   UNK N   1      37.959  50.947  46.940  0.00  0.00    -0.400 OA
HETATM   16  H   UNK N   1      38.116  51.668  47.602  0.00  0.00     0.209 HD
ENDBRANCH  14  15
ENDBRANCH  13  14
BRANCH  13  17
HETATM   17  C   UNK N   1      39.084  49.657  44.483  0.00  0.00    -0.043 A 
HETATM   18  C   UNK N   1      40.019  50.682  44.244  0.00  0.00     0.008 A 
HETATM   19  C   UNK N   1      40.100  51.286  42.985  0.00  0.00     0.001 A 
HETATM   20  C   UNK N   1      39.264  50.864  41.948  0.00  0.00     0.000 A 
HETATM   21  C   UNK N   1      38.335  49.846  42.171  0.00  0.00     0.001 A 
HETATM   22  C   UNK N   1      38.233  49.252  43.433  0.00  0.00     0.008 A 
ENDBRANCH  13  17
ENDBRANCH  11  13
ENDBRANCH  10  11
ENDBRANCH   1  10
BRANCH   8  23
HETATM   23  O   UNK N   1      42.336  43.671  47.447  0.00  0.00    -0.314 OA
BRANCH  23  24
HETATM   24  C   UNK N   1      42.207  42.801  46.411  0.00  0.00     0.255 C 
HETATM   25  O   UNK N   1      42.551  41.633  46.526  0.00  0.00    -0.266 OA
HETATM   26  C   UNK N   1      41.613  43.278  45.125  0.00  0.00     0.126 C 
ENDBRANCH  23  24
ENDBRANCH   8  23
TORSDOF 8
ENDMDL
MODEL 2
REMARK VINA RESULT:      -6.9      9.998     13.581
REMARK  8 active torsions:
REMARK  status: ('A' for Active; 'I' for Inactive)
REMARK    1  A    between atoms: C_2  and  O_3 
REMARK    2  A    between atoms: C_2  and  C_17 
REMARK    3  A    between atoms: O_3  and  C_4 
REMARK    4  A    between atoms: C_11  and  O_12 
REMARK    5  A    between atoms: O_12  and  C_13 
REMARK    6  A    between atoms: C_17  and  C_18 
REMARK    7  A    between atoms: C_17  and  C_21 
REMARK    8  A    between atoms: C_18  and  O_19 
ROOT
HETATM    1  C   UNK N   1      30.620  54.983  41.844  0.00  0.00     0.136 C 
HETATM    2  C   UNK N   1      29.178  54.465  41.705  0.00  0.00     0.071 C 
HETATM    3  C   UNK N   1      28.862  54.060  40.237  0.00  0.00     0.255 C 
HETATM    4  N   UNK N   1      28.987  55.287  39.433  0.00  0.00     0.096 N 
HETATM    5  C   UNK N   1      28.330  55.201  38.117  0.00  0.00     0.310 C 
HETATM    6  C   UNK N   1      30.451  55.434  39.344  0.00  0.00     0.228 C 
HETATM    7  C   UNK N   1      30.999  54.016  39.080  0.00  0.00     0.070 C 
HETATM    8  C   UNK N   1      29.893  53.086  39.614  0.00  0.00     0.167 C 
HETATM    9  C   UNK N   1      30.932  55.982  40.713  0.00  0.00     0.068 C 
ENDROOT
BRANCH   1  10
HETATM   10  O   UNK N   1      30.789  55.567  43.085  0.00  0.00    -0.315 OA
BRANCH  10  11
HETATM   11  C   UNK N   1      31.279  54.938  44.187  0.00  0.00     0.270 C 
HETATM   12  O   UNK N   1      30.533  54.578  45.085  0.00  0.00    -0.264 OA
BRANCH  11  13
HETATM   13  C   UNK N   1      32.772  54.745  44.283  0.00  0.00     0.142 C 
BRANCH  13  14
HETATM   14  C   UNK N   1      33.443  55.497  45.454  0.00  0.00     0.183 C 
BRANCH  14  15
HETATM   15  O   UNK N   1      34.304  56.495  44.972  0.00  0.00    -0.400 OA
HETATM   16  H   UNK N   1      33.887  57.371  45.178  0.00  0.00     0.209 HD
ENDBRANCH  14  15
ENDBRANCH  13  14
BRANCH  13  17
HETATM   17  C   UNK N   1      33.061  53.255  44.312  0.00  0.00    -0.043 A 
HETATM   18  C   UNK N   1      34.030  52.749  45.200  0.00  0.00     0.008 A 
HETATM   19  C   UNK N   1      34.326  51.383  45.220  0.00  0.00     0.001 A 
HETATM   20  C   UNK N   1      33.649  50.505  44.370  0.00  0.00     0.000 A 
HETATM   21  C   UNK N   1      32.682  50.993  43.488  0.00  0.00     0.001 A 
HETATM   22  C   UNK N   1      32.396  52.361  43.447  0.00  0.00     0.008 A 
ENDBRANCH  13  17
ENDBRANCH  11  13
ENDBRANCH  10  11
ENDBRANCH   1  10
BRANCH   8  23
HETATM   23  O   UNK N   1      30.369  52.111  40.472  0.00  0.00    -0.314 OA
BRANCH  23  24
HETATM   24  C   UNK N   1      29.905  50.834  40.503  0.00  0.00     0.255 C 
HETATM   25  O   UNK N   1      28.741  50.583  40.224  0.00  0.00    -0.266 OA
HETATM   26  C   UNK N   1      30.841  49.724  40.859  0.00  0.00     0.126 C 
ENDBRANCH  23  24
ENDBRANCH   8  23
TORSDOF 8
ENDMDL
MODEL 3
REMARK VINA RESULT:      -6.4      1.822      3.177
REMARK  8 active torsions:
REMARK  status: ('A' for Active; 'I' for Inactive)
REMARK    1  A    between atoms: C_2  and  O_3 
REMARK    2  A    between atoms: C_2  and  C_17 
REMARK    3  A    between atoms: O_3  and  C_4 
REMARK    4  A    between atoms: C_11  and  O_12 
REMARK    5  A    between atoms: O_12  and  C_13 
REMARK    6  A    between atoms: C_17  and  C_18 
REMARK    7  A    between atoms: C_17  and  C_21 
REMARK    8  A    between atoms: C_18  and  O_19 
ROOT
HETATM    1  C   UNK N   1      40.647  46.944  47.280  0.00  0.00     0.136 C 
HETATM    2  C   UNK N   1      39.382  46.223  46.784  0.00  0.00     0.071 C 
HETATM    3  C   UNK N   1      39.614  44.688  46.671  0.00  0.00     0.255 C 
HETATM    4  N   UNK N   1      40.671  44.502  45.664  0.00  0.00     0.096 N 
HETATM    5  C   UNK N   1      40.734  43.134  45.120  0.00  0.00     0.310 C 
HETATM    6  C   UNK N   1      41.874  44.883  46.424  0.00  0.00     0.228 C 
HETATM    7  C   UNK N   1      41.710  44.241  47.818  0.00  0.00     0.070 C 
HETATM    8  C   UNK N   1      40.188  44.039  47.955  0.00  0.00     0.167 C 
HETATM    9  C   UNK N   1      41.881  46.431  46.511  0.00  0.00     0.068 C 
ENDROOT
BRANCH   1  10
HETATM   10  O   UNK N   1      40.497  48.308  47.128  0.00  0.00    -0.315 OA
BRANCH  10  11
HETATM   11  C   UNK N   1      40.339  48.951  45.939  0.00  0.00     0.270 C 
HETATM   12  O   UNK N   1      41.265  49.037  45.146  0.00  0.00    -0.264 OA
BRANCH  11  13
HETATM   13  C   UNK N   1      39.003  49.592  45.656  0.00  0.00     0.142 C 
BRANCH  13  14
HETATM   14  C   UNK N   1      38.644  50.768  46.592  0.00  0.00     0.183 C 
BRANCH  14  15
HETATM   15  O   UNK N   1      38.584  50.337  47.927  0.00  0.00    -0.400 OA
HETATM   16  H   UNK N   1      38.808  49.371  47.937  0.00  0.00     0.209 HD
ENDBRANCH  14  15
ENDBRANCH  13  14
BRANCH  13  17
HETATM   17  C   UNK N   1      38.960  49.986  44.191  0.00  0.00    -0.043 A 
HETATM   18  C   UNK N   1      38.111  49.296  43.307  0.00  0.00     0.008 A 
HETATM   19  C   UNK N   1      38.080  49.630  41.949  0.00  0.00     0.001 A 
HETATM   20  C   UNK N   1      38.882  50.665  41.463  0.00  0.00     0.000 A 
HETATM   21  C   UNK N   1      39.727  51.361  42.331  0.00  0.00     0.001 A 
HETATM   22  C   UNK N   1      39.778  51.018  43.685  0.00  0.00     0.008 A 
ENDBRANCH  13  17
ENDBRANCH  11  13
ENDBRANCH  10  11
ENDBRANCH   1  10
BRANCH   8  23
HETATM   23  O   UNK N   1      39.677  44.537  49.141  0.00  0.00    -0.314 OA
BRANCH  23  24
HETATM   24  C   UNK N   1      40.394  44.645  50.290  0.00  0.00     0.255 C 
HETATM   25  O   UNK N   1      41.072  45.638  50.515  0.00  0.00    -0.266 OA
HETATM   26  C   UNK N   1      40.329  43.544  51.299  0.00  0.00     0.126 C 
ENDBRANCH  23  24
ENDBRANCH   8  23
TORSDOF 8
ENDMDL
MODEL 4
REMARK VINA RESULT:      -6.2     10.630     15.200
REMARK  8 active torsions:
REMARK  status: ('A' for Active; 'I' for Inactive)
REMARK    1  A    between atoms: C_2  and  O_3 
REMARK    2  A    between atoms: C_2  and  C_17 
REMARK    3  A    between atoms: O_3  and  C_4 
REMARK    4  A    between atoms: C_11  and  O_12 
REMARK    5  A    between atoms: O_12  and  C_13 
REMARK    6  A    between atoms: C_17  and  C_18 
REMARK    7  A    between atoms: C_17  and  C_21 
REMARK    8  A    between atoms: C_18  and  O_19 
ROOT
HETATM    1  C   UNK N   1      29.810  55.534  42.614  0.00  0.00     0.136 C 
HETATM    2  C   UNK N   1      29.541  56.727  41.680  0.00  0.00     0.071 C 
HETATM    3  C   UNK N   1      28.430  56.393  40.643  0.00  0.00     0.255 C 
HETATM    4  N   UNK N   1      28.945  55.281  39.829  0.00  0.00     0.096 N 
HETATM    5  C   UNK N   1      28.233  55.106  38.551  0.00  0.00     0.310 C 
HETATM    6  C   UNK N   1      28.782  54.141  40.747  0.00  0.00     0.228 C 
HETATM    7  C   UNK N   1      27.400  54.328  41.407  0.00  0.00     0.070 C 
HETATM    8  C   UNK N   1      27.127  55.838  41.270  0.00  0.00     0.167 C 
HETATM    9  C   UNK N   1      29.926  54.237  41.791  0.00  0.00     0.068 C 
ENDROOT
BRANCH   1  10
HETATM   10  O   UNK N   1      30.959  55.765  43.345  0.00  0.00    -0.315 OA
BRANCH  10  11
HETATM   11  C   UNK N   1      31.476  54.922  44.280  0.00  0.00     0.270 C 
HETATM   12  O   UNK N   1      30.774  54.472  45.173  0.00  0.00    -0.264 OA
BRANCH  11  13
HETATM   13  C   UNK N   1      32.948  54.601  44.203  0.00  0.00     0.142 C 
BRANCH  13  14
HETATM   14  C   UNK N   1      33.806  55.254  45.310  0.00  0.00     0.183 C 
BRANCH  14  15
HETATM   15  O   UNK N   1      34.084  56.593  44.996  0.00  0.00    -0.400 OA
HETATM   16  H   UNK N   1      34.433  57.024  45.818  0.00  0.00     0.209 HD
ENDBRANCH  14  15
ENDBRANCH  13  14
BRANCH  13  17
HETATM   17  C   UNK N   1      33.109  53.093  44.162  0.00  0.00    -0.043 A 
HETATM   18  C   UNK N   1      32.312  52.329  43.288  0.00  0.00     0.008 A 
HETATM   19  C   UNK N   1      32.430  50.936  43.258  0.00  0.00     0.001 A 
HETATM   20  C   UNK N   1      33.353  50.291  44.086  0.00  0.00     0.000 A 
HETATM   21  C   UNK N   1      34.152  51.038  44.954  0.00  0.00     0.001 A 
HETATM   22  C   UNK N   1      34.025  52.429  45.005  0.00  0.00     0.008 A 
ENDBRANCH  13  17
ENDBRANCH  11  13
ENDBRANCH  10  11
ENDBRANCH   1  10
BRANCH   8  23
HETATM   23  O   UNK N   1      26.750  56.433  42.461  0.00  0.00    -0.314 OA
BRANCH  23  24
HETATM   24  C   UNK N   1      25.520  56.963  42.690  0.00  0.00     0.255 C 
HETATM   25  O   UNK N   1      24.538  56.551  42.088  0.00  0.00    -0.266 OA
HETATM   26  C   UNK N   1      25.367  58.045  43.709  0.00  0.00     0.126 C 
ENDBRANCH  23  24
ENDBRANCH   8  23
TORSDOF 8
ENDMDL
MODEL 5
REMARK VINA RESULT:      -6.1     10.112     14.402
REMARK  8 active torsions:
REMARK  status: ('A' for Active; 'I' for Inactive)
REMARK    1  A    between atoms: C_2  and  O_3 
REMARK    2  A    between atoms: C_2  and  C_17 
REMARK    3  A    between atoms: O_3  and  C_4 
REMARK    4  A    between atoms: C_11  and  O_12 
REMARK    5  A    between atoms: O_12  and  C_13 
REMARK    6  A    between atoms: C_17  and  C_18 
REMARK    7  A    between atoms: C_17  and  C_21 
REMARK    8  A    between atoms: C_18  and  O_19 
ROOT
HETATM    1  C   UNK N   1      29.817  54.916  42.652  0.00  0.00     0.136 C 
HETATM    2  C   UNK N   1      28.360  54.707  42.203  0.00  0.00     0.071 C 
HETATM    3  C   UNK N   1      28.070  55.445  40.864  0.00  0.00     0.255 C 
HETATM    4  N   UNK N   1      28.265  56.878  41.130  0.00  0.00     0.096 N 
HETATM    5  C   UNK N   1      27.642  57.757  40.124  0.00  0.00     0.310 C 
HETATM    6  C   UNK N   1      29.735  56.977  41.158  0.00  0.00     0.228 C 
HETATM    7  C   UNK N   1      30.236  56.110  39.983  0.00  0.00     0.070 C 
HETATM    8  C   UNK N   1      29.079  55.123  39.734  0.00  0.00     0.167 C 
HETATM    9  C   UNK N   1      30.199  56.403  42.523  0.00  0.00     0.068 C 
ENDROOT
BRANCH   1  10
HETATM   10  O   UNK N   1      29.972  54.472  43.950  0.00  0.00    -0.315 OA
BRANCH  10  11
HETATM   11  C   UNK N   1      31.163  54.331  44.593  0.00  0.00     0.270 C 
HETATM   12  O   UNK N   1      31.232  54.419  45.810  0.00  0.00    -0.264 OA
BRANCH  11  13
HETATM   13  C   UNK N   1      32.396  54.112  43.751  0.00  0.00     0.142 C 
BRANCH  13  14
HETATM   14  C   UNK N   1      33.594  55.015  44.121  0.00  0.00     0.183 C 
BRANCH  14  15
HETATM   15  O   UNK N   1      33.152  56.199  44.730  0.00  0.00    -0.400 OA
HETATM   16  H   UNK N   1      32.986  55.997  45.686  0.00  0.00     0.209 HD
ENDBRANCH  14  15
ENDBRANCH  13  14
BRANCH  13  17
HETATM   17  C   UNK N   1      32.750  52.636  43.796  0.00  0.00    -0.043 A 
HETATM   18  C   UNK N   1      32.066  51.729  42.964  0.00  0.00     0.008 A 
HETATM   19  C   UNK N   1      32.362  50.364  43.013  0.00  0.00     0.001 A 
HETATM   20  C   UNK N   1      33.353  49.890  43.876  0.00  0.00     0.000 A 
HETATM   21  C   UNK N   1      34.042  50.780  44.703  0.00  0.00     0.001 A 
HETATM   22  C   UNK N   1      33.736  52.144  44.676  0.00  0.00     0.008 A 
ENDBRANCH  13  17
ENDBRANCH  11  13
ENDBRANCH  10  11
ENDBRANCH   1  10
BRANCH   8  23
HETATM   23  O   UNK N   1      29.493  53.804  39.676  0.00  0.00    -0.314 OA
BRANCH  23  24
HETATM   24  C   UNK N   1      28.921  52.863  38.879  0.00  0.00     0.255 C 
HETATM   25  O   UNK N   1      29.055  52.905  37.664  0.00  0.00    -0.266 OA
HETATM   26  C   UNK N   1      28.141  51.751  39.504  0.00  0.00     0.126 C 
ENDBRANCH  23  24
ENDBRANCH   8  23
TORSDOF 8
ENDMDL
MODEL 6
REMARK VINA RESULT:      -5.7      8.200     11.619
REMARK  8 active torsions:
REMARK  status: ('A' for Active; 'I' for Inactive)
REMARK    1  A    between atoms: C_2  and  O_3 
REMARK    2  A    between atoms: C_2  and  C_17 
REMARK    3  A    between atoms: O_3  and  C_4 
REMARK    4  A    between atoms: C_11  and  O_12 
REMARK    5  A    between atoms: O_12  and  C_13 
REMARK    6  A    between atoms: C_17  and  C_18 
REMARK    7  A    between atoms: C_17  and  C_21 
REMARK    8  A    between atoms: C_18  and  O_19 
ROOT
HETATM    1  C   UNK N   1      33.310  52.544  45.050  0.00  0.00     0.136 C 
HETATM    2  C   UNK N   1      33.934  53.441  43.967  0.00  0.00     0.071 C 
HETATM    3  C   UNK N   1      33.109  54.745  43.769  0.00  0.00     0.255 C 
HETATM    4  N   UNK N   1      31.778  54.326  43.304  0.00  0.00     0.096 N 
HETATM    5  C   UNK N   1      31.005  55.409  42.670  0.00  0.00     0.310 C 
HETATM    6  C   UNK N   1      31.171  53.832  44.552  0.00  0.00     0.228 C 
HETATM    7  C   UNK N   1      31.564  54.851  45.642  0.00  0.00     0.070 C 
HETATM    8  C   UNK N   1      32.832  55.522  45.080  0.00  0.00     0.167 C 
HETATM    9  C   UNK N   1      31.788  52.436  44.831  0.00  0.00     0.068 C 
ENDROOT
BRANCH   1  10
HETATM   10  O   UNK N   1      33.906  51.298  45.024  0.00  0.00    -0.315 OA
BRANCH  10  11
HETATM   11  C   UNK N   1      33.327  50.162  44.550  0.00  0.00     0.270 C 
HETATM   12  O   UNK N   1      32.569  49.507  45.250  0.00  0.00    -0.264 OA
BRANCH  11  13
HETATM   13  C   UNK N   1      33.688  49.716  43.154  0.00  0.00     0.142 C 
BRANCH  13  14
HETATM   14  C   UNK N   1      34.306  48.302  43.073  0.00  0.00     0.183 C 
BRANCH  14  15
HETATM   15  O   UNK N   1      35.691  48.379  42.859  0.00  0.00    -0.400 OA
HETATM   16  H   UNK N   1      36.107  47.619  43.341  0.00  0.00     0.209 HD
ENDBRANCH  14  15
ENDBRANCH  13  14
BRANCH  13  17
HETATM   17  C   UNK N   1      32.461  49.862  42.273  0.00  0.00    -0.043 A 
HETATM   18  C   UNK N   1      32.134  51.121  41.734  0.00  0.00     0.008 A 
HETATM   19  C   UNK N   1      30.993  51.277  40.942  0.00  0.00     0.001 A 
HETATM   20  C   UNK N   1      30.176  50.178  40.663  0.00  0.00     0.000 A 
HETATM   21  C   UNK N   1      30.492  48.923  41.187  0.00  0.00     0.001 A 
HETATM   22  C   UNK N   1      31.619  48.764  41.998  0.00  0.00     0.008 A 
ENDBRANCH  13  17
ENDBRANCH  11  13
ENDBRANCH  10  11
ENDBRANCH   1  10
BRANCH   8  23
HETATM   23  O   UNK N   1      33.881  55.544  45.981  0.00  0.00    -0.314 OA
BRANCH  23  24
HETATM   24  C   UNK N   1      34.439  56.683  46.469  0.00  0.00     0.255 C 
HETATM   25  O   UNK N   1      34.436  57.714  45.812  0.00  0.00    -0.266 OA
HETATM   26  C   UNK N   1      35.041  56.674  47.837  0.00  0.00     0.126 C 
ENDBRANCH  23  24
ENDBRANCH   8  23
TORSDOF 8
ENDMDL
MODEL 7
REMARK VINA RESULT:      -5.6      2.101      7.638
REMARK  8 active torsions:
REMARK  status: ('A' for Active; 'I' for Inactive)
REMARK    1  A    between atoms: C_2  and  O_3 
REMARK    2  A    between atoms: C_2  and  C_17 
REMARK    3  A    between atoms: O_3  and  C_4 
REMARK    4  A    between atoms: C_11  and  O_12 
REMARK    5  A    between atoms: O_12  and  C_13 
REMARK    6  A    between atoms: C_17  and  C_18 
REMARK    7  A    between atoms: C_17  and  C_21 
REMARK    8  A    between atoms: C_18  and  O_19 
ROOT
HETATM    1  C   UNK N   1      40.833  46.488  48.181  0.00  0.00     0.136 C 
HETATM    2  C   UNK N   1      41.854  46.190  47.069  0.00  0.00     0.071 C 
HETATM    3  C   UNK N   1      41.144  45.804  45.739  0.00  0.00     0.255 C 
HETATM    4  N   UNK N   1      40.394  44.568  46.014  0.00  0.00     0.096 N 
HETATM    5  C   UNK N   1      40.007  43.829  44.800  0.00  0.00     0.310 C 
HETATM    6  C   UNK N   1      39.242  45.084  46.773  0.00  0.00     0.228 C 
HETATM    7  C   UNK N   1      38.800  46.369  46.043  0.00  0.00     0.070 C 
HETATM    8  C   UNK N   1      40.064  46.815  45.282  0.00  0.00     0.167 C 
HETATM    9  C   UNK N   1      39.749  45.393  48.206  0.00  0.00     0.068 C 
ENDROOT
BRANCH   1  10
HETATM   10  O   UNK N   1      41.482  46.575  49.397  0.00  0.00    -0.315 OA
BRANCH  10  11
HETATM   11  C   UNK N   1      42.024  45.527  50.073  0.00  0.00     0.270 C 
HETATM   12  O   UNK N   1      43.158  45.591  50.523  0.00  0.00    -0.264 OA
BRANCH  11  13
HETATM   13  C   UNK N   1      41.198  44.271  50.207  0.00  0.00     0.142 C 
BRANCH  13  14
HETATM   14  C   UNK N   1      41.835  43.014  49.574  0.00  0.00     0.183 C 
BRANCH  14  15
HETATM   15  O   UNK N   1      42.705  43.371  48.532  0.00  0.00    -0.400 OA
HETATM   16  H   UNK N   1      43.182  42.548  48.250  0.00  0.00     0.209 HD
ENDBRANCH  14  15
ENDBRANCH  13  14
BRANCH  13  17
HETATM   17  C   UNK N   1      40.862  44.072  51.673  0.00  0.00    -0.043 A 
HETATM   18  C   UNK N   1      41.524  44.839  52.651  0.00  0.00     0.008 A 
HETATM   19  C   UNK N   1      41.245  44.648  54.008  0.00  0.00     0.001 A 
HETATM   20  C   UNK N   1      40.291  43.706  54.403  0.00  0.00     0.000 A 
HETATM   21  C   UNK N   1      39.624  42.943  53.443  0.00  0.00     0.001 A 
HETATM   22  C   UNK N   1      39.914  43.113  52.086  0.00  0.00     0.008 A 
ENDBRANCH  13  17
ENDBRANCH  11  13
ENDBRANCH  10  11
ENDBRANCH   1  10
BRANCH   8  23
HETATM   23  O   UNK N   1      40.382  48.146  45.489  0.00  0.00    -0.314 OA
BRANCH  23  24
HETATM   24  C   UNK N   1      39.726  49.183  44.907  0.00  0.00     0.255 C 
HETATM   25  O   UNK N   1      39.801  49.374  43.701  0.00  0.00    -0.266 OA
HETATM   26  C   UNK N   1      38.884  50.084  45.752  0.00  0.00     0.126 C 
ENDBRANCH  23  24
ENDBRANCH   8  23
TORSDOF 8
ENDMDL
MODEL 8
REMARK VINA RESULT:      -5.5     13.795     15.211
REMARK  8 active torsions:
REMARK  status: ('A' for Active; 'I' for Inactive)
REMARK    1  A    between atoms: C_2  and  O_3 
REMARK    2  A    between atoms: C_2  and  C_17 
REMARK    3  A    between atoms: O_3  and  C_4 
REMARK    4  A    between atoms: C_11  and  O_12 
REMARK    5  A    between atoms: O_12  and  C_13 
REMARK    6  A    between atoms: C_17  and  C_18 
REMARK    7  A    between atoms: C_17  and  C_21 
REMARK    8  A    between atoms: C_18  and  O_19 
ROOT
HETATM    1  C   UNK N   1      30.162  45.382  58.785  0.00  0.00     0.136 C 
HETATM    2  C   UNK N   1      31.216  45.376  57.664  0.00  0.00     0.071 C 
HETATM    3  C   UNK N   1      31.879  43.976  57.520  0.00  0.00     0.255 C 
HETATM    4  N   UNK N   1      32.565  43.708  58.794  0.00  0.00     0.096 N 
HETATM    5  C   UNK N   1      33.581  42.645  58.706  0.00  0.00     0.310 C 
HETATM    6  C   UNK N   1      31.433  43.361  59.671  0.00  0.00     0.228 C 
HETATM    7  C   UNK N   1      30.515  42.450  58.830  0.00  0.00     0.070 C 
HETATM    8  C   UNK N   1      30.869  42.810  57.375  0.00  0.00     0.167 C 
HETATM    9  C   UNK N   1      30.726  44.691  60.042  0.00  0.00     0.068 C 
ENDROOT
BRANCH   1  10
HETATM   10  O   UNK N   1      29.780  46.680  59.059  0.00  0.00    -0.315 OA
BRANCH  10  11
HETATM   11  C   UNK N   1      28.751  47.338  58.459  0.00  0.00     0.270 C 
HETATM   12  O   UNK N   1      27.936  46.736  57.778  0.00  0.00    -0.264 OA
BRANCH  11  13
HETATM   13  C   UNK N   1      28.681  48.837  58.626  0.00  0.00     0.142 C 
BRANCH  13  14
HETATM   14  C   UNK N   1      29.339  49.369  59.919  0.00  0.00     0.183 C 
BRANCH  14  15
HETATM   15  O   UNK N   1      29.251  50.769  59.978  0.00  0.00    -0.400 OA
HETATM   16  H   UNK N   1      29.849  51.133  59.276  0.00  0.00     0.209 HD
ENDBRANCH  14  15
ENDBRANCH  13  14
BRANCH  13  17
HETATM   17  C   UNK N   1      29.252  49.485  57.378  0.00  0.00    -0.043 A 
HETATM   18  C   UNK N   1      28.416  50.251  56.544  0.00  0.00     0.008 A 
HETATM   19  C   UNK N   1      28.921  50.833  55.378  0.00  0.00     0.001 A 
HETATM   20  C   UNK N   1      30.267  50.672  55.038  0.00  0.00     0.000 A 
HETATM   21  C   UNK N   1      31.108  49.917  55.859  0.00  0.00     0.001 A 
HETATM   22  C   UNK N   1      30.605  49.315  57.016  0.00  0.00     0.008 A 
ENDBRANCH  13  17
ENDBRANCH  11  13
ENDBRANCH  10  11
ENDBRANCH   1  10
BRANCH   8  23
HETATM   23  O   UNK N   1      29.759  43.091  56.597  0.00  0.00    -0.314 OA
BRANCH  23  24
HETATM   24  C   UNK N   1      29.439  42.419  55.460  0.00  0.00     0.255 C 
HETATM   25  O   UNK N   1      28.304  42.461  55.006  0.00  0.00    -0.266 OA
HETATM   26  C   UNK N   1      30.498  41.642  54.747  0.00  0.00     0.126 C 
ENDBRANCH  23  24
ENDBRANCH   8  23
TORSDOF 8
ENDMDL
MODEL 9
REMARK VINA RESULT:      -5.5     13.588     15.633
REMARK  8 active torsions:
REMARK  status: ('A' for Active; 'I' for Inactive)
REMARK    1  A    between atoms: C_2  and  O_3 
REMARK    2  A    between atoms: C_2  and  C_17 
REMARK    3  A    between atoms: O_3  and  C_4 
REMARK    4  A    between atoms: C_11  and  O_12 
REMARK    5  A    between atoms: O_12  and  C_13 
REMARK    6  A    between atoms: C_17  and  C_18 
REMARK    7  A    between atoms: C_17  and  C_21 
REMARK    8  A    between atoms: C_18  and  O_19 
ROOT
HETATM    1  C   UNK N   1      30.643  45.691  57.735  0.00  0.00     0.136 C 
HETATM    2  C   UNK N   1      31.864  44.843  57.337  0.00  0.00     0.071 C 
HETATM    3  C   UNK N   1      31.832  43.448  58.025  0.00  0.00     0.255 C 
HETATM    4  N   UNK N   1      31.902  43.698  59.473  0.00  0.00     0.096 N 
HETATM    5  C   UNK N   1      32.301  42.517  60.258  0.00  0.00     0.310 C 
HETATM    6  C   UNK N   1      30.531  44.152  59.761  0.00  0.00     0.228 C 
HETATM    7  C   UNK N   1      29.601  43.215  58.962  0.00  0.00     0.070 C 
HETATM    8  C   UNK N   1      30.501  42.679  57.832  0.00  0.00     0.167 C 
HETATM    9  C   UNK N   1      30.426  45.616  59.259  0.00  0.00     0.068 C 
ENDROOT
BRANCH   1  10
HETATM   10  O   UNK N   1      30.827  46.996  57.321  0.00  0.00    -0.315 OA
BRANCH  10  11
HETATM   11  C   UNK N   1      29.898  47.986  57.415  0.00  0.00     0.270 C 
HETATM   12  O   UNK N   1      28.706  47.736  57.327  0.00  0.00    -0.264 OA
BRANCH  11  13
HETATM   13  C   UNK N   1      30.393  49.401  57.585  0.00  0.00     0.142 C 
BRANCH  13  14
HETATM   14  C   UNK N   1      30.544  50.190  56.265  0.00  0.00     0.183 C 
BRANCH  14  15
HETATM   15  O   UNK N   1      31.238  49.430  55.311  0.00  0.00    -0.400 OA
HETATM   16  H   UNK N   1      30.604  48.759  54.949  0.00  0.00     0.209 HD
ENDBRANCH  14  15
ENDBRANCH  13  14
BRANCH  13  17
HETATM   17  C   UNK N   1      29.491  50.108  58.580  0.00  0.00    -0.043 A 
HETATM   18  C   UNK N   1      28.746  51.231  58.173  0.00  0.00     0.008 A 
HETATM   19  C   UNK N   1      27.931  51.908  59.084  0.00  0.00     0.001 A 
HETATM   20  C   UNK N   1      27.835  51.464  60.406  0.00  0.00     0.000 A 
HETATM   21  C   UNK N   1      28.565  50.348  60.822  0.00  0.00     0.001 A 
HETATM   22  C   UNK N   1      29.399  49.679  59.921  0.00  0.00     0.008 A 
ENDBRANCH  13  17
ENDBRANCH  11  13
ENDBRANCH  10  11
ENDBRANCH   1  10
BRANCH   8  23
HETATM   23  O   UNK N   1      29.930  42.802  56.577  0.00  0.00    -0.314 OA
BRANCH  23  24
HETATM   24  C   UNK N   1      29.907  41.806  55.653  0.00  0.00     0.255 C 
HETATM   25  O   UNK N   1      29.018  40.966  55.658  0.00  0.00    -0.266 OA
HETATM   26  C   UNK N   1      30.970  41.758  54.603  0.00  0.00     0.126 C 
ENDBRANCH  23  24
ENDBRANCH   8  23
TORSDOF 8
ENDMDL
