MODEL 1
REMARK VINA RESULT:      -8.1      0.000      0.000
REMARK  9 active torsions:
REMARK  status: ('A' for Active; 'I' for Inactive)
REMARK    1  A    between atoms: C_2  and  O_3 
REMARK    2  A    between atoms: C_2  and  C_19 
REMARK    3  A    between atoms: O_3  and  C_4 
REMARK    4  A    between atoms: C_11  and  O_12 
REMARK    5  A    between atoms: O_12  and  C_13 
REMARK    6  A    between atoms: C_13  and  C_15 
REMARK    7  A    between atoms: C_19  and  C_20 
REMARK    8  A    between atoms: C_19  and  C_23 
REMARK    9  A    between atoms: C_20  and  O_21 
ROOT
HETATM    1  C   UNK N   1      41.148  46.421  47.779  0.00  0.00     0.136 C 
HETATM    2  C   UNK N   1      39.836  45.650  47.998  0.00  0.00     0.071 C 
HETATM    3  C   UNK N   1      40.048  44.407  48.908  0.00  0.00     0.255 C 
HETATM    4  N   UNK N   1      40.496  44.919  50.214  0.00  0.00     0.096 N 
HETATM    5  C   UNK N   1      40.341  43.953  51.313  0.00  0.00     0.310 C 
HETATM    6  C   UNK N   1      41.900  45.257  49.929  0.00  0.00     0.228 C 
HETATM    7  C   UNK N   1      42.451  44.091  49.081  0.00  0.00     0.070 C 
HETATM    8  C   UNK N   1      41.191  43.467  48.449  0.00  0.00     0.167 C 
HETATM    9  C   UNK N   1      41.883  46.588  49.130  0.00  0.00     0.068 C 
ENDROOT
BRANCH   1  10
HETATM   10  O   UNK N   1      40.868  47.643  47.192  0.00  0.00    -0.315 OA
BRANCH  10  11
HETATM   11  C   UNK N   1      40.271  47.808  45.982  0.00  0.00     0.270 C 
HETATM   12  O   UNK N   1      40.640  47.161  45.012  0.00  0.00    -0.264 OA
BRANCH  11  13
HETATM   13  C   UNK N   1      39.153  48.825  45.856  0.00  0.00     0.142 C 
BRANCH  13  14
HETATM   14  C   UNK N   1      39.121  49.825  47.027  0.00  0.00     0.183 C 
BRANCH  14  15
HETATM   15  O   UNK N   1      38.163  50.821  46.781  0.00  0.00    -0.400 OA
HETATM   16  H   UNK N   1      38.090  50.912  45.795  0.00  0.00     0.209 HD
ENDBRANCH  14  15
ENDBRANCH  13  14
BRANCH  13  17
HETATM   17  C   UNK N   1      39.196  49.554  44.520  0.00  0.00    -0.043 A 
HETATM   18  C   UNK N   1      38.301  49.187  43.497  0.00  0.00     0.008 A 
HETATM   19  C   UNK N   1      38.324  49.847  42.265  0.00  0.00     0.001 A 
HETATM   20  C   UNK N   1      39.240  50.878  42.038  0.00  0.00     0.000 A 
HETATM   21  C   UNK N   1      40.130  51.255  43.045  0.00  0.00     0.001 A 
HETATM   22  C   UNK N   1      40.110  50.602  44.281  0.00  0.00     0.008 A 
ENDBRANCH  13  17
ENDBRANCH  11  13
ENDBRANCH  10  11
ENDBRANCH   1  10
BRANCH   8  23
HETATM   23  O   UNK N   1      41.306  43.301  47.081  0.00  0.00    -0.313 OA
BRANCH  23  24
HETATM   24  C   UNK N   1      42.323  42.634  46.475  0.00  0.00     0.262 C 
HETATM   25  O   UNK N   1      42.624  41.501  46.825  0.00  0.00    -0.265 OA
BRANCH  24  26
HETATM   26  C   UNK N   1      43.046  43.290  45.327  0.00  0.00     0.077 C 
HETATM   27  C   UNK N   1      42.027  43.924  44.379  0.00  0.00     0.020 C 
HETATM   28  C   UNK N   1      43.940  42.289  44.584  0.00  0.00     0.020 C 
ENDBRANCH  24  26
ENDBRANCH  23  24
ENDBRANCH   8  23
TORSDOF 9
ENDMDL
MODEL 2
REMARK VINA RESULT:      -7.3      1.910      3.975
REMARK  9 active torsions:
REMARK  status: ('A' for Active; 'I' for Inactive)
REMARK    1  A    between atoms: C_2  and  O_3 
REMARK    2  A    between atoms: C_2  and  C_19 
REMARK    3  A    between atoms: O_3  and  C_4 
REMARK    4  A    between atoms: C_11  and  O_12 
REMARK    5  A    between atoms: O_12  and  C_13 
REMARK    6  A    between atoms: C_13  and  C_15 
REMARK    7  A    between atoms: C_19  and  C_20 
REMARK    8  A    between atoms: C_19  and  C_23 
REMARK    9  A    between atoms: C_20  and  O_21 
ROOT
HETATM    1  C   UNK N   1      40.687  46.778  48.092  0.00  0.00     0.136 C 
HETATM    2  C   UNK N   1      42.136  46.277  48.198  0.00  0.00     0.071 C 
HETATM    3  C   UNK N   1      42.193  44.755  48.514  0.00  0.00     0.255 C 
HETATM    4  N   UNK N   1      41.559  44.070  47.375  0.00  0.00     0.096 N 
HETATM    5  C   UNK N   1      41.890  42.639  47.286  0.00  0.00     0.310 C 
HETATM    6  C   UNK N   1      40.133  44.324  47.639  0.00  0.00     0.228 C 
HETATM    7  C   UNK N   1      39.940  44.108  49.155  0.00  0.00     0.070 C 
HETATM    8  C   UNK N   1      41.349  44.325  49.740  0.00  0.00     0.167 C 
HETATM    9  C   UNK N   1      39.860  45.796  47.229  0.00  0.00     0.068 C 
ENDROOT
BRANCH   1  10
HETATM   10  O   UNK N   1      40.684  48.057  47.559  0.00  0.00    -0.315 OA
BRANCH  10  11
HETATM   11  C   UNK N   1      40.401  48.361  46.264  0.00  0.00     0.270 C 
HETATM   12  O   UNK N   1      41.134  47.985  45.361  0.00  0.00    -0.264 OA
BRANCH  11  13
HETATM   13  C   UNK N   1      39.169  49.194  45.968  0.00  0.00     0.142 C 
BRANCH  13  14
HETATM   14  C   UNK N   1      38.941  50.314  47.001  0.00  0.00     0.183 C 
BRANCH  14  15
HETATM   15  O   UNK N   1      37.689  50.912  46.793  0.00  0.00    -0.400 OA
HETATM   16  H   UNK N   1      37.286  51.052  47.689  0.00  0.00     0.209 HD
ENDBRANCH  14  15
ENDBRANCH  13  14
BRANCH  13  17
HETATM   17  C   UNK N   1      39.191  49.757  44.553  0.00  0.00    -0.043 A 
HETATM   18  C   UNK N   1      40.000  50.870  44.258  0.00  0.00     0.008 A 
HETATM   19  C   UNK N   1      40.034  51.398  42.964  0.00  0.00     0.001 A 
HETATM   20  C   UNK N   1      39.261  50.825  41.951  0.00  0.00     0.000 A 
HETATM   21  C   UNK N   1      38.457  49.718  42.228  0.00  0.00     0.001 A 
HETATM   22  C   UNK N   1      38.421  49.181  43.519  0.00  0.00     0.008 A 
ENDBRANCH  13  17
ENDBRANCH  11  13
ENDBRANCH  10  11
ENDBRANCH   1  10
BRANCH   8  23
HETATM   23  O   UNK N   1      41.355  45.212  50.801  0.00  0.00    -0.313 OA
BRANCH  23  24
HETATM   24  C   UNK N   1      41.603  44.861  52.090  0.00  0.00     0.262 C 
HETATM   25  O   UNK N   1      42.239  45.601  52.829  0.00  0.00    -0.265 OA
BRANCH  24  26
HETATM   26  C   UNK N   1      41.040  43.566  52.616  0.00  0.00     0.077 C 
HETATM   27  C   UNK N   1      39.921  43.866  53.614  0.00  0.00     0.020 C 
HETATM   28  C   UNK N   1      42.132  42.701  53.259  0.00  0.00     0.020 C 
ENDBRANCH  24  26
ENDBRANCH  23  24
ENDBRANCH   8  23
TORSDOF 9
ENDMDL
MODEL 3
REMARK VINA RESULT:      -6.7      9.941     14.693
REMARK  9 active torsions:
REMARK  status: ('A' for Active; 'I' for Inactive)
REMARK    1  A    between atoms: C_2  and  O_3 
REMARK    2  A    between atoms: C_2  and  C_19 
REMARK    3  A    between atoms: O_3  and  C_4 
REMARK    4  A    between atoms: C_11  and  O_12 
REMARK    5  A    between atoms: O_12  and  C_13 
REMARK    6  A    between atoms: C_13  and  C_15 
REMARK    7  A    between atoms: C_19  and  C_20 
REMARK    8  A    between atoms: C_19  and  C_23 
REMARK    9  A    between atoms: C_20  and  O_21 
ROOT
HETATM    1  C   UNK N   1      30.848  54.637  42.630  0.00  0.00     0.136 C 
HETATM    2  C   UNK N   1      31.005  54.605  41.101  0.00  0.00     0.071 C 
HETATM    3  C   UNK N   1      29.871  55.401  40.393  0.00  0.00     0.255 C 
HETATM    4  N   UNK N   1      30.007  56.799  40.834  0.00  0.00     0.096 N 
HETATM    5  C   UNK N   1      29.312  57.764  39.966  0.00  0.00     0.310 C 
HETATM    6  C   UNK N   1      29.449  56.732  42.195  0.00  0.00     0.228 C 
HETATM    7  C   UNK N   1      28.189  55.845  42.090  0.00  0.00     0.070 C 
HETATM    8  C   UNK N   1      28.440  54.997  40.828  0.00  0.00     0.167 C 
HETATM    9  C   UNK N   1      30.536  56.080  43.090  0.00  0.00     0.068 C 
ENDROOT
BRANCH   1  10
HETATM   10  O   UNK N   1      32.003  54.148  43.217  0.00  0.00    -0.315 OA
BRANCH  10  11
HETATM   11  C   UNK N   1      32.092  52.981  43.910  0.00  0.00     0.270 C 
HETATM   12  O   UNK N   1      31.451  52.816  44.938  0.00  0.00    -0.264 OA
BRANCH  11  13
HETATM   13  C   UNK N   1      33.018  51.899  43.391  0.00  0.00     0.142 C 
BRANCH  13  14
HETATM   14  C   UNK N   1      33.832  51.221  44.510  0.00  0.00     0.183 C 
BRANCH  14  15
HETATM   15  O   UNK N   1      34.147  52.155  45.508  0.00  0.00    -0.400 OA
HETATM   16  H   UNK N   1      35.082  52.446  45.345  0.00  0.00     0.209 HD
ENDBRANCH  14  15
ENDBRANCH  13  14
BRANCH  13  17
HETATM   17  C   UNK N   1      32.273  50.864  42.558  0.00  0.00    -0.043 A 
HETATM   18  C   UNK N   1      31.520  51.278  41.444  0.00  0.00     0.008 A 
HETATM   19  C   UNK N   1      30.831  50.341  40.667  0.00  0.00     0.001 A 
HETATM   20  C   UNK N   1      30.885  48.983  40.992  0.00  0.00     0.000 A 
HETATM   21  C   UNK N   1      31.633  48.559  42.093  0.00  0.00     0.001 A 
HETATM   22  C   UNK N   1      32.327  49.489  42.872  0.00  0.00     0.008 A 
ENDBRANCH  13  17
ENDBRANCH  11  13
ENDBRANCH  10  11
ENDBRANCH   1  10
BRANCH   8  23
HETATM   23  O   UNK N   1      28.248  53.645  41.048  0.00  0.00    -0.313 OA
BRANCH  23  24
HETATM   24  C   UNK N   1      27.068  53.000  40.862  0.00  0.00     0.262 C 
HETATM   25  O   UNK N   1      26.073  53.321  41.499  0.00  0.00    -0.265 OA
BRANCH  24  26
HETATM   26  C   UNK N   1      26.984  51.912  39.824  0.00  0.00     0.077 C 
HETATM   27  C   UNK N   1      27.073  50.547  40.507  0.00  0.00     0.020 C 
HETATM   28  C   UNK N   1      28.079  52.067  38.760  0.00  0.00     0.020 C 
ENDBRANCH  24  26
ENDBRANCH  23  24
ENDBRANCH   8  23
TORSDOF 9
ENDMDL
MODEL 4
REMARK VINA RESULT:      -6.6     10.168     14.656
REMARK  9 active torsions:
REMARK  status: ('A' for Active; 'I' for Inactive)
REMARK    1  A    between atoms: C_2  and  O_3 
REMARK    2  A    between atoms: C_2  and  C_19 
REMARK    3  A    between atoms: O_3  and  C_4 
REMARK    4  A    between atoms: C_11  and  O_12 
REMARK    5  A    between atoms: O_12  and  C_13 
REMARK    6  A    between atoms: C_13  and  C_15 
REMARK    7  A    between atoms: C_19  and  C_20 
REMARK    8  A    between atoms: C_19  and  C_23 
REMARK    9  A    between atoms: C_20  and  O_21 
ROOT
HETATM    1  C   UNK N   1      30.527  52.572  41.320  0.00  0.00     0.136 C 
HETATM    2  C   UNK N   1      30.359  52.380  39.804  0.00  0.00     0.071 C 
HETATM    3  C   UNK N   1      29.135  53.172  39.261  0.00  0.00     0.255 C 
HETATM    4  N   UNK N   1      29.416  54.595  39.510  0.00  0.00     0.096 N 
HETATM    5  C   UNK N   1      28.594  55.511  38.702  0.00  0.00     0.310 C 
HETATM    6  C   UNK N   1      29.152  54.696  40.954  0.00  0.00     0.228 C 
HETATM    7  C   UNK N   1      27.865  53.882  41.206  0.00  0.00     0.070 C 
HETATM    8  C   UNK N   1      27.812  52.901  40.020  0.00  0.00     0.167 C 
HETATM    9  C   UNK N   1      30.377  54.070  41.675  0.00  0.00     0.068 C 
ENDROOT
BRANCH   1  10
HETATM   10  O   UNK N   1      31.759  52.073  41.709  0.00  0.00    -0.315 OA
BRANCH  10  11
HETATM   11  C   UNK N   1      31.947  50.956  42.461  0.00  0.00     0.270 C 
HETATM   12  O   UNK N   1      31.513  49.875  42.089  0.00  0.00    -0.264 OA
BRANCH  11  13
HETATM   13  C   UNK N   1      32.685  51.084  43.779  0.00  0.00     0.142 C 
BRANCH  13  14
HETATM   14  C   UNK N   1      34.113  50.508  43.723  0.00  0.00     0.183 C 
BRANCH  14  15
HETATM   15  O   UNK N   1      34.073  49.159  43.340  0.00  0.00    -0.400 OA
HETATM   16  H   UNK N   1      34.819  48.704  43.812  0.00  0.00     0.209 HD
ENDBRANCH  14  15
ENDBRANCH  13  14
BRANCH  13  17
HETATM   17  C   UNK N   1      32.698  52.519  44.287  0.00  0.00    -0.043 A 
HETATM   18  C   UNK N   1      31.561  53.039  44.934  0.00  0.00     0.008 A 
HETATM   19  C   UNK N   1      31.556  54.354  45.409  0.00  0.00     0.001 A 
HETATM   20  C   UNK N   1      32.682  55.165  45.243  0.00  0.00     0.000 A 
HETATM   21  C   UNK N   1      33.818  54.660  44.607  0.00  0.00     0.001 A 
HETATM   22  C   UNK N   1      33.832  53.345  44.134  0.00  0.00     0.008 A 
ENDBRANCH  13  17
ENDBRANCH  11  13
ENDBRANCH  10  11
ENDBRANCH   1  10
BRANCH   8  23
HETATM   23  O   UNK N   1      27.617  51.591  40.419  0.00  0.00    -0.313 OA
BRANCH  23  24
HETATM   24  C   UNK N   1      26.402  50.991  40.507  0.00  0.00     0.262 C 
HETATM   25  O   UNK N   1      25.858  50.835  41.592  0.00  0.00    -0.265 OA
BRANCH  24  26
HETATM   26  C   UNK N   1      25.705  50.562  39.242  0.00  0.00     0.077 C 
HETATM   27  C   UNK N   1      24.568  51.537  38.932  0.00  0.00     0.020 C 
HETATM   28  C   UNK N   1      25.181  49.124  39.351  0.00  0.00     0.020 C 
ENDBRANCH  24  26
ENDBRANCH  23  24
ENDBRANCH   8  23
TORSDOF 9
ENDMDL
MODEL 5
REMARK VINA RESULT:      -6.5     10.476     15.046
REMARK  9 active torsions:
REMARK  status: ('A' for Active; 'I' for Inactive)
REMARK    1  A    between atoms: C_2  and  O_3 
REMARK    2  A    between atoms: C_2  and  C_19 
REMARK    3  A    between atoms: O_3  and  C_4 
REMARK    4  A    between atoms: C_11  and  O_12 
REMARK    5  A    between atoms: O_12  and  C_13 
REMARK    6  A    between atoms: C_13  and  C_15 
REMARK    7  A    between atoms: C_19  and  C_20 
REMARK    8  A    between atoms: C_19  and  C_23 
REMARK    9  A    between atoms: C_20  and  O_21 
ROOT
HETATM    1  C   UNK N   1      30.020  55.648  42.301  0.00  0.00     0.136 C 
HETATM    2  C   UNK N   1      30.821  55.040  41.138  0.00  0.00     0.071 C 
HETATM    3  C   UNK N   1      30.005  55.052  39.814  0.00  0.00     0.255 C 
HETATM    4  N   UNK N   1      29.748  56.466  39.497  0.00  0.00     0.096 N 
HETATM    5  C   UNK N   1      29.370  56.699  38.093  0.00  0.00     0.310 C 
HETATM    6  C   UNK N   1      28.674  56.789  40.451  0.00  0.00     0.228 C 
HETATM    7  C   UNK N   1      27.715  55.580  40.430  0.00  0.00     0.070 C 
HETATM    8  C   UNK N   1      28.596  54.419  39.927  0.00  0.00     0.167 C 
HETATM    9  C   UNK N   1      29.349  56.962  41.838  0.00  0.00     0.068 C 
ENDROOT
BRANCH   1  10
HETATM   10  O   UNK N   1      30.865  55.855  43.379  0.00  0.00    -0.315 OA
BRANCH  10  11
HETATM   11  C   UNK N   1      31.368  54.874  44.174  0.00  0.00     0.270 C 
HETATM   12  O   UNK N   1      30.674  54.350  45.033  0.00  0.00    -0.264 OA
BRANCH  11  13
HETATM   13  C   UNK N   1      32.815  54.459  43.987  0.00  0.00     0.142 C 
BRANCH  13  14
HETATM   14  C   UNK N   1      33.763  55.115  45.009  0.00  0.00     0.183 C 
BRANCH  14  15
HETATM   15  O   UNK N   1      33.561  56.504  45.028  0.00  0.00    -0.400 OA
HETATM   16  H   UNK N   1      32.629  56.663  44.725  0.00  0.00     0.209 HD
ENDBRANCH  14  15
ENDBRANCH  13  14
BRANCH  13  17
HETATM   17  C   UNK N   1      32.977  52.945  43.991  0.00  0.00    -0.043 A 
HETATM   18  C   UNK N   1      32.199  52.158  43.121  0.00  0.00     0.008 A 
HETATM   19  C   UNK N   1      32.336  50.767  43.109  0.00  0.00     0.001 A 
HETATM   20  C   UNK N   1      33.249  50.145  43.965  0.00  0.00     0.000 A 
HETATM   21  C   UNK N   1      34.030  50.913  44.831  0.00  0.00     0.001 A 
HETATM   22  C   UNK N   1      33.901  52.304  44.845  0.00  0.00     0.008 A 
ENDBRANCH  13  17
ENDBRANCH  11  13
ENDBRANCH  10  11
ENDBRANCH   1  10
BRANCH   8  23
HETATM   23  O   UNK N   1      28.514  53.299  40.734  0.00  0.00    -0.313 OA
BRANCH  23  24
HETATM   24  C   UNK N   1      27.874  52.152  40.387  0.00  0.00     0.262 C 
HETATM   25  O   UNK N   1      28.495  51.202  39.930  0.00  0.00    -0.265 OA
BRANCH  24  26
HETATM   26  C   UNK N   1      26.389  52.044  40.620  0.00  0.00     0.077 C 
HETATM   27  C   UNK N   1      26.060  50.657  41.174  0.00  0.00     0.020 C 
HETATM   28  C   UNK N   1      25.599  52.324  39.335  0.00  0.00     0.020 C 
ENDBRANCH  24  26
ENDBRANCH  23  24
ENDBRANCH   8  23
TORSDOF 9
ENDMDL
MODEL 6
REMARK VINA RESULT:      -6.3     10.410     15.282
REMARK  9 active torsions:
REMARK  status: ('A' for Active; 'I' for Inactive)
REMARK    1  A    between atoms: C_2  and  O_3 
REMARK    2  A    between atoms: C_2  and  C_19 
REMARK    3  A    between atoms: O_3  and  C_4 
REMARK    4  A    between atoms: C_11  and  O_12 
REMARK    5  A    between atoms: O_12  and  C_13 
REMARK    6  A    between atoms: C_13  and  C_15 
REMARK    7  A    between atoms: C_19  and  C_20 
REMARK    8  A    between atoms: C_19  and  C_23 
REMARK    9  A    between atoms: C_20  and  O_21 
ROOT
HETATM    1  C   UNK N   1      28.656  51.942  40.106  0.00  0.00     0.136 C 
HETATM    2  C   UNK N   1      27.296  51.580  40.724  0.00  0.00     0.071 C 
HETATM    3  C   UNK N   1      26.220  52.659  40.409  0.00  0.00     0.255 C 
HETATM    4  N   UNK N   1      26.063  52.676  38.946  0.00  0.00     0.096 N 
HETATM    5  C   UNK N   1      24.815  53.310  38.491  0.00  0.00     0.310 C 
HETATM    6  C   UNK N   1      27.272  53.406  38.531  0.00  0.00     0.228 C 
HETATM    7  C   UNK N   1      27.419  54.578  39.524  0.00  0.00     0.070 C 
HETATM    8  C   UNK N   1      26.643  54.105  40.769  0.00  0.00     0.167 C 
HETATM    9  C   UNK N   1      28.456  52.407  38.644  0.00  0.00     0.068 C 
ENDROOT
BRANCH   1  10
HETATM   10  O   UNK N   1      29.499  50.846  40.185  0.00  0.00    -0.315 OA
BRANCH  10  11
HETATM   11  C   UNK N   1      30.767  50.872  40.676  0.00  0.00     0.270 C 
HETATM   12  O   UNK N   1      31.633  51.540  40.130  0.00  0.00    -0.264 OA
BRANCH  11  13
HETATM   13  C   UNK N   1      31.087  50.038  41.902  0.00  0.00     0.142 C 
BRANCH  13  14
HETATM   14  C   UNK N   1      31.426  48.575  41.559  0.00  0.00     0.183 C 
BRANCH  14  15
HETATM   15  O   UNK N   1      30.983  48.271  40.263  0.00  0.00    -0.400 OA
HETATM   16  H   UNK N   1      31.044  49.109  39.734  0.00  0.00     0.209 HD
ENDBRANCH  14  15
ENDBRANCH  13  14
BRANCH  13  17
HETATM   17  C   UNK N   1      32.188  50.667  42.745  0.00  0.00    -0.043 A 
HETATM   18  C   UNK N   1      31.957  51.899  43.386  0.00  0.00     0.008 A 
HETATM   19  C   UNK N   1      32.956  52.490  44.166  0.00  0.00     0.001 A 
HETATM   20  C   UNK N   1      34.194  51.861  44.315  0.00  0.00     0.000 A 
HETATM   21  C   UNK N   1      34.436  50.637  43.688  0.00  0.00     0.001 A 
HETATM   22  C   UNK N   1      33.440  50.038  42.910  0.00  0.00     0.008 A 
ENDBRANCH  13  17
ENDBRANCH  11  13
ENDBRANCH  10  11
ENDBRANCH   1  10
BRANCH   8  23
HETATM   23  O   UNK N   1      27.375  54.234  41.935  0.00  0.00    -0.313 OA
BRANCH  23  24
HETATM   24  C   UNK N   1      28.390  55.120  42.106  0.00  0.00     0.262 C 
HETATM   25  O   UNK N   1      28.168  56.322  42.171  0.00  0.00    -0.265 OA
BRANCH  24  26
HETATM   26  C   UNK N   1      29.795  54.601  42.266  0.00  0.00     0.077 C 
HETATM   27  C   UNK N   1      30.430  55.223  43.511  0.00  0.00     0.020 C 
HETATM   28  C   UNK N   1      30.642  54.883  41.018  0.00  0.00     0.020 C 
ENDBRANCH  24  26
ENDBRANCH  23  24
ENDBRANCH   8  23
TORSDOF 9
ENDMDL
MODEL 7
REMARK VINA RESULT:      -6.0     12.129     15.046
REMARK  9 active torsions:
REMARK  status: ('A' for Active; 'I' for Inactive)
REMARK    1  A    between atoms: C_2  and  O_3 
REMARK    2  A    between atoms: C_2  and  C_19 
REMARK    3  A    between atoms: O_3  and  C_4 
REMARK    4  A    between atoms: C_11  and  O_12 
REMARK    5  A    between atoms: O_12  and  C_13 
REMARK    6  A    between atoms: C_13  and  C_15 
REMARK    7  A    between atoms: C_19  and  C_20 
REMARK    8  A    between atoms: C_19  and  C_23 
REMARK    9  A    between atoms: C_20  and  O_21 
ROOT
HETATM    1  C   UNK N   1      28.510  54.079  39.895  0.00  0.00     0.136 C 
HETATM    2  C   UNK N   1      28.730  53.239  38.626  0.00  0.00     0.071 C 
HETATM    3  C   UNK N   1      27.745  52.037  38.559  0.00  0.00     0.255 C 
HETATM    4  N   UNK N   1      26.391  52.612  38.493  0.00  0.00     0.096 N 
HETATM    5  C   UNK N   1      25.371  51.670  38.004  0.00  0.00     0.310 C 
HETATM    6  C   UNK N   1      26.181  53.025  39.890  0.00  0.00     0.228 C 
HETATM    7  C   UNK N   1      26.724  51.869  40.758  0.00  0.00     0.070 C 
HETATM    8  C   UNK N   1      27.727  51.154  39.832  0.00  0.00     0.167 C 
HETATM    9  C   UNK N   1      26.997  54.329  40.096  0.00  0.00     0.068 C 
ENDROOT
BRANCH   1  10
HETATM   10  O   UNK N   1      29.216  55.265  39.784  0.00  0.00    -0.315 OA
BRANCH  10  11
HETATM   11  C   UNK N   1      30.476  55.469  40.254  0.00  0.00     0.270 C 
HETATM   12  O   UNK N   1      31.449  55.114  39.605  0.00  0.00    -0.264 OA
BRANCH  11  13
HETATM   13  C   UNK N   1      30.647  56.129  41.609  0.00  0.00     0.142 C 
BRANCH  13  14
HETATM   14  C   UNK N   1      29.360  56.813  42.108  0.00  0.00     0.183 C 
BRANCH  14  15
HETATM   15  O   UNK N   1      29.054  57.912  41.292  0.00  0.00    -0.400 OA
HETATM   16  H   UNK N   1      28.430  58.487  41.808  0.00  0.00     0.209 HD
ENDBRANCH  14  15
ENDBRANCH  13  14
BRANCH  13  17
HETATM   17  C   UNK N   1      31.184  55.156  42.651  0.00  0.00    -0.043 A 
HETATM   18  C   UNK N   1      30.982  53.774  42.482  0.00  0.00     0.008 A 
HETATM   19  C   UNK N   1      31.471  52.866  43.428  0.00  0.00     0.001 A 
HETATM   20  C   UNK N   1      32.163  53.327  44.551  0.00  0.00     0.000 A 
HETATM   21  C   UNK N   1      32.373  54.696  44.728  0.00  0.00     0.001 A 
HETATM   22  C   UNK N   1      31.892  55.608  43.785  0.00  0.00     0.008 A 
ENDBRANCH  13  17
ENDBRANCH  11  13
ENDBRANCH  10  11
ENDBRANCH   1  10
BRANCH   8  23
HETATM   23  O   UNK N   1      28.958  50.956  40.431  0.00  0.00    -0.313 OA
BRANCH  23  24
HETATM   24  C   UNK N   1      29.475  49.736  40.731  0.00  0.00     0.262 C 
HETATM   25  O   UNK N   1      28.744  48.766  40.881  0.00  0.00    -0.265 OA
BRANCH  24  26
HETATM   26  C   UNK N   1      30.971  49.580  40.828  0.00  0.00     0.077 C 
HETATM   27  C   UNK N   1      31.343  49.115  42.236  0.00  0.00     0.020 C 
HETATM   28  C   UNK N   1      31.695  50.884  40.470  0.00  0.00     0.020 C 
ENDBRANCH  24  26
ENDBRANCH  23  24
ENDBRANCH   8  23
TORSDOF 9
ENDMDL
MODEL 8
REMARK VINA RESULT:      -5.9      9.644     13.233
REMARK  9 active torsions:
REMARK  status: ('A' for Active; 'I' for Inactive)
REMARK    1  A    between atoms: C_2  and  O_3 
REMARK    2  A    between atoms: C_2  and  C_19 
REMARK    3  A    between atoms: O_3  and  C_4 
REMARK    4  A    between atoms: C_11  and  O_12 
REMARK    5  A    between atoms: O_12  and  C_13 
REMARK    6  A    between atoms: C_13  and  C_15 
REMARK    7  A    between atoms: C_19  and  C_20 
REMARK    8  A    between atoms: C_19  and  C_23 
REMARK    9  A    between atoms: C_20  and  O_21 
ROOT
HETATM    1  C   UNK N   1      30.808  54.427  43.395  0.00  0.00     0.136 C 
HETATM    2  C   UNK N   1      30.782  54.467  44.932  0.00  0.00     0.071 C 
HETATM    3  C   UNK N   1      32.219  54.429  45.528  0.00  0.00     0.255 C 
HETATM    4  N   UNK N   1      32.898  55.646  45.054  0.00  0.00     0.096 N 
HETATM    5  C   UNK N   1      34.093  56.001  45.837  0.00  0.00     0.310 C 
HETATM    6  C   UNK N   1      33.201  55.287  43.659  0.00  0.00     0.228 C 
HETATM    7  C   UNK N   1      33.700  53.827  43.699  0.00  0.00     0.070 C 
HETATM    8  C   UNK N   1      33.098  53.267  45.002  0.00  0.00     0.167 C 
HETATM    9  C   UNK N   1      31.872  55.417  42.867  0.00  0.00     0.068 C 
ENDROOT
BRANCH   1  10
HETATM   10  O   UNK N   1      29.545  54.724  42.910  0.00  0.00    -0.315 OA
BRANCH  10  11
HETATM   11  C   UNK N   1      29.263  55.718  42.027  0.00  0.00     0.270 C 
HETATM   12  O   UNK N   1      29.291  56.889  42.378  0.00  0.00    -0.264 OA
BRANCH  11  13
HETATM   13  C   UNK N   1      28.891  55.343  40.606  0.00  0.00     0.142 C 
BRANCH  13  14
HETATM   14  C   UNK N   1      30.035  55.590  39.604  0.00  0.00     0.183 C 
BRANCH  14  15
HETATM   15  O   UNK N   1      30.605  56.853  39.828  0.00  0.00    -0.400 OA
HETATM   16  H   UNK N   1      30.856  56.888  40.787  0.00  0.00     0.209 HD
ENDBRANCH  14  15
ENDBRANCH  13  14
BRANCH  13  17
HETATM   17  C   UNK N   1      28.385  53.910  40.510  0.00  0.00    -0.043 A 
HETATM   18  C   UNK N   1      29.262  52.887  40.103  0.00  0.00     0.008 A 
HETATM   19  C   UNK N   1      28.815  51.566  40.011  0.00  0.00     0.001 A 
HETATM   20  C   UNK N   1      27.490  51.250  40.322  0.00  0.00     0.000 A 
HETATM   21  C   UNK N   1      26.610  52.254  40.731  0.00  0.00     0.001 A 
HETATM   22  C   UNK N   1      27.051  53.577  40.829  0.00  0.00     0.008 A 
ENDBRANCH  13  17
ENDBRANCH  11  13
ENDBRANCH  10  11
ENDBRANCH   1  10
BRANCH   8  23
HETATM   23  O   UNK N   1      32.438  52.066  44.812  0.00  0.00    -0.313 OA
BRANCH  23  24
HETATM   24  C   UNK N   1      33.013  50.953  44.287  0.00  0.00     0.262 C 
HETATM   25  O   UNK N   1      34.130  50.600  44.640  0.00  0.00    -0.265 OA
BRANCH  24  26
HETATM   26  C   UNK N   1      32.235  50.126  43.298  0.00  0.00     0.077 C 
HETATM   27  C   UNK N   1      33.024  48.860  42.960  0.00  0.00     0.020 C 
HETATM   28  C   UNK N   1      31.911  50.927  42.030  0.00  0.00     0.020 C 
ENDBRANCH  24  26
ENDBRANCH  23  24
ENDBRANCH   8  23
TORSDOF 9
ENDMDL
MODEL 9
REMARK VINA RESULT:      -5.9      9.784     13.114
REMARK  9 active torsions:
REMARK  status: ('A' for Active; 'I' for Inactive)
REMARK    1  A    between atoms: C_2  and  O_3 
REMARK    2  A    between atoms: C_2  and  C_19 
REMARK    3  A    between atoms: O_3  and  C_4 
REMARK    4  A    between atoms: C_11  and  O_12 
REMARK    5  A    between atoms: O_12  and  C_13 
REMARK    6  A    between atoms: C_13  and  C_15 
REMARK    7  A    between atoms: C_19  and  C_20 
REMARK    8  A    between atoms: C_19  and  C_23 
REMARK    9  A    between atoms: C_20  and  O_21 
ROOT
HETATM    1  C   UNK N   1      30.879  54.401  43.856  0.00  0.00     0.136 C 
HETATM    2  C   UNK N   1      31.112  54.240  45.367  0.00  0.00     0.071 C 
HETATM    3  C   UNK N   1      32.625  54.295  45.721  0.00  0.00     0.255 C 
HETATM    4  N   UNK N   1      33.096  55.633  45.331  0.00  0.00     0.096 N 
HETATM    5  C   UNK N   1      34.368  56.022  45.963  0.00  0.00     0.310 C 
HETATM    6  C   UNK N   1      33.191  55.495  43.868  0.00  0.00     0.228 C 
HETATM    7  C   UNK N   1      33.825  54.110  43.617  0.00  0.00     0.070 C 
HETATM    8  C   UNK N   1      33.509  53.320  44.902  0.00  0.00     0.167 C 
HETATM    9  C   UNK N   1      31.740  55.569  43.320  0.00  0.00     0.068 C 
ENDROOT
BRANCH   1  10
HETATM   10  O   UNK N   1      29.531  54.608  43.621  0.00  0.00    -0.315 OA
BRANCH  10  11
HETATM   11  C   UNK N   1      29.002  55.054  42.450  0.00  0.00     0.270 C 
HETATM   12  O   UNK N   1      28.989  56.248  42.187  0.00  0.00    -0.264 OA
BRANCH  11  13
HETATM   13  C   UNK N   1      28.412  54.041  41.488  0.00  0.00     0.142 C 
BRANCH  13  14
HETATM   14  C   UNK N   1      26.872  54.085  41.444  0.00  0.00     0.183 C 
BRANCH  14  15
HETATM   15  O   UNK N   1      26.378  54.735  42.585  0.00  0.00    -0.400 OA
HETATM   16  H   UNK N   1      26.164  54.028  43.248  0.00  0.00     0.209 HD
ENDBRANCH  14  15
ENDBRANCH  13  14
BRANCH  13  17
HETATM   17  C   UNK N   1      28.999  54.176  40.090  0.00  0.00    -0.043 A 
HETATM   18  C   UNK N   1      28.169  54.564  39.020  0.00  0.00     0.008 A 
HETATM   19  C   UNK N   1      28.692  54.696  37.730  0.00  0.00     0.001 A 
HETATM   20  C   UNK N   1      30.045  54.441  37.491  0.00  0.00     0.000 A 
HETATM   21  C   UNK N   1      30.880  54.059  38.543  0.00  0.00     0.001 A 
HETATM   22  C   UNK N   1      30.365  53.930  39.837  0.00  0.00     0.008 A 
ENDBRANCH  13  17
ENDBRANCH  11  13
ENDBRANCH  10  11
ENDBRANCH   1  10
BRANCH   8  23
HETATM   23  O   UNK N   1      32.943  52.085  44.643  0.00  0.00    -0.313 OA
BRANCH  23  24
HETATM   24  C   UNK N   1      33.514  51.131  43.862  0.00  0.00     0.262 C 
HETATM   25  O   UNK N   1      34.723  50.949  43.881  0.00  0.00    -0.265 OA
BRANCH  24  26
HETATM   26  C   UNK N   1      32.630  50.263  43.006  0.00  0.00     0.077 C 
HETATM   27  C   UNK N   1      31.867  51.138  42.010  0.00  0.00     0.020 C 
HETATM   28  C   UNK N   1      31.664  49.432  43.860  0.00  0.00     0.020 C 
ENDBRANCH  24  26
ENDBRANCH  23  24
ENDBRANCH   8  23
TORSDOF 9
ENDMDL
