MODEL 1
REMARK VINA RESULT:      -8.0      0.000      0.000
REMARK  4 active torsions:
REMARK  status: ('A' for Active; 'I' for Inactive)
REMARK    1  A    between atoms: C_2  and  O_3 
REMARK    2  A    between atoms: C_2  and  C_5 
REMARK    3  A    between atoms: C_5  and  C_7 
REMARK    4  A    between atoms: C_11  and  O_12 
ROOT
HETATM    1  C   UNK N   1      40.921  44.933  51.105  0.00  0.00     0.028 C 
HETATM    2  C   UNK N   1      42.081  45.393  50.189  0.00  0.00     0.045 C 
HETATM    3  C   UNK N   1      41.564  45.695  48.778  0.00  0.00    -0.066 C 
HETATM    4  C   UNK N   1      41.800  46.891  48.126  0.00  0.00    -0.052 C 
HETATM    5  C   UNK N   1      41.320  47.135  46.700  0.00  0.00     0.149 C 
HETATM    6  C   UNK N   1      40.908  45.857  45.957  0.00  0.00     0.037 C 
HETATM    7  C   UNK N   1      39.991  45.043  46.843  0.00  0.00     0.016 C 
HETATM    8  C   UNK N   1      40.743  44.562  48.117  0.00  0.00    -0.020 C 
HETATM    9  C   UNK N   1      39.651  44.077  49.114  0.00  0.00     0.014 C 
HETATM   10  C   UNK N   1      40.211  43.712  50.498  0.00  0.00     0.011 C 
HETATM   11  C   UNK N   1      41.685  43.383  47.757  0.00  0.00     0.020 C 
HETATM   12  C   UNK N   1      42.551  48.063  48.738  0.00  0.00     0.046 C 
ENDROOT
BRANCH   1  13
HETATM   13  C   UNK N   1      41.369  44.639  52.543  0.00  0.00     0.010 C 
HETATM   14  C   UNK N   1      42.033  45.578  53.250  0.00  0.00     0.026 C 
BRANCH  13  15
HETATM   15  C   UNK N   1      41.080  43.280  53.123  0.00  0.00     0.171 C 
HETATM   16  O   UNK N   1      41.981  42.465  53.209  0.00  0.00    -0.646 OA
BRANCH  15  17
HETATM   17  O   UNK N   1      39.855  42.931  53.587  0.00  0.00    -0.773 OA
HETATM   18  H   UNK N   1      39.132  43.550  53.736  0.00  0.00     0.167 HD
ENDBRANCH  15  17
ENDBRANCH  13  15
ENDBRANCH   1  13
BRANCH   5  19
HETATM   19  O   UNK N   1      40.234  48.046  46.766  0.00  0.00    -0.386 OA
HETATM   20  C   UNK N   1      39.856  48.479  45.477  0.00  0.00     0.202 C 
ENDBRANCH   5  19
TORSDOF 4
ENDMDL
MODEL 2
REMARK VINA RESULT:      -6.3     10.147     13.797
REMARK  4 active torsions:
REMARK  status: ('A' for Active; 'I' for Inactive)
REMARK    1  A    between atoms: C_2  and  O_3 
REMARK    2  A    between atoms: C_2  and  C_5 
REMARK    3  A    between atoms: C_5  and  C_7 
REMARK    4  A    between atoms: C_11  and  O_12 
ROOT
HETATM    1  C   UNK N   1      33.585  51.836  43.356  0.00  0.00     0.028 C 
HETATM    2  C   UNK N   1      32.054  51.809  43.129  0.00  0.00     0.045 C 
HETATM    3  C   UNK N   1      31.513  53.231  42.940  0.00  0.00    -0.066 C 
HETATM    4  C   UNK N   1      30.738  53.608  41.860  0.00  0.00    -0.052 C 
HETATM    5  C   UNK N   1      30.169  55.017  41.735  0.00  0.00     0.149 C 
HETATM    6  C   UNK N   1      30.212  55.823  43.040  0.00  0.00     0.037 C 
HETATM    7  C   UNK N   1      31.594  55.709  43.646  0.00  0.00     0.016 C 
HETATM    8  C   UNK N   1      31.897  54.239  44.051  0.00  0.00    -0.020 C 
HETATM    9  C   UNK N   1      33.432  54.160  44.301  0.00  0.00     0.014 C 
HETATM   10  C   UNK N   1      33.932  52.729  44.558  0.00  0.00     0.011 C 
HETATM   11  C   UNK N   1      31.135  53.886  45.356  0.00  0.00     0.020 C 
HETATM   12  C   UNK N   1      30.370  52.685  40.710  0.00  0.00     0.046 C 
ENDROOT
BRANCH   1  13
HETATM   13  C   UNK N   1      34.194  50.439  43.526  0.00  0.00     0.010 C 
HETATM   14  C   UNK N   1      35.525  50.259  43.384  0.00  0.00     0.026 C 
BRANCH  13  15
HETATM   15  C   UNK N   1      33.274  49.283  43.818  0.00  0.00     0.171 C 
HETATM   16  O   UNK N   1      32.974  48.518  42.919  0.00  0.00    -0.646 OA
BRANCH  15  17
HETATM   17  O   UNK N   1      32.786  49.036  45.058  0.00  0.00    -0.773 OA
HETATM   18  H   UNK N   1      32.726  48.161  45.455  0.00  0.00     0.167 HD
ENDBRANCH  15  17
ENDBRANCH  13  15
ENDBRANCH   1  13
BRANCH   5  19
HETATM   19  O   UNK N   1      30.897  55.682  40.714  0.00  0.00    -0.386 OA
HETATM   20  C   UNK N   1      30.187  56.803  40.233  0.00  0.00     0.202 C 
ENDBRANCH   5  19
TORSDOF 4
ENDMDL
MODEL 3
REMARK VINA RESULT:      -6.1     13.827     16.422
REMARK  4 active torsions:
REMARK  status: ('A' for Active; 'I' for Inactive)
REMARK    1  A    between atoms: C_2  and  O_3 
REMARK    2  A    between atoms: C_2  and  C_5 
REMARK    3  A    between atoms: C_5  and  C_7 
REMARK    4  A    between atoms: C_11  and  O_12 
ROOT
HETATM    1  C   UNK N   1      31.410  54.990  42.998  0.00  0.00     0.028 C 
HETATM    2  C   UNK N   1      30.645  53.713  42.575  0.00  0.00     0.045 C 
HETATM    3  C   UNK N   1      29.929  53.934  41.237  0.00  0.00    -0.066 C 
HETATM    4  C   UNK N   1      30.079  53.093  40.151  0.00  0.00    -0.052 C 
HETATM    5  C   UNK N   1      29.305  53.312  38.855  0.00  0.00     0.149 C 
HETATM    6  C   UNK N   1      28.119  54.276  38.995  0.00  0.00     0.037 C 
HETATM    7  C   UNK N   1      28.578  55.522  39.721  0.00  0.00     0.016 C 
HETATM    8  C   UNK N   1      29.014  55.182  41.174  0.00  0.00    -0.020 C 
HETATM    9  C   UNK N   1      29.803  56.418  41.696  0.00  0.00     0.014 C 
HETATM   10  C   UNK N   1      30.450  56.189  43.072  0.00  0.00     0.011 C 
HETATM   11  C   UNK N   1      27.761  54.949  42.059  0.00  0.00     0.020 C 
HETATM   12  C   UNK N   1      31.000  51.884  40.128  0.00  0.00     0.046 C 
ENDROOT
BRANCH   1  13
HETATM   13  C   UNK N   1      32.172  54.826  44.319  0.00  0.00     0.010 C 
HETATM   14  C   UNK N   1      31.611  54.151  45.345  0.00  0.00     0.026 C 
BRANCH  13  15
HETATM   15  C   UNK N   1      33.531  55.460  44.450  0.00  0.00     0.171 C 
HETATM   16  O   UNK N   1      34.483  54.954  43.882  0.00  0.00    -0.646 OA
BRANCH  15  17
HETATM   17  O   UNK N   1      33.739  56.600  45.154  0.00  0.00    -0.773 OA
HETATM   18  H   UNK N   1      33.039  57.181  45.468  0.00  0.00     0.167 HD
ENDBRANCH  15  17
ENDBRANCH  13  15
ENDBRANCH   1  13
BRANCH   5  19
HETATM   19  O   UNK N   1      30.224  53.789  37.885  0.00  0.00    -0.386 OA
HETATM   20  C   UNK N   1      29.633  53.832  36.605  0.00  0.00     0.202 C 
ENDBRANCH   5  19
TORSDOF 4
ENDMDL
MODEL 4
REMARK VINA RESULT:      -6.0      2.049      6.755
REMARK  4 active torsions:
REMARK  status: ('A' for Active; 'I' for Inactive)
REMARK    1  A    between atoms: C_2  and  O_3 
REMARK    2  A    between atoms: C_2  and  C_5 
REMARK    3  A    between atoms: C_5  and  C_7 
REMARK    4  A    between atoms: C_11  and  O_12 
ROOT
HETATM    1  C   UNK N   1      40.052  48.489  46.546  0.00  0.00     0.028 C 
HETATM    2  C   UNK N   1      39.290  47.145  46.456  0.00  0.00     0.045 C 
HETATM    3  C   UNK N   1      39.980  46.077  47.313  0.00  0.00    -0.066 C 
HETATM    4  C   UNK N   1      39.319  45.332  48.271  0.00  0.00    -0.052 C 
HETATM    5  C   UNK N   1      40.025  44.238  49.063  0.00  0.00     0.149 C 
HETATM    6  C   UNK N   1      41.367  43.802  48.460  0.00  0.00     0.037 C 
HETATM    7  C   UNK N   1      42.187  45.032  48.137  0.00  0.00     0.016 C 
HETATM    8  C   UNK N   1      41.491  45.883  47.038  0.00  0.00    -0.020 C 
HETATM    9  C   UNK N   1      42.193  47.273  47.050  0.00  0.00     0.014 C 
HETATM   10  C   UNK N   1      41.520  48.301  46.126  0.00  0.00     0.011 C 
HETATM   11  C   UNK N   1      41.683  45.211  45.653  0.00  0.00     0.020 C 
HETATM   12  C   UNK N   1      37.852  45.509  48.627  0.00  0.00     0.046 C 
ENDROOT
BRANCH   1  13
HETATM   13  C   UNK N   1      39.396  49.610  45.730  0.00  0.00     0.010 C 
HETATM   14  C   UNK N   1      38.509  50.443  46.316  0.00  0.00     0.026 C 
BRANCH  13  15
HETATM   15  C   UNK N   1      39.738  49.732  44.269  0.00  0.00     0.171 C 
HETATM   16  O   UNK N   1      40.370  50.699  43.883  0.00  0.00    -0.646 OA
BRANCH  15  17
HETATM   17  O   UNK N   1      39.397  48.787  43.359  0.00  0.00    -0.773 OA
HETATM   18  H   UNK N   1      39.294  48.951  42.416  0.00  0.00     0.167 HD
ENDBRANCH  15  17
ENDBRANCH  13  15
ENDBRANCH   1  13
BRANCH   5  19
HETATM   19  O   UNK N   1      40.205  44.718  50.386  0.00  0.00    -0.386 OA
HETATM   20  C   UNK N   1      40.450  43.655  51.282  0.00  0.00     0.202 C 
ENDBRANCH   5  19
TORSDOF 4
ENDMDL
MODEL 5
REMARK VINA RESULT:      -5.7     11.524     15.926
REMARK  4 active torsions:
REMARK  status: ('A' for Active; 'I' for Inactive)
REMARK    1  A    between atoms: C_2  and  O_3 
REMARK    2  A    between atoms: C_2  and  C_5 
REMARK    3  A    between atoms: C_5  and  C_7 
REMARK    4  A    between atoms: C_11  and  O_12 
ROOT
HETATM    1  C   UNK N   1      29.212  54.334  42.362  0.00  0.00     0.028 C 
HETATM    2  C   UNK N   1      30.455  53.781  41.624  0.00  0.00     0.045 C 
HETATM    3  C   UNK N   1      31.418  53.118  42.615  0.00  0.00    -0.066 C 
HETATM    4  C   UNK N   1      31.895  51.830  42.460  0.00  0.00    -0.052 C 
HETATM    5  C   UNK N   1      32.897  51.223  43.435  0.00  0.00     0.149 C 
HETATM    6  C   UNK N   1      33.585  52.254  44.340  0.00  0.00     0.037 C 
HETATM    7  C   UNK N   1      32.535  53.166  44.938  0.00  0.00     0.016 C 
HETATM    8  C   UNK N   1      31.827  53.991  43.826  0.00  0.00    -0.020 C 
HETATM    9  C   UNK N   1      30.547  54.594  44.475  0.00  0.00     0.014 C 
HETATM   10  C   UNK N   1      29.637  55.315  43.467  0.00  0.00     0.011 C 
HETATM   11  C   UNK N   1      32.760  55.135  43.346  0.00  0.00     0.020 C 
HETATM   12  C   UNK N   1      31.492  50.902  41.325  0.00  0.00     0.046 C 
ENDROOT
BRANCH   1  13
HETATM   13  C   UNK N   1      28.193  54.989  41.420  0.00  0.00     0.010 C 
HETATM   14  C   UNK N   1      28.614  55.802  40.428  0.00  0.00     0.026 C 
BRANCH  13  15
HETATM   15  C   UNK N   1      26.728  54.729  41.651  0.00  0.00     0.171 C 
HETATM   16  O   UNK N   1      25.997  55.659  41.942  0.00  0.00    -0.646 OA
BRANCH  15  17
HETATM   17  O   UNK N   1      26.176  53.498  41.517  0.00  0.00    -0.773 OA
HETATM   18  H   UNK N   1      26.477  52.832  40.892  0.00  0.00     0.167 HD
ENDBRANCH  15  17
ENDBRANCH  13  15
ENDBRANCH   1  13
BRANCH   5  19
HETATM   19  O   UNK N   1      32.205  50.259  44.213  0.00  0.00    -0.386 OA
HETATM   20  C   UNK N   1      33.041  49.166  44.526  0.00  0.00     0.202 C 
ENDBRANCH   5  19
TORSDOF 4
ENDMDL
MODEL 6
REMARK VINA RESULT:      -5.3     12.400     16.102
REMARK  4 active torsions:
REMARK  status: ('A' for Active; 'I' for Inactive)
REMARK    1  A    between atoms: C_2  and  O_3 
REMARK    2  A    between atoms: C_2  and  C_5 
REMARK    3  A    between atoms: C_5  and  C_7 
REMARK    4  A    between atoms: C_11  and  O_12 
ROOT
HETATM    1  C   UNK N   1      31.186  52.789  42.846  0.00  0.00     0.028 C 
HETATM    2  C   UNK N   1      30.690  54.146  42.292  0.00  0.00     0.045 C 
HETATM    3  C   UNK N   1      29.649  53.929  41.189  0.00  0.00    -0.066 C 
HETATM    4  C   UNK N   1      28.401  54.523  41.198  0.00  0.00    -0.052 C 
HETATM    5  C   UNK N   1      27.413  54.329  40.053  0.00  0.00     0.149 C 
HETATM    6  C   UNK N   1      28.044  53.757  38.777  0.00  0.00     0.037 C 
HETATM    7  C   UNK N   1      28.893  52.558  39.141  0.00  0.00     0.016 C 
HETATM    8  C   UNK N   1      30.085  52.982  40.044  0.00  0.00    -0.020 C 
HETATM    9  C   UNK N   1      30.659  51.671  40.658  0.00  0.00     0.014 C 
HETATM   10  C   UNK N   1      31.751  51.921  41.710  0.00  0.00     0.011 C 
HETATM   11  C   UNK N   1      31.174  53.678  39.184  0.00  0.00     0.020 C 
HETATM   12  C   UNK N   1      27.890  55.418  42.315  0.00  0.00     0.046 C 
ENDROOT
BRANCH   1  13
HETATM   13  C   UNK N   1      32.213  52.937  43.976  0.00  0.00     0.010 C 
HETATM   14  C   UNK N   1      33.215  52.041  44.101  0.00  0.00     0.026 C 
BRANCH  13  15
HETATM   15  C   UNK N   1      32.055  54.076  44.948  0.00  0.00     0.171 C 
HETATM   16  O   UNK N   1      32.887  54.965  44.966  0.00  0.00    -0.646 OA
BRANCH  15  17
HETATM   17  O   UNK N   1      30.997  54.172  45.791  0.00  0.00    -0.773 OA
HETATM   18  H   UNK N   1      30.087  54.311  45.510  0.00  0.00     0.167 HD
ENDBRANCH  15  17
ENDBRANCH  13  15
ENDBRANCH   1  13
BRANCH   5  19
HETATM   19  O   UNK N   1      26.378  53.479  40.522  0.00  0.00    -0.386 OA
HETATM   20  C   UNK N   1      25.364  53.332  39.552  0.00  0.00     0.202 C 
ENDBRANCH   5  19
TORSDOF 4
ENDMDL
MODEL 7
REMARK VINA RESULT:      -5.1     11.425     15.174
REMARK  4 active torsions:
REMARK  status: ('A' for Active; 'I' for Inactive)
REMARK    1  A    between atoms: C_2  and  O_3 
REMARK    2  A    between atoms: C_2  and  C_5 
REMARK    3  A    between atoms: C_5  and  C_7 
REMARK    4  A    between atoms: C_11  and  O_12 
ROOT
HETATM    1  C   UNK N   1      31.666  52.011  42.892  0.00  0.00     0.028 C 
HETATM    2  C   UNK N   1      31.373  53.473  42.481  0.00  0.00     0.045 C 
HETATM    3  C   UNK N   1      30.188  53.531  41.509  0.00  0.00    -0.066 C 
HETATM    4  C   UNK N   1      29.083  54.336  41.710  0.00  0.00    -0.052 C 
HETATM    5  C   UNK N   1      27.950  54.411  40.692  0.00  0.00     0.149 C 
HETATM    6  C   UNK N   1      28.312  53.834  39.317  0.00  0.00     0.037 C 
HETATM    7  C   UNK N   1      28.958  52.479  39.503  0.00  0.00     0.016 C 
HETATM    8  C   UNK N   1      30.305  52.612  40.268  0.00  0.00    -0.020 C 
HETATM    9  C   UNK N   1      30.690  51.177  40.732  0.00  0.00     0.014 C 
HETATM   10  C   UNK N   1      31.925  51.146  41.647  0.00  0.00     0.011 C 
HETATM   11  C   UNK N   1      31.398  53.166  39.316  0.00  0.00     0.020 C 
HETATM   12  C   UNK N   1      28.882  55.220  42.930  0.00  0.00     0.046 C 
ENDROOT
BRANCH   1  13
HETATM   13  C   UNK N   1      32.827  51.886  43.887  0.00  0.00     0.010 C 
HETATM   14  C   UNK N   1      33.190  52.946  44.640  0.00  0.00     0.026 C 
BRANCH  13  15
HETATM   15  C   UNK N   1      33.561  50.574  43.976  0.00  0.00     0.171 C 
HETATM   16  O   UNK N   1      34.723  50.516  43.615  0.00  0.00    -0.646 OA
BRANCH  15  17
HETATM   17  O   UNK N   1      32.990  49.451  44.476  0.00  0.00    -0.773 OA
HETATM   18  H   UNK N   1      33.473  48.653  44.713  0.00  0.00     0.167 HD
ENDBRANCH  15  17
ENDBRANCH  13  15
ENDBRANCH   1  13
BRANCH   5  19
HETATM   19  O   UNK N   1      26.836  53.726  41.243  0.00  0.00    -0.386 OA
HETATM   20  C   UNK N   1      25.646  54.067  40.565  0.00  0.00     0.202 C 
ENDBRANCH   5  19
TORSDOF 4
ENDMDL
MODEL 8
REMARK VINA RESULT:      -5.1     13.632     16.563
REMARK  4 active torsions:
REMARK  status: ('A' for Active; 'I' for Inactive)
REMARK    1  A    between atoms: C_2  and  O_3 
REMARK    2  A    between atoms: C_2  and  C_5 
REMARK    3  A    between atoms: C_5  and  C_7 
REMARK    4  A    between atoms: C_11  and  O_12 
ROOT
HETATM    1  C   UNK N   1      48.907  56.734  41.548  0.00  0.00     0.028 C 
HETATM    2  C   UNK N   1      49.212  56.146  42.947  0.00  0.00     0.045 C 
HETATM    3  C   UNK N   1      48.989  57.203  44.034  0.00  0.00    -0.066 C 
HETATM    4  C   UNK N   1      48.182  56.996  45.137  0.00  0.00    -0.052 C 
HETATM    5  C   UNK N   1      48.030  58.049  46.229  0.00  0.00     0.149 C 
HETATM    6  C   UNK N   1      49.100  59.149  46.184  0.00  0.00     0.037 C 
HETATM    7  C   UNK N   1      49.220  59.664  44.766  0.00  0.00     0.016 C 
HETATM    8  C   UNK N   1      49.731  58.544  43.816  0.00  0.00    -0.020 C 
HETATM    9  C   UNK N   1      49.464  59.043  42.366  0.00  0.00     0.014 C 
HETATM   10  C   UNK N   1      49.765  57.984  41.294  0.00  0.00     0.011 C 
HETATM   11  C   UNK N   1      51.254  58.332  44.025  0.00  0.00     0.020 C 
HETATM   12  C   UNK N   1      47.385  55.725  45.384  0.00  0.00     0.046 C 
ENDROOT
BRANCH   1  13
HETATM   13  C   UNK N   1      49.086  55.716  40.414  0.00  0.00     0.010 C 
HETATM   14  C   UNK N   1      48.147  55.606  39.450  0.00  0.00     0.026 C 
BRANCH  13  15
HETATM   15  C   UNK N   1      50.304  54.831  40.426  0.00  0.00     0.171 C 
HETATM   16  O   UNK N   1      51.286  55.160  39.786  0.00  0.00    -0.646 OA
BRANCH  15  17
HETATM   17  O   UNK N   1      50.367  53.687  41.151  0.00  0.00    -0.773 OA
HETATM   18  H   UNK N   1      49.768  53.466  41.872  0.00  0.00     0.167 HD
ENDBRANCH  15  17
ENDBRANCH  13  15
ENDBRANCH   1  13
BRANCH   5  19
HETATM   19  O   UNK N   1      46.733  58.610  46.102  0.00  0.00    -0.386 OA
HETATM   20  C   UNK N   1      46.361  59.298  47.277  0.00  0.00     0.202 C 
ENDBRANCH   5  19
TORSDOF 4
ENDMDL
MODEL 9
REMARK VINA RESULT:      -5.1     14.467     17.794
REMARK  4 active torsions:
REMARK  status: ('A' for Active; 'I' for Inactive)
REMARK    1  A    between atoms: C_2  and  O_3 
REMARK    2  A    between atoms: C_2  and  C_5 
REMARK    3  A    between atoms: C_5  and  C_7 
REMARK    4  A    between atoms: C_11  and  O_12 
ROOT
HETATM    1  C   UNK N   1      26.884  52.559  40.676  0.00  0.00     0.028 C 
HETATM    2  C   UNK N   1      28.308  52.763  40.106  0.00  0.00     0.045 C 
HETATM    3  C   UNK N   1      29.100  53.745  40.978  0.00  0.00    -0.066 C 
HETATM    4  C   UNK N   1      30.347  53.457  41.500  0.00  0.00    -0.052 C 
HETATM    5  C   UNK N   1      31.130  54.480  42.315  0.00  0.00     0.149 C 
HETATM    6  C   UNK N   1      30.602  55.915  42.183  0.00  0.00     0.037 C 
HETATM    7  C   UNK N   1      29.101  55.909  42.378  0.00  0.00     0.016 C 
HETATM    8  C   UNK N   1      28.404  55.101  41.248  0.00  0.00    -0.020 C 
HETATM    9  C   UNK N   1      26.947  54.839  41.731  0.00  0.00     0.014 C 
HETATM   10  C   UNK N   1      26.157  53.908  40.797  0.00  0.00     0.011 C 
HETATM   11  C   UNK N   1      28.379  55.938  39.941  0.00  0.00     0.020 C 
HETATM   12  C   UNK N   1      31.062  52.128  41.319  0.00  0.00     0.046 C 
ENDROOT
BRANCH   1  13
HETATM   13  C   UNK N   1      26.046  51.564  39.862  0.00  0.00     0.010 C 
HETATM   14  C   UNK N   1      25.352  51.987  38.784  0.00  0.00     0.026 C 
BRANCH  13  15
HETATM   15  C   UNK N   1      25.993  50.129  40.313  0.00  0.00     0.171 C 
HETATM   16  O   UNK N   1      25.913  49.244  39.480  0.00  0.00    -0.646 OA
BRANCH  15  17
HETATM   17  O   UNK N   1      26.064  49.772  41.619  0.00  0.00    -0.773 OA
HETATM   18  H   UNK N   1      25.565  50.194  42.327  0.00  0.00     0.167 HD
ENDBRANCH  15  17
ENDBRANCH  13  15
ENDBRANCH   1  13
BRANCH   5  19
HETATM   19  O   UNK N   1      31.100  54.059  43.670  0.00  0.00    -0.386 OA
HETATM   20  C   UNK N   1      32.027  54.786  44.447  0.00  0.00     0.202 C 
ENDBRANCH   5  19
TORSDOF 4
ENDMDL
