MODEL 1
REMARK VINA RESULT:      -6.9      0.000      0.000
REMARK  5 active torsions:
REMARK  status: ('A' for Active; 'I' for Inactive)
REMARK    1  A    between atoms: C_2  and  O_3 
REMARK    2  A    between atoms: C_2  and  C_5 
REMARK    3  A    between atoms: C_5  and  C_7 
REMARK    4  A    between atoms: C_10  and  O_11 
REMARK    5  A    between atoms: C_13  and  O_14 
ROOT
HETATM    1  C   UNK N   1      40.614  44.935  50.845  0.00  0.00     0.025 C 
HETATM    2  C   UNK N   1      41.415  45.847  49.888  0.00  0.00     0.018 C 
HETATM    3  C   UNK N   1      40.637  46.113  48.574  0.00  0.00     0.031 C 
HETATM    4  C   UNK N   1      41.335  47.181  47.630  0.00  0.00     0.084 C 
HETATM    5  C   UNK N   1      40.789  47.072  46.157  0.00  0.00     0.152 C 
HETATM    6  C   UNK N   1      39.331  46.606  46.143  0.00  0.00     0.035 C 
HETATM    7  C   UNK N   1      39.207  45.157  46.681  0.00  0.00     0.012 C 
HETATM    8  C   UNK N   1      40.190  44.795  47.859  0.00  0.00    -0.037 C 
HETATM    9  C   UNK N   1      39.417  43.903  48.880  0.00  0.00     0.010 C 
HETATM   10  C   UNK N   1      40.225  43.614  50.155  0.00  0.00     0.010 C 
HETATM   11  C   UNK N   1      41.392  43.974  47.305  0.00  0.00     0.015 C 
HETATM   12  C   UNK N   1      42.884  47.070  47.589  0.00  0.00     0.049 C 
ENDROOT
BRANCH   1  13
HETATM   13  C   UNK N   1      41.381  44.680  52.140  0.00  0.00     0.010 C 
HETATM   14  C   UNK N   1      42.341  45.536  52.547  0.00  0.00     0.026 C 
BRANCH  13  15
HETATM   15  C   UNK N   1      41.075  43.469  52.956  0.00  0.00     0.171 C 
HETATM   16  O   UNK N   1      41.910  42.589  53.098  0.00  0.00    -0.646 OA
BRANCH  15  17
HETATM   17  O   UNK N   1      39.853  43.323  53.517  0.00  0.00    -0.773 OA
HETATM   18  H   UNK N   1      39.576  42.479  53.897  0.00  0.00     0.167 HD
ENDBRANCH  15  17
ENDBRANCH  13  15
ENDBRANCH   1  13
BRANCH   4  19
HETATM   19  O   UNK N   1      40.992  48.437  48.180  0.00  0.00    -0.387 OA
HETATM   20  H   UNK N   1      40.766  48.327  49.141  0.00  0.00     0.210 HD
ENDBRANCH   4  19
BRANCH   5  21
HETATM   21  O   UNK N   1      40.967  48.277  45.451  0.00  0.00    -0.393 OA
HETATM   22  H   UNK N   1      41.921  48.541  45.528  0.00  0.00     0.210 HD
ENDBRANCH   5  21
TORSDOF 5
ENDMDL
MODEL 2
REMARK VINA RESULT:      -6.3      2.011      2.806
REMARK  5 active torsions:
REMARK  status: ('A' for Active; 'I' for Inactive)
REMARK    1  A    between atoms: C_2  and  O_3 
REMARK    2  A    between atoms: C_2  and  C_5 
REMARK    3  A    between atoms: C_5  and  C_7 
REMARK    4  A    between atoms: C_10  and  O_11 
REMARK    5  A    between atoms: C_13  and  O_14 
ROOT
HETATM    1  C   UNK N   1      40.731  43.392  51.060  0.00  0.00     0.025 C 
HETATM    2  C   UNK N   1      39.752  44.354  50.348  0.00  0.00     0.018 C 
HETATM    3  C   UNK N   1      39.982  44.365  48.815  0.00  0.00     0.031 C 
HETATM    4  C   UNK N   1      38.894  45.200  48.018  0.00  0.00     0.084 C 
HETATM    5  C   UNK N   1      39.412  45.569  46.576  0.00  0.00     0.152 C 
HETATM    6  C   UNK N   1      40.359  44.493  46.040  0.00  0.00     0.035 C 
HETATM    7  C   UNK N   1      41.658  44.427  46.884  0.00  0.00     0.012 C 
HETATM    8  C   UNK N   1      41.466  44.677  48.428  0.00  0.00    -0.037 C 
HETATM    9  C   UNK N   1      42.406  43.700  49.200  0.00  0.00     0.010 C 
HETATM   10  C   UNK N   1      42.193  43.740  50.722  0.00  0.00     0.010 C 
HETATM   11  C   UNK N   1      41.884  46.136  48.779  0.00  0.00     0.015 C 
HETATM   12  C   UNK N   1      38.456  46.508  48.731  0.00  0.00     0.049 C 
ENDROOT
BRANCH   1  13
HETATM   13  C   UNK N   1      40.499  43.380  52.569  0.00  0.00     0.010 C 
HETATM   14  C   UNK N   1      39.366  42.855  53.083  0.00  0.00     0.026 C 
BRANCH  13  15
HETATM   15  C   UNK N   1      41.524  43.963  53.481  0.00  0.00     0.171 C 
HETATM   16  O   UNK N   1      42.291  43.238  54.096  0.00  0.00    -0.646 OA
BRANCH  15  17
HETATM   17  O   UNK N   1      41.586  45.302  53.662  0.00  0.00    -0.773 OA
HETATM   18  H   UNK N   1      41.491  45.693  54.541  0.00  0.00     0.167 HD
ENDBRANCH  15  17
ENDBRANCH  13  15
ENDBRANCH   1  13
BRANCH   4  19
HETATM   19  O   UNK N   1      37.772  44.346  47.923  0.00  0.00    -0.387 OA
HETATM   20  H   UNK N   1      37.815  43.837  47.071  0.00  0.00     0.210 HD
ENDBRANCH   4  19
BRANCH   5  21
HETATM   21  O   UNK N   1      38.345  45.823  45.694  0.00  0.00    -0.393 OA
HETATM   22  H   UNK N   1      38.706  45.833  44.769  0.00  0.00     0.210 HD
ENDBRANCH   5  21
TORSDOF 5
ENDMDL
MODEL 3
REMARK VINA RESULT:      -5.8      1.635      2.882
REMARK  5 active torsions:
REMARK  status: ('A' for Active; 'I' for Inactive)
REMARK    1  A    between atoms: C_2  and  O_3 
REMARK    2  A    between atoms: C_2  and  C_5 
REMARK    3  A    between atoms: C_5  and  C_7 
REMARK    4  A    between atoms: C_10  and  O_11 
REMARK    5  A    between atoms: C_13  and  O_14 
ROOT
HETATM    1  C   UNK N   1      41.657  44.808  50.570  0.00  0.00     0.025 C 
HETATM    2  C   UNK N   1      40.574  45.269  49.567  0.00  0.00     0.018 C 
HETATM    3  C   UNK N   1      41.206  45.910  48.306  0.00  0.00     0.031 C 
HETATM    4  C   UNK N   1      40.151  46.243  47.168  0.00  0.00     0.084 C 
HETATM    5  C   UNK N   1      40.737  47.286  46.143  0.00  0.00     0.152 C 
HETATM    6  C   UNK N   1      42.254  47.134  46.011  0.00  0.00     0.035 C 
HETATM    7  C   UNK N   1      42.966  47.496  47.341  0.00  0.00     0.012 C 
HETATM    8  C   UNK N   1      42.194  47.074  48.648  0.00  0.00    -0.037 C 
HETATM    9  C   UNK N   1      43.240  46.561  49.686  0.00  0.00     0.010 C 
HETATM   10  C   UNK N   1      42.591  45.972  50.949  0.00  0.00     0.010 C 
HETATM   11  C   UNK N   1      41.473  48.315  49.255  0.00  0.00     0.015 C 
HETATM   12  C   UNK N   1      38.798  46.788  47.703  0.00  0.00     0.049 C 
ENDROOT
BRANCH   1  13
HETATM   13  C   UNK N   1      41.031  44.173  51.809  0.00  0.00     0.010 C 
HETATM   14  C   UNK N   1      39.902  43.441  51.706  0.00  0.00     0.026 C 
BRANCH  13  15
HETATM   15  C   UNK N   1      41.664  44.371  53.144  0.00  0.00     0.171 C 
HETATM   16  O   UNK N   1      42.162  43.429  53.741  0.00  0.00    -0.646 OA
BRANCH  15  17
HETATM   17  O   UNK N   1      41.659  45.595  53.719  0.00  0.00    -0.773 OA
HETATM   18  H   UNK N   1      40.837  46.090  53.834  0.00  0.00     0.167 HD
ENDBRANCH  15  17
ENDBRANCH  13  15
ENDBRANCH   1  13
BRANCH   4  19
HETATM   19  O   UNK N   1      39.910  45.011  46.518  0.00  0.00    -0.387 OA
HETATM   20  H   UNK N   1      39.802  45.167  45.544  0.00  0.00     0.210 HD
ENDBRANCH   4  19
BRANCH   5  21
HETATM   21  O   UNK N   1      40.086  47.207  44.898  0.00  0.00    -0.393 OA
HETATM   22  H   UNK N   1      39.954  46.247  44.679  0.00  0.00     0.210 HD
ENDBRANCH   5  21
TORSDOF 5
ENDMDL
MODEL 4
REMARK VINA RESULT:      -5.7      2.387      6.953
REMARK  5 active torsions:
REMARK  status: ('A' for Active; 'I' for Inactive)
REMARK    1  A    between atoms: C_2  and  O_3 
REMARK    2  A    between atoms: C_2  and  C_5 
REMARK    3  A    between atoms: C_5  and  C_7 
REMARK    4  A    between atoms: C_10  and  O_11 
REMARK    5  A    between atoms: C_13  and  O_14 
ROOT
HETATM    1  C   UNK N   1      39.952  48.648  45.791  0.00  0.00     0.025 C 
HETATM    2  C   UNK N   1      39.335  47.322  46.292  0.00  0.00     0.018 C 
HETATM    3  C   UNK N   1      40.052  46.809  47.566  0.00  0.00     0.031 C 
HETATM    4  C   UNK N   1      39.351  45.546  48.223  0.00  0.00     0.084 C 
HETATM    5  C   UNK N   1      40.337  44.796  49.196  0.00  0.00     0.152 C 
HETATM    6  C   UNK N   1      41.322  45.773  49.841  0.00  0.00     0.035 C 
HETATM    7  C   UNK N   1      42.266  46.393  48.778  0.00  0.00     0.012 C 
HETATM    8  C   UNK N   1      41.600  46.679  47.379  0.00  0.00    -0.037 C 
HETATM    9  C   UNK N   1      42.160  48.033  46.842  0.00  0.00     0.010 C 
HETATM   10  C   UNK N   1      41.466  48.499  45.552  0.00  0.00     0.010 C 
HETATM   11  C   UNK N   1      41.991  45.556  46.373  0.00  0.00     0.015 C 
HETATM   12  C   UNK N   1      38.805  44.520  47.191  0.00  0.00     0.049 C 
ENDROOT
BRANCH   1  13
HETATM   13  C   UNK N   1      39.239  49.153  44.538  0.00  0.00     0.010 C 
HETATM   14  C   UNK N   1      38.172  48.491  44.045  0.00  0.00     0.026 C 
BRANCH  13  15
HETATM   15  C   UNK N   1      39.733  50.379  43.848  0.00  0.00     0.171 C 
HETATM   16  O   UNK N   1      40.263  51.278  44.483  0.00  0.00    -0.646 OA
BRANCH  15  17
HETATM   17  O   UNK N   1      39.563  50.519  42.514  0.00  0.00    -0.773 OA
HETATM   18  H   UNK N   1      40.062  49.977  41.887  0.00  0.00     0.167 HD
ENDBRANCH  15  17
ENDBRANCH  13  15
ENDBRANCH   1  13
BRANCH   4  19
HETATM   19  O   UNK N   1      38.259  46.069  48.952  0.00  0.00    -0.387 OA
HETATM   20  H   UNK N   1      37.728  45.322  49.335  0.00  0.00     0.210 HD
ENDBRANCH   4  19
BRANCH   5  21
HETATM   21  O   UNK N   1      39.638  44.037  50.154  0.00  0.00    -0.393 OA
HETATM   22  H   UNK N   1      40.280  43.408  50.576  0.00  0.00     0.210 HD
ENDBRANCH   5  21
TORSDOF 5
ENDMDL
MODEL 5
REMARK VINA RESULT:      -5.6      3.509      5.497
REMARK  5 active torsions:
REMARK  status: ('A' for Active; 'I' for Inactive)
REMARK    1  A    between atoms: C_2  and  O_3 
REMARK    2  A    between atoms: C_2  and  C_5 
REMARK    3  A    between atoms: C_5  and  C_7 
REMARK    4  A    between atoms: C_10  and  O_11 
REMARK    5  A    between atoms: C_13  and  O_14 
ROOT
HETATM    1  C   UNK N   1      42.157  42.767  45.731  0.00  0.00     0.025 C 
HETATM    2  C   UNK N   1      41.577  43.198  47.098  0.00  0.00     0.018 C 
HETATM    3  C   UNK N   1      40.534  44.333  46.939  0.00  0.00     0.031 C 
HETATM    4  C   UNK N   1      39.781  44.694  48.289  0.00  0.00     0.084 C 
HETATM    5  C   UNK N   1      39.104  46.113  48.194  0.00  0.00     0.152 C 
HETATM    6  C   UNK N   1      38.675  46.423  46.758  0.00  0.00     0.035 C 
HETATM    7  C   UNK N   1      39.907  46.548  45.825  0.00  0.00     0.012 C 
HETATM    8  C   UNK N   1      41.093  45.562  46.148  0.00  0.00    -0.037 C 
HETATM    9  C   UNK N   1      41.692  45.063  44.797  0.00  0.00     0.010 C 
HETATM   10  C   UNK N   1      42.758  43.970  44.981  0.00  0.00     0.010 C 
HETATM   11  C   UNK N   1      42.208  46.321  46.927  0.00  0.00     0.015 C 
HETATM   12  C   UNK N   1      40.692  44.668  49.546  0.00  0.00     0.049 C 
ENDROOT
BRANCH   1  13
HETATM   13  C   UNK N   1      43.181  41.646  45.891  0.00  0.00     0.010 C 
HETATM   14  C   UNK N   1      42.840  40.489  46.497  0.00  0.00     0.026 C 
BRANCH  13  15
HETATM   15  C   UNK N   1      44.571  41.833  45.384  0.00  0.00     0.171 C 
HETATM   16  O   UNK N   1      45.451  42.242  46.125  0.00  0.00    -0.646 OA
BRANCH  15  17
HETATM   17  O   UNK N   1      44.856  41.584  44.086  0.00  0.00    -0.773 OA
HETATM   18  H   UNK N   1      45.689  41.878  43.692  0.00  0.00     0.167 HD
ENDBRANCH  15  17
ENDBRANCH  13  15
ENDBRANCH   1  13
BRANCH   4  19
HETATM   19  O   UNK N   1      38.790  43.696  48.435  0.00  0.00    -0.387 OA
HETATM   20  H   UNK N   1      39.204  42.800  48.325  0.00  0.00     0.210 HD
ENDBRANCH   4  19
BRANCH   5  21
HETATM   21  O   UNK N   1      38.039  46.238  49.105  0.00  0.00    -0.393 OA
HETATM   22  H   UNK N   1      38.174  45.574  49.831  0.00  0.00     0.210 HD
ENDBRANCH   5  21
TORSDOF 5
ENDMDL
MODEL 6
REMARK VINA RESULT:      -5.6     13.643     15.434
REMARK  5 active torsions:
REMARK  status: ('A' for Active; 'I' for Inactive)
REMARK    1  A    between atoms: C_2  and  O_3 
REMARK    2  A    between atoms: C_2  and  C_5 
REMARK    3  A    between atoms: C_5  and  C_7 
REMARK    4  A    between atoms: C_10  and  O_11 
REMARK    5  A    between atoms: C_13  and  O_14 
ROOT
HETATM    1  C   UNK N   1      49.291  55.212  43.866  0.00  0.00     0.025 C 
HETATM    2  C   UNK N   1      48.700  56.276  42.912  0.00  0.00     0.018 C 
HETATM    3  C   UNK N   1      48.930  55.896  41.427  0.00  0.00     0.031 C 
HETATM    4  C   UNK N   1      48.194  56.862  40.405  0.00  0.00     0.084 C 
HETATM    5  C   UNK N   1      48.815  56.736  38.963  0.00  0.00     0.152 C 
HETATM    6  C   UNK N   1      49.346  55.322  38.715  0.00  0.00     0.035 C 
HETATM    7  C   UNK N   1      50.540  55.005  39.651  0.00  0.00     0.012 C 
HETATM    8  C   UNK N   1      50.434  55.615  41.100  0.00  0.00    -0.037 C 
HETATM    9  C   UNK N   1      50.983  54.562  42.112  0.00  0.00     0.010 C 
HETATM   10  C   UNK N   1      50.786  54.981  43.578  0.00  0.00     0.010 C 
HETATM   11  C   UNK N   1      51.319  56.893  41.197  0.00  0.00     0.015 C 
HETATM   12  C   UNK N   1      48.219  58.358  40.821  0.00  0.00     0.049 C 
ENDROOT
BRANCH   1  13
HETATM   13  C   UNK N   1      49.059  55.587  45.327  0.00  0.00     0.010 C 
HETATM   14  C   UNK N   1      47.863  56.068  45.729  0.00  0.00     0.026 C 
BRANCH  13  15
HETATM   15  C   UNK N   1      50.163  55.431  46.317  0.00  0.00     0.171 C 
HETATM   16  O   UNK N   1      50.703  56.413  46.804  0.00  0.00    -0.646 OA
BRANCH  15  17
HETATM   17  O   UNK N   1      50.599  54.197  46.655  0.00  0.00    -0.773 OA
HETATM   18  H   UNK N   1      51.132  53.670  46.044  0.00  0.00     0.167 HD
ENDBRANCH  15  17
ENDBRANCH  13  15
ENDBRANCH   1  13
BRANCH   4  19
HETATM   19  O   UNK N   1      46.849  56.426  40.391  0.00  0.00    -0.387 OA
HETATM   20  H   UNK N   1      46.277  57.131  39.990  0.00  0.00     0.210 HD
ENDBRANCH   4  19
BRANCH   5  21
HETATM   21  O   UNK N   1      47.902  57.141  37.971  0.00  0.00    -0.393 OA
HETATM   22  H   UNK N   1      47.229  56.421  37.859  0.00  0.00     0.210 HD
ENDBRANCH   5  21
TORSDOF 5
ENDMDL
MODEL 7
REMARK VINA RESULT:      -5.4     13.503     16.306
REMARK  5 active torsions:
REMARK  status: ('A' for Active; 'I' for Inactive)
REMARK    1  A    between atoms: C_2  and  O_3 
REMARK    2  A    between atoms: C_2  and  C_5 
REMARK    3  A    between atoms: C_5  and  C_7 
REMARK    4  A    between atoms: C_10  and  O_11 
REMARK    5  A    between atoms: C_13  and  O_14 
ROOT
HETATM    1  C   UNK N   1      31.203  55.335  42.849  0.00  0.00     0.025 C 
HETATM    2  C   UNK N   1      30.868  54.130  41.939  0.00  0.00     0.018 C 
HETATM    3  C   UNK N   1      30.190  54.586  40.623  0.00  0.00     0.031 C 
HETATM    4  C   UNK N   1      29.982  53.410  39.578  0.00  0.00     0.084 C 
HETATM    5  C   UNK N   1      28.905  53.800  38.497  0.00  0.00     0.152 C 
HETATM    6  C   UNK N   1      28.908  55.308  38.236  0.00  0.00     0.035 C 
HETATM    7  C   UNK N   1      28.455  56.090  39.496  0.00  0.00     0.012 C 
HETATM    8  C   UNK N   1      28.928  55.478  40.869  0.00  0.00    -0.037 C 
HETATM    9  C   UNK N   1      29.318  56.655  41.817  0.00  0.00     0.010 C 
HETATM   10  C   UNK N   1      29.947  56.178  43.136  0.00  0.00     0.010 C 
HETATM   11  C   UNK N   1      27.754  54.692  41.524  0.00  0.00     0.015 C 
HETATM   12  C   UNK N   1      29.564  52.060  40.222  0.00  0.00     0.049 C 
ENDROOT
BRANCH   1  13
HETATM   13  C   UNK N   1      31.876  54.883  44.143  0.00  0.00     0.010 C 
HETATM   14  C   UNK N   1      31.190  54.161  45.054  0.00  0.00     0.026 C 
BRANCH  13  15
HETATM   15  C   UNK N   1      33.296  55.251  44.408  0.00  0.00     0.171 C 
HETATM   16  O   UNK N   1      34.197  54.463  44.164  0.00  0.00    -0.646 OA
BRANCH  15  17
HETATM   17  O   UNK N   1      33.593  56.451  44.956  0.00  0.00    -0.773 OA
HETATM   18  H   UNK N   1      33.676  57.243  44.409  0.00  0.00     0.167 HD
ENDBRANCH  15  17
ENDBRANCH  13  15
ENDBRANCH   1  13
BRANCH   4  19
HETATM   19  O   UNK N   1      31.243  53.238  38.962  0.00  0.00    -0.387 OA
HETATM   20  H   UNK N   1      31.851  53.970  39.245  0.00  0.00     0.210 HD
ENDBRANCH   4  19
BRANCH   5  21
HETATM   21  O   UNK N   1      29.069  53.057  37.313  0.00  0.00    -0.393 OA
HETATM   22  H   UNK N   1      29.972  52.643  37.331  0.00  0.00     0.210 HD
ENDBRANCH   5  21
TORSDOF 5
ENDMDL
MODEL 8
REMARK VINA RESULT:      -5.3     13.615     16.502
REMARK  5 active torsions:
REMARK  status: ('A' for Active; 'I' for Inactive)
REMARK    1  A    between atoms: C_2  and  O_3 
REMARK    2  A    between atoms: C_2  and  C_5 
REMARK    3  A    between atoms: C_5  and  C_7 
REMARK    4  A    between atoms: C_10  and  O_11 
REMARK    5  A    between atoms: C_13  and  O_14 
ROOT
HETATM    1  C   UNK N   1      50.936  55.145  43.718  0.00  0.00     0.025 C 
HETATM    2  C   UNK N   1      50.231  55.492  42.386  0.00  0.00     0.018 C 
HETATM    3  C   UNK N   1      51.238  55.544  41.209  0.00  0.00     0.031 C 
HETATM    4  C   UNK N   1      50.546  55.723  39.792  0.00  0.00     0.084 C 
HETATM    5  C   UNK N   1      51.583  56.230  38.719  0.00  0.00     0.152 C 
HETATM    6  C   UNK N   1      52.990  55.713  39.027  0.00  0.00     0.035 C 
HETATM    7  C   UNK N   1      53.523  56.311  40.354  0.00  0.00     0.012 C 
HETATM    8  C   UNK N   1      52.440  56.508  41.482  0.00  0.00    -0.037 C 
HETATM    9  C   UNK N   1      53.089  56.132  42.850  0.00  0.00     0.010 C 
HETATM   10  C   UNK N   1      52.081  56.133  44.012  0.00  0.00     0.010 C 
HETATM   11  C   UNK N   1      52.009  58.003  41.540  0.00  0.00     0.015 C 
HETATM   12  C   UNK N   1      49.334  56.695  39.800  0.00  0.00     0.049 C 
ENDROOT
BRANCH   1  13
HETATM   13  C   UNK N   1      49.941  55.091  44.875  0.00  0.00     0.010 C 
HETATM   14  C   UNK N   1      48.614  55.032  44.634  0.00  0.00     0.026 C 
BRANCH  13  15
HETATM   15  C   UNK N   1      50.436  55.115  46.281  0.00  0.00     0.171 C 
HETATM   16  O   UNK N   1      50.432  56.154  46.923  0.00  0.00    -0.646 OA
BRANCH  15  17
HETATM   17  O   UNK N   1      50.930  53.989  46.843  0.00  0.00    -0.773 OA
HETATM   18  H   UNK N   1      51.575  54.030  47.562  0.00  0.00     0.167 HD
ENDBRANCH  15  17
ENDBRANCH  13  15
ENDBRANCH   1  13
BRANCH   4  19
HETATM   19  O   UNK N   1      50.083  54.434  39.443  0.00  0.00    -0.387 OA
HETATM   20  H   UNK N   1      50.623  53.749  39.917  0.00  0.00     0.210 HD
ENDBRANCH   4  19
BRANCH   5  21
HETATM   21  O   UNK N   1      51.173  55.906  37.413  0.00  0.00    -0.393 OA
HETATM   22  H   UNK N   1      50.309  55.419  37.472  0.00  0.00     0.210 HD
ENDBRANCH   5  21
TORSDOF 5
ENDMDL
MODEL 9
REMARK VINA RESULT:      -5.3      3.367      4.569
REMARK  5 active torsions:
REMARK  status: ('A' for Active; 'I' for Inactive)
REMARK    1  A    between atoms: C_2  and  O_3 
REMARK    2  A    between atoms: C_2  and  C_5 
REMARK    3  A    between atoms: C_5  and  C_7 
REMARK    4  A    between atoms: C_10  and  O_11 
REMARK    5  A    between atoms: C_13  and  O_14 
ROOT
HETATM    1  C   UNK N   1      41.302  44.652  48.340  0.00  0.00     0.025 C 
HETATM    2  C   UNK N   1      41.891  43.300  47.875  0.00  0.00     0.018 C 
HETATM    3  C   UNK N   1      42.548  43.420  46.476  0.00  0.00     0.031 C 
HETATM    4  C   UNK N   1      43.320  42.109  46.025  0.00  0.00     0.084 C 
HETATM    5  C   UNK N   1      43.555  42.101  44.467  0.00  0.00     0.152 C 
HETATM    6  C   UNK N   1      43.711  43.525  43.927  0.00  0.00     0.035 C 
HETATM    7  C   UNK N   1      42.394  44.327  44.089  0.00  0.00     0.012 C 
HETATM    8  C   UNK N   1      41.579  44.015  45.401  0.00  0.00    -0.037 C 
HETATM    9  C   UNK N   1      40.991  45.357  45.939  0.00  0.00     0.010 C 
HETATM   10  C   UNK N   1      40.304  45.206  47.306  0.00  0.00     0.010 C 
HETATM   11  C   UNK N   1      40.393  43.062  45.067  0.00  0.00     0.015 C 
HETATM   12  C   UNK N   1      42.605  40.788  46.419  0.00  0.00     0.049 C 
ENDROOT
BRANCH   1  13
HETATM   13  C   UNK N   1      40.660  44.531  49.720  0.00  0.00     0.010 C 
HETATM   14  C   UNK N   1      39.318  44.551  49.855  0.00  0.00     0.026 C 
BRANCH  13  15
HETATM   15  C   UNK N   1      41.523  44.402  50.930  0.00  0.00     0.171 C 
HETATM   16  O   UNK N   1      41.662  43.321  51.480  0.00  0.00    -0.646 OA
BRANCH  15  17
HETATM   17  O   UNK N   1      42.130  45.494  51.447  0.00  0.00    -0.773 OA
HETATM   18  H   UNK N   1      42.323  46.266  50.897  0.00  0.00     0.167 HD
ENDBRANCH  15  17
ENDBRANCH  13  15
ENDBRANCH   1  13
BRANCH   4  19
HETATM   19  O   UNK N   1      44.561  42.163  46.699  0.00  0.00    -0.387 OA
HETATM   20  H   UNK N   1      45.072  41.331  46.518  0.00  0.00     0.210 HD
ENDBRANCH   4  19
BRANCH   5  21
HETATM   21  O   UNK N   1      44.640  41.278  44.113  0.00  0.00    -0.393 OA
HETATM   22  H   UNK N   1      45.344  41.380  44.807  0.00  0.00     0.210 HD
ENDBRANCH   5  21
TORSDOF 5
ENDMDL
