MODEL 1
REMARK VINA RESULT:      -5.8      0.000      0.000
REMARK  10 active torsions:
REMARK  status: ('A' for Active; 'I' for Inactive)
REMARK    1  A    between atoms: C_2  and  O_3 
REMARK    2  A    between atoms: O_3  and  C_4 
REMARK    3  A    between atoms: C_5  and  O_6 
REMARK    4  A    between atoms: O_6  and  C_7 
REMARK    5  A    between atoms: C_7  and  C_8 
REMARK    6  A    between atoms: C_13  and  O_14 
REMARK    7  A    between atoms: C_26  and  O_27 
REMARK    8  A    between atoms: O_27  and  C_28 
REMARK    9  A    between atoms: C_31  and  O_32 
REMARK   10  A    between atoms: O_32  and  C_33 
ROOT
HETATM    1  C   UNK N   1      30.367  45.254  60.259  0.00  0.00     0.219 C 
HETATM    2  C   UNK N   1      30.437  46.353  61.336  0.00  0.00     0.292 C 
HETATM    3  O   UNK N   1      29.353  47.248  61.146  0.00  0.00    -0.356 OA
HETATM    4  C   UNK N   1      29.504  47.958  59.936  0.00  0.00     0.206 C 
HETATM    5  C   UNK N   1      29.335  46.992  58.761  0.00  0.00     0.188 C 
HETATM    6  C   UNK N   1      30.405  45.899  58.860  0.00  0.00     0.198 C 
ENDROOT
BRANCH   2   7
HETATM    7  O   UNK N   1      30.331  45.709  62.600  0.00  0.00    -0.348 OA
BRANCH   7   8
HETATM    8  C   UNK N   1      31.281  46.075  63.609  0.00  0.00     0.060 C 
HETATM    9  C   UNK N   1      31.015  47.509  64.147  0.00  0.00     0.046 C 
HETATM   10  C   UNK N   1      30.981  45.126  64.793  0.00  0.00     0.046 C 
BRANCH   8  11
HETATM   11  C   UNK N   1      32.773  45.914  63.108  0.00  0.00     0.020 C 
HETATM   12  C   UNK N   1      33.718  47.034  63.613  0.00  0.00     0.017 C 
HETATM   13  C   UNK N   1      35.136  46.856  63.033  0.00  0.00     0.025 C 
HETATM   14  C   UNK N   1      36.132  47.965  63.359  0.00  0.00    -0.056 C 
HETATM   15  C   UNK N   1      35.747  45.476  63.436  0.00  0.00    -0.036 C 
HETATM   16  C   UNK N   1      35.856  48.995  64.182  0.00  0.00     0.017 C 
HETATM   17  C   UNK N   1      37.490  47.848  62.700  0.00  0.00     0.146 C 
HETATM   18  C   UNK N   1      38.102  46.485  63.078  0.00  0.00     0.037 C 
HETATM   19  C   UNK N   1      37.137  45.325  62.739  0.00  0.00     0.012 C 
HETATM   20  C   UNK N   1      34.798  44.361  62.912  0.00  0.00     0.010 C 
HETATM   21  C   UNK N   1      35.929  45.343  64.979  0.00  0.00     0.016 C 
HETATM   22  C   UNK N   1      33.361  44.513  63.443  0.00  0.00     0.008 C 
BRANCH  17  23
HETATM   23  O   UNK N   1      37.317  47.935  61.309  0.00  0.00    -0.391 OA
HETATM   24  H   UNK N   1      37.575  48.855  61.042  0.00  0.00     0.210 HD
ENDBRANCH  17  23
ENDBRANCH   8  11
ENDBRANCH   7   8
ENDBRANCH   2   7
BRANCH   1  25
HETATM   25  O   UNK N   1      31.444  44.396  60.417  0.00  0.00    -0.309 OA
BRANCH  25  26
HETATM   26  C   UNK N   1      31.347  43.045  60.537  0.00  0.00     0.255 C 
HETATM   27  O   UNK N   1      30.262  42.486  60.499  0.00  0.00    -0.266 OA
HETATM   28  C   UNK N   1      32.595  42.243  60.728  0.00  0.00     0.126 C 
ENDBRANCH  25  26
ENDBRANCH   1  25
BRANCH   6  29
HETATM   29  O   UNK N   1      30.137  44.935  57.904  0.00  0.00    -0.311 OA
BRANCH  29  30
HETATM   30  C   UNK N   1      31.063  44.202  57.235  0.00  0.00     0.255 C 
HETATM   31  O   UNK N   1      32.209  44.597  57.104  0.00  0.00    -0.266 OA
HETATM   32  C   UNK N   1      30.647  42.891  56.653  0.00  0.00     0.126 C 
ENDBRANCH  29  30
ENDBRANCH   6  29
BRANCH   5  33
HETATM   33  O   UNK N   1      29.482  47.665  57.560  0.00  0.00    -0.311 OA
BRANCH  33  34
HETATM   34  C   UNK N   1      28.523  48.446  56.997  0.00  0.00     0.255 C 
HETATM   35  O   UNK N   1      27.361  48.080  56.948  0.00  0.00    -0.266 OA
HETATM   36  C   UNK N   1      28.917  49.767  56.420  0.00  0.00     0.126 C 
ENDBRANCH  33  34
ENDBRANCH   5  33
TORSDOF 10
ENDMDL
MODEL 2
REMARK VINA RESULT:      -5.4      2.341      2.859
REMARK  10 active torsions:
REMARK  status: ('A' for Active; 'I' for Inactive)
REMARK    1  A    between atoms: C_2  and  O_3 
REMARK    2  A    between atoms: O_3  and  C_4 
REMARK    3  A    between atoms: C_5  and  O_6 
REMARK    4  A    between atoms: O_6  and  C_7 
REMARK    5  A    between atoms: C_7  and  C_8 
REMARK    6  A    between atoms: C_13  and  O_14 
REMARK    7  A    between atoms: C_26  and  O_27 
REMARK    8  A    between atoms: O_27  and  C_28 
REMARK    9  A    between atoms: C_31  and  O_32 
REMARK   10  A    between atoms: O_32  and  C_33 
ROOT
HETATM    1  C   UNK N   1      31.196  43.227  59.588  0.00  0.00     0.219 C 
HETATM    2  C   UNK N   1      30.505  44.079  60.669  0.00  0.00     0.292 C 
HETATM    3  O   UNK N   1      29.136  43.715  60.730  0.00  0.00    -0.356 OA
HETATM    4  C   UNK N   1      28.471  44.084  59.541  0.00  0.00     0.206 C 
HETATM    5  C   UNK N   1      28.984  43.218  58.388  0.00  0.00     0.188 C 
HETATM    6  C   UNK N   1      30.493  43.442  58.233  0.00  0.00     0.198 C 
ENDROOT
BRANCH   2   7
HETATM    7  O   UNK N   1      31.149  43.792  61.904  0.00  0.00    -0.348 OA
BRANCH   7   8
HETATM    8  C   UNK N   1      31.511  44.904  62.734  0.00  0.00     0.060 C 
HETATM    9  C   UNK N   1      30.776  46.202  62.297  0.00  0.00     0.046 C 
HETATM   10  C   UNK N   1      30.940  44.554  64.129  0.00  0.00     0.046 C 
BRANCH   8  11
HETATM   11  C   UNK N   1      33.077  45.118  62.792  0.00  0.00     0.020 C 
HETATM   12  C   UNK N   1      33.488  46.575  63.129  0.00  0.00     0.017 C 
HETATM   13  C   UNK N   1      35.022  46.729  63.100  0.00  0.00     0.025 C 
HETATM   14  C   UNK N   1      35.551  48.147  63.297  0.00  0.00    -0.056 C 
HETATM   15  C   UNK N   1      35.711  45.773  64.125  0.00  0.00    -0.036 C 
HETATM   16  C   UNK N   1      34.764  49.202  63.584  0.00  0.00     0.017 C 
HETATM   17  C   UNK N   1      37.049  48.320  63.160  0.00  0.00     0.146 C 
HETATM   18  C   UNK N   1      37.744  47.372  64.156  0.00  0.00     0.037 C 
HETATM   19  C   UNK N   1      37.260  45.914  63.975  0.00  0.00     0.012 C 
HETATM   20  C   UNK N   1      35.302  44.316  63.768  0.00  0.00     0.010 C 
HETATM   21  C   UNK N   1      35.306  46.097  65.595  0.00  0.00     0.016 C 
HETATM   22  C   UNK N   1      33.776  44.118  63.757  0.00  0.00     0.008 C 
BRANCH  17  23
HETATM   23  O   UNK N   1      37.414  47.993  61.843  0.00  0.00    -0.391 OA
HETATM   24  H   UNK N   1      36.980  48.660  61.249  0.00  0.00     0.210 HD
ENDBRANCH  17  23
ENDBRANCH   8  11
ENDBRANCH   7   8
ENDBRANCH   2   7
BRANCH   1  25
HETATM   25  O   UNK N   1      32.527  43.603  59.497  0.00  0.00    -0.309 OA
BRANCH  25  26
HETATM   26  C   UNK N   1      33.569  42.739  59.369  0.00  0.00     0.255 C 
HETATM   27  O   UNK N   1      34.537  43.019  58.680  0.00  0.00    -0.266 OA
HETATM   28  C   UNK N   1      33.513  41.425  60.081  0.00  0.00     0.126 C 
ENDBRANCH  25  26
ENDBRANCH   1  25
BRANCH   6  29
HETATM   29  O   UNK N   1      30.980  42.528  57.314  0.00  0.00    -0.311 OA
BRANCH  29  30
HETATM   30  C   UNK N   1      31.632  42.831  56.164  0.00  0.00     0.255 C 
HETATM   31  O   UNK N   1      32.448  43.736  56.118  0.00  0.00    -0.266 OA
HETATM   32  C   UNK N   1      31.327  42.030  54.941  0.00  0.00     0.126 C 
ENDBRANCH  29  30
ENDBRANCH   6  29
BRANCH   5  33
HETATM   33  O   UNK N   1      28.350  43.564  57.208  0.00  0.00    -0.311 OA
BRANCH  33  34
HETATM   34  C   UNK N   1      27.574  42.718  56.479  0.00  0.00     0.255 C 
HETATM   35  O   UNK N   1      27.896  42.383  55.351  0.00  0.00    -0.266 OA
HETATM   36  C   UNK N   1      26.303  42.210  57.078  0.00  0.00     0.126 C 
ENDBRANCH  33  34
ENDBRANCH   5  33
TORSDOF 10
ENDMDL
MODEL 3
REMARK VINA RESULT:      -5.3      5.439      8.585
REMARK  10 active torsions:
REMARK  status: ('A' for Active; 'I' for Inactive)
REMARK    1  A    between atoms: C_2  and  O_3 
REMARK    2  A    between atoms: O_3  and  C_4 
REMARK    3  A    between atoms: C_5  and  O_6 
REMARK    4  A    between atoms: O_6  and  C_7 
REMARK    5  A    between atoms: C_7  and  C_8 
REMARK    6  A    between atoms: C_13  and  O_14 
REMARK    7  A    between atoms: C_26  and  O_27 
REMARK    8  A    between atoms: O_27  and  C_28 
REMARK    9  A    between atoms: C_31  and  O_32 
REMARK   10  A    between atoms: O_32  and  C_33 
ROOT
HETATM    1  C   UNK N   1      27.849  39.972  54.416  0.00  0.00     0.219 C 
HETATM    2  C   UNK N   1      26.849  39.596  55.526  0.00  0.00     0.292 C 
HETATM    3  O   UNK N   1      25.839  38.772  54.970  0.00  0.00    -0.356 OA
HETATM    4  C   UNK N   1      25.055  39.499  54.049  0.00  0.00     0.206 C 
HETATM    5  C   UNK N   1      25.905  39.840  52.823  0.00  0.00     0.188 C 
HETATM    6  C   UNK N   1      27.103  40.685  53.270  0.00  0.00     0.198 C 
ENDROOT
BRANCH   2   7
HETATM    7  O   UNK N   1      27.576  38.886  56.522  0.00  0.00    -0.348 OA
BRANCH   7   8
HETATM    8  C   UNK N   1      27.618  39.453  57.838  0.00  0.00     0.060 C 
HETATM    9  C   UNK N   1      26.664  40.673  57.962  0.00  0.00     0.046 C 
HETATM   10  C   UNK N   1      27.016  38.361  58.754  0.00  0.00     0.046 C 
BRANCH   8  11
HETATM   11  C   UNK N   1      29.091  39.824  58.279  0.00  0.00     0.020 C 
HETATM   12  C   UNK N   1      29.339  41.351  58.379  0.00  0.00     0.017 C 
HETATM   13  C   UNK N   1      30.809  41.643  58.744  0.00  0.00     0.025 C 
HETATM   14  C   UNK N   1      31.211  43.115  58.755  0.00  0.00    -0.056 C 
HETATM   15  C   UNK N   1      31.198  40.990  60.109  0.00  0.00    -0.036 C 
HETATM   16  C   UNK N   1      30.341  44.126  58.566  0.00  0.00     0.017 C 
HETATM   17  C   UNK N   1      32.677  43.398  59.005  0.00  0.00     0.146 C 
HETATM   18  C   UNK N   1      33.080  42.748  60.343  0.00  0.00     0.037 C 
HETATM   19  C   UNK N   1      32.717  41.245  60.368  0.00  0.00     0.012 C 
HETATM   20  C   UNK N   1      30.958  39.458  59.991  0.00  0.00     0.010 C 
HETATM   21  C   UNK N   1      30.370  41.571  61.295  0.00  0.00     0.016 C 
HETATM   22  C   UNK N   1      29.508  39.117  59.601  0.00  0.00     0.008 C 
BRANCH  17  23
HETATM   23  O   UNK N   1      33.421  42.843  57.951  0.00  0.00    -0.391 OA
HETATM   24  H   UNK N   1      32.956  42.010  57.676  0.00  0.00     0.210 HD
ENDBRANCH  17  23
ENDBRANCH   8  11
ENDBRANCH   7   8
ENDBRANCH   2   7
BRANCH   1  25
HETATM   25  O   UNK N   1      28.819  40.809  54.944  0.00  0.00    -0.309 OA
BRANCH  25  26
HETATM   26  C   UNK N   1      30.158  40.646  54.775  0.00  0.00     0.255 C 
HETATM   27  O   UNK N   1      30.654  39.532  54.711  0.00  0.00    -0.266 OA
HETATM   28  C   UNK N   1      31.029  41.858  54.675  0.00  0.00     0.126 C 
ENDBRANCH  25  26
ENDBRANCH   1  25
BRANCH   6  29
HETATM   29  O   UNK N   1      27.959  40.837  52.193  0.00  0.00    -0.311 OA
BRANCH  29  30
HETATM   30  C   UNK N   1      28.451  42.015  51.730  0.00  0.00     0.255 C 
HETATM   31  O   UNK N   1      29.466  42.055  51.057  0.00  0.00    -0.266 OA
HETATM   32  C   UNK N   1      27.719  43.272  52.067  0.00  0.00     0.126 C 
ENDBRANCH  29  30
ENDBRANCH   6  29
BRANCH   5  33
HETATM   33  O   UNK N   1      25.159  40.559  51.906  0.00  0.00    -0.311 OA
BRANCH  33  34
HETATM   34  C   UNK N   1      25.042  40.235  50.591  0.00  0.00     0.255 C 
HETATM   35  O   UNK N   1      24.705  39.115  50.247  0.00  0.00    -0.266 OA
HETATM   36  C   UNK N   1      25.348  41.274  49.562  0.00  0.00     0.126 C 
ENDBRANCH  33  34
ENDBRANCH   5  33
TORSDOF 10
ENDMDL
MODEL 4
REMARK VINA RESULT:      -5.2      4.017      9.644
REMARK  10 active torsions:
REMARK  status: ('A' for Active; 'I' for Inactive)
REMARK    1  A    between atoms: C_2  and  O_3 
REMARK    2  A    between atoms: O_3  and  C_4 
REMARK    3  A    between atoms: C_5  and  O_6 
REMARK    4  A    between atoms: O_6  and  C_7 
REMARK    5  A    between atoms: C_7  and  C_8 
REMARK    6  A    between atoms: C_13  and  O_14 
REMARK    7  A    between atoms: C_26  and  O_27 
REMARK    8  A    between atoms: O_27  and  C_28 
REMARK    9  A    between atoms: C_31  and  O_32 
REMARK   10  A    between atoms: O_32  and  C_33 
ROOT
HETATM    1  C   UNK N   1      30.324  43.360  57.774  0.00  0.00     0.219 C 
HETATM    2  C   UNK N   1      28.800  43.189  57.924  0.00  0.00     0.292 C 
HETATM    3  O   UNK N   1      28.307  44.217  58.768  0.00  0.00    -0.356 OA
HETATM    4  C   UNK N   1      28.790  44.052  60.083  0.00  0.00     0.206 C 
HETATM    5  C   UNK N   1      30.297  44.315  60.103  0.00  0.00     0.188 C 
HETATM    6  C   UNK N   1      30.986  43.316  59.166  0.00  0.00     0.198 C 
ENDROOT
BRANCH   2   7
HETATM    7  O   UNK N   1      28.236  43.304  56.623  0.00  0.00    -0.348 OA
BRANCH   7   8
HETATM    8  C   UNK N   1      27.176  42.401  56.281  0.00  0.00     0.060 C 
HETATM    9  C   UNK N   1      26.416  41.912  57.545  0.00  0.00     0.046 C 
HETATM   10  C   UNK N   1      26.162  43.267  55.496  0.00  0.00     0.046 C 
BRANCH   8  11
HETATM   11  C   UNK N   1      27.689  41.184  55.409  0.00  0.00     0.020 C 
HETATM   12  C   UNK N   1      28.332  40.051  56.248  0.00  0.00     0.017 C 
HETATM   13  C   UNK N   1      28.870  38.932  55.333  0.00  0.00     0.025 C 
HETATM   14  C   UNK N   1      29.636  37.813  56.033  0.00  0.00    -0.056 C 
HETATM   15  C   UNK N   1      27.734  38.314  54.458  0.00  0.00    -0.036 C 
HETATM   16  C   UNK N   1      29.763  37.720  57.370  0.00  0.00     0.017 C 
HETATM   17  C   UNK N   1      30.260  36.772  55.127  0.00  0.00     0.146 C 
HETATM   18  C   UNK N   1      29.152  36.161  54.247  0.00  0.00     0.037 C 
HETATM   19  C   UNK N   1      28.365  37.260  53.494  0.00  0.00     0.012 C 
HETATM   20  C   UNK N   1      27.106  39.458  53.612  0.00  0.00     0.010 C 
HETATM   21  C   UNK N   1      26.635  37.626  55.324  0.00  0.00     0.016 C 
HETATM   22  C   UNK N   1      26.578  40.613  54.481  0.00  0.00     0.008 C 
BRANCH  17  23
HETATM   23  O   UNK N   1      31.225  37.404  54.325  0.00  0.00    -0.391 OA
HETATM   24  H   UNK N   1      31.318  38.333  54.662  0.00  0.00     0.210 HD
ENDBRANCH  17  23
ENDBRANCH   8  11
ENDBRANCH   7   8
ENDBRANCH   2   7
BRANCH   1  25
HETATM   25  O   UNK N   1      30.818  42.337  56.980  0.00  0.00    -0.309 OA
BRANCH  25  26
HETATM   26  C   UNK N   1      31.531  42.520  55.837  0.00  0.00     0.255 C 
HETATM   27  O   UNK N   1      32.498  43.265  55.810  0.00  0.00    -0.266 OA
HETATM   28  C   UNK N   1      31.109  41.798  54.597  0.00  0.00     0.126 C 
ENDBRANCH  25  26
ENDBRANCH   1  25
BRANCH   6  29
HETATM   29  O   UNK N   1      32.319  43.672  59.049  0.00  0.00    -0.311 OA
BRANCH  29  30
HETATM   30  C   UNK N   1      33.380  42.852  59.261  0.00  0.00     0.255 C 
HETATM   31  O   UNK N   1      34.452  43.051  58.714  0.00  0.00    -0.266 OA
HETATM   32  C   UNK N   1      33.209  41.690  60.182  0.00  0.00     0.126 C 
ENDBRANCH  29  30
ENDBRANCH   6  29
BRANCH   5  33
HETATM   33  O   UNK N   1      30.797  44.156  61.383  0.00  0.00    -0.311 OA
BRANCH  33  34
HETATM   34  C   UNK N   1      31.535  45.089  62.039  0.00  0.00     0.255 C 
HETATM   35  O   UNK N   1      31.161  46.248  62.115  0.00  0.00    -0.266 OA
HETATM   36  C   UNK N   1      32.831  44.678  62.660  0.00  0.00     0.126 C 
ENDBRANCH  33  34
ENDBRANCH   5  33
TORSDOF 10
ENDMDL
MODEL 5
REMARK VINA RESULT:      -5.0      1.742      2.363
REMARK  10 active torsions:
REMARK  status: ('A' for Active; 'I' for Inactive)
REMARK    1  A    between atoms: C_2  and  O_3 
REMARK    2  A    between atoms: O_3  and  C_4 
REMARK    3  A    between atoms: C_5  and  O_6 
REMARK    4  A    between atoms: O_6  and  C_7 
REMARK    5  A    between atoms: C_7  and  C_8 
REMARK    6  A    between atoms: C_13  and  O_14 
REMARK    7  A    between atoms: C_26  and  O_27 
REMARK    8  A    between atoms: O_27  and  C_28 
REMARK    9  A    between atoms: C_31  and  O_32 
REMARK   10  A    between atoms: O_32  and  C_33 
ROOT
HETATM    1  C   UNK N   1      29.692  46.913  61.254  0.00  0.00     0.219 C 
HETATM    2  C   UNK N   1      30.309  47.436  62.565  0.00  0.00     0.292 C 
HETATM    3  O   UNK N   1      29.543  48.539  63.022  0.00  0.00    -0.356 OA
HETATM    4  C   UNK N   1      29.670  49.631  62.137  0.00  0.00     0.206 C 
HETATM    5  C   UNK N   1      28.983  49.287  60.813  0.00  0.00     0.188 C 
HETATM    6  C   UNK N   1      29.657  48.048  60.212  0.00  0.00     0.198 C 
ENDROOT
BRANCH   2   7
HETATM    7  O   UNK N   1      30.256  46.372  63.508  0.00  0.00    -0.348 OA
BRANCH   7   8
HETATM    8  C   UNK N   1      31.406  46.166  64.337  0.00  0.00     0.060 C 
HETATM    9  C   UNK N   1      31.573  47.311  65.374  0.00  0.00     0.046 C 
HETATM   10  C   UNK N   1      31.072  44.902  65.165  0.00  0.00     0.046 C 
BRANCH   8  11
HETATM   11  C   UNK N   1      32.724  45.962  63.485  0.00  0.00     0.020 C 
HETATM   12  C   UNK N   1      33.932  46.777  64.013  0.00  0.00     0.017 C 
HETATM   13  C   UNK N   1      35.161  46.587  63.100  0.00  0.00     0.025 C 
HETATM   14  C   UNK N   1      36.382  47.434  63.445  0.00  0.00    -0.056 C 
HETATM   15  C   UNK N   1      35.580  45.085  63.013  0.00  0.00    -0.036 C 
HETATM   16  C   UNK N   1      36.455  48.229  64.530  0.00  0.00     0.017 C 
HETATM   17  C   UNK N   1      37.549  47.332  62.486  0.00  0.00     0.146 C 
HETATM   18  C   UNK N   1      37.967  45.853  62.379  0.00  0.00     0.037 C 
HETATM   19  C   UNK N   1      36.764  44.956  62.002  0.00  0.00     0.012 C 
HETATM   20  C   UNK N   1      34.365  44.281  62.469  0.00  0.00     0.010 C 
HETATM   21  C   UNK N   1      36.021  44.518  64.396  0.00  0.00     0.016 C 
HETATM   22  C   UNK N   1      33.104  44.460  63.335  0.00  0.00     0.008 C 
BRANCH  17  23
HETATM   23  O   UNK N   1      37.136  47.813  61.232  0.00  0.00    -0.391 OA
HETATM   24  H   UNK N   1      37.740  47.409  60.555  0.00  0.00     0.210 HD
ENDBRANCH  17  23
ENDBRANCH   8  11
ENDBRANCH   7   8
ENDBRANCH   2   7
BRANCH   1  25
HETATM   25  O   UNK N   1      30.457  45.858  60.783  0.00  0.00    -0.309 OA
BRANCH  25  26
HETATM   26  C   UNK N   1      29.984  44.608  60.537  0.00  0.00     0.255 C 
HETATM   27  O   UNK N   1      28.813  44.326  60.739  0.00  0.00    -0.266 OA
HETATM   28  C   UNK N   1      30.923  43.566  60.019  0.00  0.00     0.126 C 
ENDBRANCH  25  26
ENDBRANCH   1  25
BRANCH   6  29
HETATM   29  O   UNK N   1      28.921  47.638  59.114  0.00  0.00    -0.311 OA
BRANCH  29  30
HETATM   30  C   UNK N   1      29.340  47.665  57.823  0.00  0.00     0.255 C 
HETATM   31  O   UNK N   1      28.721  48.277  56.969  0.00  0.00    -0.266 OA
HETATM   32  C   UNK N   1      30.586  46.923  57.464  0.00  0.00     0.126 C 
ENDBRANCH  29  30
ENDBRANCH   6  29
BRANCH   5  33
HETATM   33  O   UNK N   1      29.097  50.342  59.925  0.00  0.00    -0.311 OA
BRANCH  33  34
HETATM   34  C   UNK N   1      28.047  51.073  59.465  0.00  0.00     0.255 C 
HETATM   35  O   UNK N   1      28.183  52.244  59.153  0.00  0.00    -0.266 OA
HETATM   36  C   UNK N   1      26.706  50.421  59.358  0.00  0.00     0.126 C 
ENDBRANCH  33  34
ENDBRANCH   5  33
TORSDOF 10
ENDMDL
MODEL 6
REMARK VINA RESULT:      -4.9     13.262     18.461
REMARK  10 active torsions:
REMARK  status: ('A' for Active; 'I' for Inactive)
REMARK    1  A    between atoms: C_2  and  O_3 
REMARK    2  A    between atoms: O_3  and  C_4 
REMARK    3  A    between atoms: C_5  and  O_6 
REMARK    4  A    between atoms: O_6  and  C_7 
REMARK    5  A    between atoms: C_7  and  C_8 
REMARK    6  A    between atoms: C_13  and  O_14 
REMARK    7  A    between atoms: C_26  and  O_27 
REMARK    8  A    between atoms: O_27  and  C_28 
REMARK    9  A    between atoms: C_31  and  O_32 
REMARK   10  A    between atoms: O_32  and  C_33 
ROOT
HETATM    1  C   UNK N   1      47.693  52.141  60.992  0.00  0.00     0.219 C 
HETATM    2  C   UNK N   1      47.406  53.552  60.445  0.00  0.00     0.292 C 
HETATM    3  O   UNK N   1      46.316  54.106  61.163  0.00  0.00    -0.356 OA
HETATM    4  C   UNK N   1      45.128  53.396  60.888  0.00  0.00     0.206 C 
HETATM    5  C   UNK N   1      45.230  51.993  61.490  0.00  0.00     0.188 C 
HETATM    6  C   UNK N   1      46.427  51.270  60.861  0.00  0.00     0.198 C 
ENDROOT
BRANCH   2   7
HETATM    7  O   UNK N   1      48.580  54.328  60.650  0.00  0.00    -0.348 OA
BRANCH   7   8
HETATM    8  C   UNK N   1      48.908  55.305  59.654  0.00  0.00     0.060 C 
HETATM    9  C   UNK N   1      47.713  56.259  59.378  0.00  0.00     0.046 C 
HETATM   10  C   UNK N   1      49.998  56.185  60.313  0.00  0.00     0.046 C 
BRANCH   8  11
HETATM   11  C   UNK N   1      49.437  54.640  58.320  0.00  0.00     0.020 C 
HETATM   12  C   UNK N   1      49.590  55.644  57.149  0.00  0.00     0.017 C 
HETATM   13  C   UNK N   1      50.041  54.920  55.864  0.00  0.00     0.025 C 
HETATM   14  C   UNK N   1      50.112  55.782  54.606  0.00  0.00    -0.056 C 
HETATM   15  C   UNK N   1      51.406  54.190  56.069  0.00  0.00    -0.036 C 
HETATM   16  C   UNK N   1      49.904  57.112  54.602  0.00  0.00     0.017 C 
HETATM   17  C   UNK N   1      50.446  55.051  53.323  0.00  0.00     0.146 C 
HETATM   18  C   UNK N   1      51.786  54.314  53.514  0.00  0.00     0.037 C 
HETATM   19  C   UNK N   1      51.752  53.404  54.764  0.00  0.00     0.012 C 
HETATM   20  C   UNK N   1      51.235  53.176  57.236  0.00  0.00     0.010 C 
HETATM   21  C   UNK N   1      52.562  55.185  56.391  0.00  0.00     0.016 C 
HETATM   22  C   UNK N   1      50.759  53.849  58.536  0.00  0.00     0.008 C 
BRANCH  17  23
HETATM   23  O   UNK N   1      49.419  54.131  53.056  0.00  0.00    -0.391 OA
HETATM   24  H   UNK N   1      49.832  53.228  53.055  0.00  0.00     0.210 HD
ENDBRANCH  17  23
ENDBRANCH   8  11
ENDBRANCH   7   8
ENDBRANCH   2   7
BRANCH   1  25
HETATM   25  O   UNK N   1      48.733  51.578  60.270  0.00  0.00    -0.309 OA
BRANCH  25  26
HETATM   26  C   UNK N   1      49.821  50.978  60.819  0.00  0.00     0.255 C 
HETATM   27  O   UNK N   1      50.494  50.185  60.179  0.00  0.00    -0.266 OA
HETATM   28  C   UNK N   1      50.187  51.295  62.234  0.00  0.00     0.126 C 
ENDBRANCH  25  26
ENDBRANCH   1  25
BRANCH   6  29
HETATM   29  O   UNK N   1      46.621  50.076  61.534  0.00  0.00    -0.311 OA
BRANCH  29  30
HETATM   30  C   UNK N   1      46.442  48.835  61.016  0.00  0.00     0.255 C 
HETATM   31  O   UNK N   1      45.953  47.937  61.679  0.00  0.00    -0.266 OA
HETATM   32  C   UNK N   1      46.861  48.586  59.604  0.00  0.00     0.126 C 
ENDBRANCH  29  30
ENDBRANCH   6  29
BRANCH   5  33
HETATM   33  O   UNK N   1      44.077  51.273  61.230  0.00  0.00    -0.311 OA
BRANCH  33  34
HETATM   34  C   UNK N   1      43.102  51.031  62.145  0.00  0.00     0.255 C 
HETATM   35  O   UNK N   1      41.940  50.890  61.805  0.00  0.00    -0.266 OA
HETATM   36  C   UNK N   1      43.474  50.953  63.591  0.00  0.00     0.126 C 
ENDBRANCH  33  34
ENDBRANCH   5  33
TORSDOF 10
ENDMDL
MODEL 7
REMARK VINA RESULT:      -4.9      2.652      5.028
REMARK  10 active torsions:
REMARK  status: ('A' for Active; 'I' for Inactive)
REMARK    1  A    between atoms: C_2  and  O_3 
REMARK    2  A    between atoms: O_3  and  C_4 
REMARK    3  A    between atoms: C_5  and  O_6 
REMARK    4  A    between atoms: O_6  and  C_7 
REMARK    5  A    between atoms: C_7  and  C_8 
REMARK    6  A    between atoms: C_13  and  O_14 
REMARK    7  A    between atoms: C_26  and  O_27 
REMARK    8  A    between atoms: O_27  and  C_28 
REMARK    9  A    between atoms: C_31  and  O_32 
REMARK   10  A    between atoms: O_32  and  C_33 
ROOT
HETATM    1  C   UNK N   1      31.159  42.468  59.172  0.00  0.00     0.219 C 
HETATM    2  C   UNK N   1      31.399  42.339  60.688  0.00  0.00     0.292 C 
HETATM    3  O   UNK N   1      31.740  40.995  60.983  0.00  0.00    -0.356 OA
HETATM    4  C   UNK N   1      30.641  40.141  60.747  0.00  0.00     0.206 C 
HETATM    5  C   UNK N   1      30.364  40.081  59.243  0.00  0.00     0.188 C 
HETATM    6  C   UNK N   1      30.044  41.494  58.741  0.00  0.00     0.198 C 
ENDROOT
BRANCH   2   7
HETATM    7  O   UNK N   1      32.477  43.208  61.017  0.00  0.00    -0.348 OA
BRANCH   7   8
HETATM    8  C   UNK N   1      32.408  43.899  62.270  0.00  0.00     0.060 C 
HETATM    9  C   UNK N   1      31.778  45.310  62.107  0.00  0.00     0.046 C 
HETATM   10  C   UNK N   1      31.394  43.087  63.111  0.00  0.00     0.046 C 
BRANCH   8  11
HETATM   11  C   UNK N   1      33.817  43.975  62.986  0.00  0.00     0.020 C 
HETATM   12  C   UNK N   1      34.658  45.207  62.563  0.00  0.00     0.017 C 
HETATM   13  C   UNK N   1      36.042  45.182  63.243  0.00  0.00     0.025 C 
HETATM   14  C   UNK N   1      37.013  46.278  62.815  0.00  0.00    -0.056 C 
HETATM   15  C   UNK N   1      35.913  45.184  64.800  0.00  0.00    -0.036 C 
HETATM   16  C   UNK N   1      36.682  47.280  61.978  0.00  0.00     0.017 C 
HETATM   17  C   UNK N   1      38.408  46.192  63.397  0.00  0.00     0.146 C 
HETATM   18  C   UNK N   1      38.296  46.180  64.934  0.00  0.00     0.037 C 
HETATM   19  C   UNK N   1      37.342  45.063  65.419  0.00  0.00     0.012 C 
HETATM   20  C   UNK N   1      35.079  43.938  65.212  0.00  0.00     0.010 C 
HETATM   21  C   UNK N   1      35.232  46.483  65.330  0.00  0.00     0.016 C 
HETATM   22  C   UNK N   1      33.696  43.904  64.536  0.00  0.00     0.008 C 
BRANCH  17  23
HETATM   23  O   UNK N   1      39.004  45.003  62.944  0.00  0.00    -0.391 OA
HETATM   24  H   UNK N   1      38.557  44.762  62.091  0.00  0.00     0.210 HD
ENDBRANCH  17  23
ENDBRANCH   8  11
ENDBRANCH   7   8
ENDBRANCH   2   7
BRANCH   1  25
HETATM   25  O   UNK N   1      30.789  43.772  58.881  0.00  0.00    -0.309 OA
BRANCH  25  26
HETATM   26  C   UNK N   1      31.417  44.572  57.979  0.00  0.00     0.255 C 
HETATM   27  O   UNK N   1      32.393  44.178  57.360  0.00  0.00    -0.266 OA
HETATM   28  C   UNK N   1      30.900  45.957  57.756  0.00  0.00     0.126 C 
ENDBRANCH  25  26
ENDBRANCH   1  25
BRANCH   6  29
HETATM   29  O   UNK N   1      29.972  41.463  57.360  0.00  0.00    -0.311 OA
BRANCH  29  30
HETATM   30  C   UNK N   1      28.857  41.684  56.618  0.00  0.00     0.255 C 
HETATM   31  O   UNK N   1      28.414  40.828  55.871  0.00  0.00    -0.266 OA
HETATM   32  C   UNK N   1      28.178  43.009  56.733  0.00  0.00     0.126 C 
ENDBRANCH  29  30
ENDBRANCH   6  29
BRANCH   5  33
HETATM   33  O   UNK N   1      29.287  39.253  58.985  0.00  0.00    -0.311 OA
BRANCH  33  34
HETATM   34  C   UNK N   1      29.363  38.095  58.277  0.00  0.00     0.255 C 
HETATM   35  O   UNK N   1      29.844  38.073  57.156  0.00  0.00    -0.266 OA
HETATM   36  C   UNK N   1      28.833  36.839  58.888  0.00  0.00     0.126 C 
ENDBRANCH  33  34
ENDBRANCH   5  33
TORSDOF 10
ENDMDL
MODEL 8
REMARK VINA RESULT:      -4.9      2.985      3.714
REMARK  10 active torsions:
REMARK  status: ('A' for Active; 'I' for Inactive)
REMARK    1  A    between atoms: C_2  and  O_3 
REMARK    2  A    between atoms: O_3  and  C_4 
REMARK    3  A    between atoms: C_5  and  O_6 
REMARK    4  A    between atoms: O_6  and  C_7 
REMARK    5  A    between atoms: C_7  and  C_8 
REMARK    6  A    between atoms: C_13  and  O_14 
REMARK    7  A    between atoms: C_26  and  O_27 
REMARK    8  A    between atoms: O_27  and  C_28 
REMARK    9  A    between atoms: C_31  and  O_32 
REMARK   10  A    between atoms: O_32  and  C_33 
ROOT
HETATM    1  C   UNK N   1      31.392  42.726  60.214  0.00  0.00     0.219 C 
HETATM    2  C   UNK N   1      30.802  43.344  61.496  0.00  0.00     0.292 C 
HETATM    3  O   UNK N   1      29.566  42.711  61.781  0.00  0.00    -0.356 OA
HETATM    4  C   UNK N   1      28.609  43.022  60.792  0.00  0.00     0.206 C 
HETATM    5  C   UNK N   1      29.014  42.359  59.473  0.00  0.00     0.188 C 
HETATM    6  C   UNK N   1      30.390  42.891  59.054  0.00  0.00     0.198 C 
ENDROOT
BRANCH   2   7
HETATM    7  O   UNK N   1      31.734  43.106  62.544  0.00  0.00    -0.348 OA
BRANCH   7   8
HETATM    8  C   UNK N   1      31.681  43.972  63.684  0.00  0.00     0.060 C 
HETATM    9  C   UNK N   1      30.749  45.190  63.431  0.00  0.00     0.046 C 
HETATM   10  C   UNK N   1      30.979  43.134  64.780  0.00  0.00     0.046 C 
BRANCH   8  11
HETATM   11  C   UNK N   1      33.121  44.434  64.149  0.00  0.00     0.020 C 
HETATM   12  C   UNK N   1      34.151  44.497  62.993  0.00  0.00     0.017 C 
HETATM   13  C   UNK N   1      35.546  44.885  63.525  0.00  0.00     0.025 C 
HETATM   14  C   UNK N   1      36.677  44.864  62.501  0.00  0.00    -0.056 C 
HETATM   15  C   UNK N   1      35.518  46.275  64.237  0.00  0.00    -0.036 C 
HETATM   16  C   UNK N   1      36.490  44.628  61.189  0.00  0.00     0.017 C 
HETATM   17  C   UNK N   1      38.064  45.136  63.043  0.00  0.00     0.146 C 
HETATM   18  C   UNK N   1      38.050  46.500  63.761  0.00  0.00     0.037 C 
HETATM   19  C   UNK N   1      36.935  46.559  64.831  0.00  0.00     0.012 C 
HETATM   20  C   UNK N   1      34.491  46.195  65.402  0.00  0.00     0.010 C 
HETATM   21  C   UNK N   1      35.130  47.427  63.261  0.00  0.00     0.016 C 
HETATM   22  C   UNK N   1      33.087  45.783  64.923  0.00  0.00     0.008 C 
BRANCH  17  23
HETATM   23  O   UNK N   1      38.396  44.114  63.948  0.00  0.00    -0.391 OA
HETATM   24  H   UNK N   1      38.165  43.254  63.510  0.00  0.00     0.210 HD
ENDBRANCH  17  23
ENDBRANCH   8  11
ENDBRANCH   7   8
ENDBRANCH   2   7
BRANCH   1  25
HETATM   25  O   UNK N   1      32.582  43.366  59.909  0.00  0.00    -0.309 OA
BRANCH  25  26
HETATM   26  C   UNK N   1      33.706  42.742  59.466  0.00  0.00     0.255 C 
HETATM   27  O   UNK N   1      34.498  43.315  58.734  0.00  0.00    -0.266 OA
HETATM   28  C   UNK N   1      33.961  41.328  59.881  0.00  0.00     0.126 C 
ENDBRANCH  25  26
ENDBRANCH   1  25
BRANCH   6  29
HETATM   29  O   UNK N   1      30.829  42.160  57.963  0.00  0.00    -0.311 OA
BRANCH  29  30
HETATM   30  C   UNK N   1      31.074  42.655  56.724  0.00  0.00     0.255 C 
HETATM   31  O   UNK N   1      32.041  43.365  56.506  0.00  0.00    -0.266 OA
HETATM   32  C   UNK N   1      30.128  42.312  55.620  0.00  0.00     0.126 C 
ENDBRANCH  29  30
ENDBRANCH   6  29
BRANCH   5  33
HETATM   33  O   UNK N   1      28.093  42.653  58.484  0.00  0.00    -0.311 OA
BRANCH  33  34
HETATM   34  C   UNK N   1      27.049  41.851  58.146  0.00  0.00     0.255 C 
HETATM   35  O   UNK N   1      25.904  42.149  58.443  0.00  0.00    -0.266 OA
HETATM   36  C   UNK N   1      27.325  40.579  57.412  0.00  0.00     0.126 C 
ENDBRANCH  33  34
ENDBRANCH   5  33
TORSDOF 10
ENDMDL
MODEL 9
REMARK VINA RESULT:      -4.9      4.905      8.135
REMARK  10 active torsions:
REMARK  status: ('A' for Active; 'I' for Inactive)
REMARK    1  A    between atoms: C_2  and  O_3 
REMARK    2  A    between atoms: O_3  and  C_4 
REMARK    3  A    between atoms: C_5  and  O_6 
REMARK    4  A    between atoms: O_6  and  C_7 
REMARK    5  A    between atoms: C_7  and  C_8 
REMARK    6  A    between atoms: C_13  and  O_14 
REMARK    7  A    between atoms: C_26  and  O_27 
REMARK    8  A    between atoms: O_27  and  C_28 
REMARK    9  A    between atoms: C_31  and  O_32 
REMARK   10  A    between atoms: O_32  and  C_33 
ROOT
HETATM    1  C   UNK N   1      29.049  40.919  55.642  0.00  0.00     0.219 C 
HETATM    2  C   UNK N   1      28.441  40.931  57.058  0.00  0.00     0.292 C 
HETATM    3  O   UNK N   1      27.616  39.787  57.210  0.00  0.00    -0.356 OA
HETATM    4  C   UNK N   1      26.490  39.872  56.365  0.00  0.00     0.206 C 
HETATM    5  C   UNK N   1      26.943  39.751  54.908  0.00  0.00     0.188 C 
HETATM    6  C   UNK N   1      27.917  40.893  54.596  0.00  0.00     0.198 C 
ENDROOT
BRANCH   2   7
HETATM    7  O   UNK N   1      29.524  40.887  57.979  0.00  0.00    -0.348 OA
BRANCH   7   8
HETATM    8  C   UNK N   1      29.506  41.823  59.064  0.00  0.00     0.060 C 
HETATM    9  C   UNK N   1      28.253  41.629  59.962  0.00  0.00     0.046 C 
HETATM   10  C   UNK N   1      30.714  41.425  59.946  0.00  0.00     0.046 C 
BRANCH   8  11
HETATM   11  C   UNK N   1      29.631  43.318  58.562  0.00  0.00     0.020 C 
HETATM   12  C   UNK N   1      28.471  44.229  59.042  0.00  0.00     0.017 C 
HETATM   13  C   UNK N   1      28.617  45.650  58.461  0.00  0.00     0.025 C 
HETATM   14  C   UNK N   1      27.471  46.612  58.762  0.00  0.00    -0.056 C 
HETATM   15  C   UNK N   1      29.969  46.305  58.889  0.00  0.00    -0.036 C 
HETATM   16  C   UNK N   1      26.435  46.306  59.565  0.00  0.00     0.017 C 
HETATM   17  C   UNK N   1      27.558  47.971  58.102  0.00  0.00     0.146 C 
HETATM   18  C   UNK N   1      28.894  48.626  58.504  0.00  0.00     0.037 C 
HETATM   19  C   UNK N   1      30.091  47.697  58.191  0.00  0.00     0.012 C 
HETATM   20  C   UNK N   1      31.123  45.390  58.390  0.00  0.00     0.010 C 
HETATM   21  C   UNK N   1      30.066  46.495  60.434  0.00  0.00     0.016 C 
HETATM   22  C   UNK N   1      31.006  43.951  58.923  0.00  0.00     0.008 C 
BRANCH  17  23
HETATM   23  O   UNK N   1      27.505  47.793  56.709  0.00  0.00    -0.391 OA
HETATM   24  H   UNK N   1      26.991  48.557  56.339  0.00  0.00     0.210 HD
ENDBRANCH  17  23
ENDBRANCH   8  11
ENDBRANCH   7   8
ENDBRANCH   2   7
BRANCH   1  25
HETATM   25  O   UNK N   1      29.827  42.053  55.473  0.00  0.00    -0.309 OA
BRANCH  25  26
HETATM   26  C   UNK N   1      31.134  42.046  55.100  0.00  0.00     0.255 C 
HETATM   27  O   UNK N   1      31.504  41.429  54.113  0.00  0.00    -0.266 OA
HETATM   28  C   UNK N   1      32.126  42.804  55.922  0.00  0.00     0.126 C 
ENDBRANCH  25  26
ENDBRANCH   1  25
BRANCH   6  29
HETATM   29  O   UNK N   1      28.459  40.676  53.341  0.00  0.00    -0.311 OA
BRANCH  29  30
HETATM   30  C   UNK N   1      28.246  41.443  52.241  0.00  0.00     0.255 C 
HETATM   31  O   UNK N   1      27.993  40.940  51.159  0.00  0.00    -0.266 OA
HETATM   32  C   UNK N   1      28.329  42.927  52.382  0.00  0.00     0.126 C 
ENDBRANCH  29  30
ENDBRANCH   6  29
BRANCH   5  33
HETATM   33  O   UNK N   1      25.856  39.836  54.057  0.00  0.00    -0.311 OA
BRANCH  33  34
HETATM   34  C   UNK N   1      25.463  38.844  53.214  0.00  0.00     0.255 C 
HETATM   35  O   UNK N   1      26.253  38.322  52.445  0.00  0.00    -0.266 OA
HETATM   36  C   UNK N   1      24.035  38.406  53.232  0.00  0.00     0.126 C 
ENDBRANCH  33  34
ENDBRANCH   5  33
TORSDOF 10
ENDMDL
