MODEL 1
REMARK VINA RESULT:      -7.6      0.000      0.000
REMARK  4 active torsions:
REMARK  status: ('A' for Active; 'I' for Inactive)
REMARK    1  A    between atoms: C_2  and  O_3 
REMARK    2  A    between atoms: C_2  and  C_5 
REMARK    3  A    between atoms: C_5  and  C_7 
REMARK    4  A    between atoms: C_11  and  O_12 
ROOT
HETATM    1  C   UNK N   1      40.913  44.933  51.229  0.00  0.00     0.028 C 
HETATM    2  C   UNK N   1      42.118  45.341  50.350  0.00  0.00     0.045 C 
HETATM    3  C   UNK N   1      41.651  45.666  48.931  0.00  0.00    -0.066 C 
HETATM    4  C   UNK N   1      41.929  46.871  48.330  0.00  0.00    -0.052 C 
HETATM    5  C   UNK N   1      41.561  47.159  46.876  0.00  0.00     0.149 C 
HETATM    6  C   UNK N   1      41.117  45.908  46.098  0.00  0.00     0.037 C 
HETATM    7  C   UNK N   1      40.144  45.108  46.934  0.00  0.00     0.016 C 
HETATM    8  C   UNK N   1      40.832  44.574  48.223  0.00  0.00    -0.020 C 
HETATM    9  C   UNK N   1      39.683  44.122  49.174  0.00  0.00     0.014 C 
HETATM   10  C   UNK N   1      40.160  43.751  50.587  0.00  0.00     0.011 C 
HETATM   11  C   UNK N   1      41.755  43.374  47.887  0.00  0.00     0.020 C 
HETATM   12  C   UNK N   1      42.628  47.981  49.087  0.00  0.00     0.046 C 
ENDROOT
BRANCH   1  13
HETATM   13  C   UNK N   1      41.261  44.599  52.681  0.00  0.00     0.010 C 
HETATM   14  C   UNK N   1      41.743  45.530  53.534  0.00  0.00     0.026 C 
BRANCH  13  15
HETATM   15  C   UNK N   1      41.092  43.192  53.154  0.00  0.00     0.171 C 
HETATM   16  O   UNK N   1      42.037  42.419  53.159  0.00  0.00    -0.646 OA
BRANCH  15  17
HETATM   17  O   UNK N   1      39.882  42.767  53.582  0.00  0.00    -0.773 OA
HETATM   18  H   UNK N   1      39.083  42.920  53.057  0.00  0.00     0.167 HD
ENDBRANCH  15  17
ENDBRANCH  13  15
ENDBRANCH   1  13
BRANCH   5  19
HETATM   19  O   UNK N   1      42.711  47.687  46.233  0.00  0.00    -0.386 OA
HETATM   20  C   UNK N   1      42.446  48.944  45.653  0.00  0.00     0.202 C 
ENDBRANCH   5  19
TORSDOF 4
ENDMDL
MODEL 2
REMARK VINA RESULT:      -6.8      3.558      7.087
REMARK  4 active torsions:
REMARK  status: ('A' for Active; 'I' for Inactive)
REMARK    1  A    between atoms: C_2  and  O_3 
REMARK    2  A    between atoms: C_2  and  C_5 
REMARK    3  A    between atoms: C_5  and  C_7 
REMARK    4  A    between atoms: C_11  and  O_12 
ROOT
HETATM    1  C   UNK N   1      39.743  47.760  45.291  0.00  0.00     0.028 C 
HETATM    2  C   UNK N   1      41.158  47.138  45.316  0.00  0.00     0.045 C 
HETATM    3  C   UNK N   1      41.170  45.887  46.195  0.00  0.00    -0.066 C 
HETATM    4  C   UNK N   1      41.601  44.670  45.725  0.00  0.00    -0.052 C 
HETATM    5  C   UNK N   1      41.719  43.443  46.627  0.00  0.00     0.149 C 
HETATM    6  C   UNK N   1      41.580  43.771  48.124  0.00  0.00     0.037 C 
HETATM    7  C   UNK N   1      40.407  44.701  48.335  0.00  0.00     0.016 C 
HETATM    8  C   UNK N   1      40.650  46.066  47.631  0.00  0.00    -0.020 C 
HETATM    9  C   UNK N   1      39.265  46.778  47.572  0.00  0.00     0.014 C 
HETATM   10  C   UNK N   1      39.266  48.062  46.726  0.00  0.00     0.011 C 
HETATM   11  C   UNK N   1      41.660  46.920  48.442  0.00  0.00     0.020 C 
HETATM   12  C   UNK N   1      41.991  44.485  44.273  0.00  0.00     0.046 C 
ENDROOT
BRANCH   1  13
HETATM   13  C   UNK N   1      39.608  49.015  44.425  0.00  0.00     0.010 C 
HETATM   14  C   UNK N   1      40.275  50.155  44.709  0.00  0.00     0.026 C 
BRANCH  13  15
HETATM   15  C   UNK N   1      38.686  48.981  43.251  0.00  0.00     0.171 C 
HETATM   16  O   UNK N   1      37.591  48.445  43.334  0.00  0.00    -0.646 OA
BRANCH  15  17
HETATM   17  O   UNK N   1      39.062  49.546  42.082  0.00  0.00    -0.773 OA
HETATM   18  H   UNK N   1      39.554  49.042  41.417  0.00  0.00     0.167 HD
ENDBRANCH  15  17
ENDBRANCH  13  15
ENDBRANCH   1  13
BRANCH   5  19
HETATM   19  O   UNK N   1      43.003  42.875  46.422  0.00  0.00    -0.386 OA
HETATM   20  C   UNK N   1      42.925  41.480  46.235  0.00  0.00     0.202 C 
ENDBRANCH   5  19
TORSDOF 4
ENDMDL
MODEL 3
REMARK VINA RESULT:      -6.6      1.539      6.030
REMARK  4 active torsions:
REMARK  status: ('A' for Active; 'I' for Inactive)
REMARK    1  A    between atoms: C_2  and  O_3 
REMARK    2  A    between atoms: C_2  and  C_5 
REMARK    3  A    between atoms: C_5  and  C_7 
REMARK    4  A    between atoms: C_11  and  O_12 
ROOT
HETATM    1  C   UNK N   1      41.598  46.559  47.182  0.00  0.00     0.028 C 
HETATM    2  C   UNK N   1      41.095  46.774  48.628  0.00  0.00     0.045 C 
HETATM    3  C   UNK N   1      41.122  45.455  49.400  0.00  0.00    -0.066 C 
HETATM    4  C   UNK N   1      41.795  45.319  50.590  0.00  0.00    -0.052 C 
HETATM    5  C   UNK N   1      41.735  44.038  51.419  0.00  0.00     0.149 C 
HETATM    6  C   UNK N   1      40.655  43.051  50.940  0.00  0.00     0.037 C 
HETATM    7  C   UNK N   1      40.712  42.924  49.435  0.00  0.00     0.016 C 
HETATM    8  C   UNK N   1      40.369  44.280  48.753  0.00  0.00    -0.020 C 
HETATM    9  C   UNK N   1      40.833  44.150  47.271  0.00  0.00     0.014 C 
HETATM   10  C   UNK N   1      40.762  45.468  46.483  0.00  0.00     0.011 C 
HETATM   11  C   UNK N   1      38.843  44.547  48.818  0.00  0.00     0.020 C 
HETATM   12  C   UNK N   1      42.633  46.450  51.149  0.00  0.00     0.046 C 
ENDROOT
BRANCH   1  13
HETATM   13  C   UNK N   1      41.629  47.822  46.318  0.00  0.00     0.010 C 
HETATM   14  C   UNK N   1      42.773  48.499  46.081  0.00  0.00     0.026 C 
BRANCH  13  15
HETATM   15  C   UNK N   1      40.346  48.333  45.749  0.00  0.00     0.171 C 
HETATM   16  O   UNK N   1      40.099  48.209  44.559  0.00  0.00    -0.646 OA
BRANCH  15  17
HETATM   17  O   UNK N   1      39.446  48.940  46.555  0.00  0.00    -0.773 OA
HETATM   18  H   UNK N   1      39.170  48.537  47.391  0.00  0.00     0.167 HD
ENDBRANCH  15  17
ENDBRANCH  13  15
ENDBRANCH   1  13
BRANCH   5  19
HETATM   19  O   UNK N   1      41.432  44.400  52.758  0.00  0.00    -0.386 OA
HETATM   20  C   UNK N   1      40.250  43.776  53.205  0.00  0.00     0.202 C 
ENDBRANCH   5  19
TORSDOF 4
ENDMDL
MODEL 4
REMARK VINA RESULT:      -6.3     11.971     14.179
REMARK  4 active torsions:
REMARK  status: ('A' for Active; 'I' for Inactive)
REMARK    1  A    between atoms: C_2  and  O_3 
REMARK    2  A    between atoms: C_2  and  C_5 
REMARK    3  A    between atoms: C_5  and  C_7 
REMARK    4  A    between atoms: C_11  and  O_12 
ROOT
HETATM    1  C   UNK N   1      33.563  51.819  43.329  0.00  0.00     0.028 C 
HETATM    2  C   UNK N   1      32.028  51.800  43.145  0.00  0.00     0.045 C 
HETATM    3  C   UNK N   1      31.501  53.222  42.956  0.00  0.00    -0.066 C 
HETATM    4  C   UNK N   1      30.745  53.581  41.866  0.00  0.00    -0.052 C 
HETATM    5  C   UNK N   1      30.124  54.969  41.725  0.00  0.00     0.149 C 
HETATM    6  C   UNK N   1      30.195  55.803  43.017  0.00  0.00     0.037 C 
HETATM    7  C   UNK N   1      31.580  55.699  43.615  0.00  0.00     0.016 C 
HETATM    8  C   UNK N   1      31.886  54.236  44.047  0.00  0.00    -0.020 C 
HETATM    9  C   UNK N   1      33.426  54.162  44.270  0.00  0.00     0.014 C 
HETATM   10  C   UNK N   1      33.949  52.736  44.507  0.00  0.00     0.011 C 
HETATM   11  C   UNK N   1      31.135  53.891  45.359  0.00  0.00     0.020 C 
HETATM   12  C   UNK N   1      30.481  52.603  40.740  0.00  0.00     0.046 C 
ENDROOT
BRANCH   1  13
HETATM   13  C   UNK N   1      34.204  50.441  43.513  0.00  0.00     0.010 C 
HETATM   14  C   UNK N   1      35.537  50.251  43.398  0.00  0.00     0.026 C 
BRANCH  13  15
HETATM   15  C   UNK N   1      33.321  49.271  43.797  0.00  0.00     0.171 C 
HETATM   16  O   UNK N   1      33.062  48.459  42.921  0.00  0.00    -0.646 OA
BRANCH  15  17
HETATM   17  O   UNK N   1      32.800  49.104  45.032  0.00  0.00    -0.773 OA
HETATM   18  H   UNK N   1      33.354  49.172  45.823  0.00  0.00     0.167 HD
ENDBRANCH  15  17
ENDBRANCH  13  15
ENDBRANCH   1  13
BRANCH   5  19
HETATM   19  O   UNK N   1      28.755  54.802  41.389  0.00  0.00    -0.386 OA
HETATM   20  C   UNK N   1      27.912  55.259  42.421  0.00  0.00     0.202 C 
ENDBRANCH   5  19
TORSDOF 4
ENDMDL
MODEL 5
REMARK VINA RESULT:      -6.0     14.130     16.583
REMARK  4 active torsions:
REMARK  status: ('A' for Active; 'I' for Inactive)
REMARK    1  A    between atoms: C_2  and  O_3 
REMARK    2  A    between atoms: C_2  and  C_5 
REMARK    3  A    between atoms: C_5  and  C_7 
REMARK    4  A    between atoms: C_11  and  O_12 
ROOT
HETATM    1  C   UNK N   1      31.545  54.904  43.036  0.00  0.00     0.028 C 
HETATM    2  C   UNK N   1      30.662  53.660  42.785  0.00  0.00     0.045 C 
HETATM    3  C   UNK N   1      29.920  53.797  41.456  0.00  0.00    -0.066 C 
HETATM    4  C   UNK N   1      30.008  52.844  40.470  0.00  0.00    -0.052 C 
HETATM    5  C   UNK N   1      29.185  52.922  39.185  0.00  0.00     0.149 C 
HETATM    6  C   UNK N   1      28.078  53.990  39.234  0.00  0.00     0.037 C 
HETATM    7  C   UNK N   1      28.634  55.275  39.802  0.00  0.00     0.016 C 
HETATM    8  C   UNK N   1      29.086  55.077  41.277  0.00  0.00    -0.020 C 
HETATM    9  C   UNK N   1      29.981  56.304  41.626  0.00  0.00     0.014 C 
HETATM   10  C   UNK N   1      30.690  56.186  42.985  0.00  0.00     0.011 C 
HETATM   11  C   UNK N   1      27.854  55.024  42.218  0.00  0.00     0.020 C 
HETATM   12  C   UNK N   1      30.932  51.653  40.612  0.00  0.00     0.046 C 
ENDROOT
BRANCH   1  13
HETATM   13  C   UNK N   1      32.350  54.868  44.337  0.00  0.00     0.010 C 
HETATM   14  C   UNK N   1      31.846  54.345  45.476  0.00  0.00     0.026 C 
BRANCH  13  15
HETATM   15  C   UNK N   1      33.721  55.461  44.349  0.00  0.00     0.171 C 
HETATM   16  O   UNK N   1      34.634  54.929  43.737  0.00  0.00    -0.646 OA
BRANCH  15  17
HETATM   17  O   UNK N   1      33.958  56.597  45.042  0.00  0.00    -0.773 OA
HETATM   18  H   UNK N   1      33.315  56.938  45.681  0.00  0.00     0.167 HD
ENDBRANCH  15  17
ENDBRANCH  13  15
ENDBRANCH   1  13
BRANCH   5  19
HETATM   19  O   UNK N   1      28.566  51.660  38.989  0.00  0.00    -0.386 OA
HETATM   20  C   UNK N   1      27.311  51.597  39.628  0.00  0.00     0.202 C 
ENDBRANCH   5  19
TORSDOF 4
ENDMDL
MODEL 6
REMARK VINA RESULT:      -5.8     13.680     16.306
REMARK  4 active torsions:
REMARK  status: ('A' for Active; 'I' for Inactive)
REMARK    1  A    between atoms: C_2  and  O_3 
REMARK    2  A    between atoms: C_2  and  C_5 
REMARK    3  A    between atoms: C_5  and  C_7 
REMARK    4  A    between atoms: C_11  and  O_12 
ROOT
HETATM    1  C   UNK N   1      29.123  54.287  41.930  0.00  0.00     0.028 C 
HETATM    2  C   UNK N   1      30.466  53.752  41.381  0.00  0.00     0.045 C 
HETATM    3  C   UNK N   1      31.292  53.139  42.511  0.00  0.00    -0.066 C 
HETATM    4  C   UNK N   1      31.763  51.849  42.453  0.00  0.00    -0.052 C 
HETATM    5  C   UNK N   1      32.680  51.267  43.528  0.00  0.00     0.149 C 
HETATM    6  C   UNK N   1      33.229  52.326  44.500  0.00  0.00     0.037 C 
HETATM    7  C   UNK N   1      32.111  53.244  44.938  0.00  0.00     0.016 C 
HETATM    8  C   UNK N   1      31.547  54.043  43.729  0.00  0.00    -0.020 C 
HETATM    9  C   UNK N   1      30.185  54.637  44.198  0.00  0.00     0.014 C 
HETATM   10  C   UNK N   1      29.375  55.295  43.069  0.00  0.00     0.011 C 
HETATM   11  C   UNK N   1      32.521  55.182  43.330  0.00  0.00     0.020 C 
HETATM   12  C   UNK N   1      31.398  50.933  41.304  0.00  0.00     0.046 C 
ENDROOT
BRANCH   1  13
HETATM   13  C   UNK N   1      28.203  54.912  40.878  0.00  0.00     0.010 C 
HETATM   14  C   UNK N   1      28.688  55.515  39.771  0.00  0.00     0.026 C 
BRANCH  13  15
HETATM   15  C   UNK N   1      26.727  54.879  41.106  0.00  0.00     0.171 C 
HETATM   16  O   UNK N   1      26.047  55.877  40.924  0.00  0.00    -0.646 OA
BRANCH  15  17
HETATM   17  O   UNK N   1      26.135  53.736  41.517  0.00  0.00    -0.773 OA
HETATM   18  H   UNK N   1      25.361  53.380  41.058  0.00  0.00     0.167 HD
ENDBRANCH  15  17
ENDBRANCH  13  15
ENDBRANCH   1  13
BRANCH   5  19
HETATM   19  O   UNK N   1      33.784  50.660  42.875  0.00  0.00    -0.386 OA
HETATM   20  C   UNK N   1      34.974  50.829  43.610  0.00  0.00     0.202 C 
ENDBRANCH   5  19
TORSDOF 4
ENDMDL
MODEL 7
REMARK VINA RESULT:      -5.6     14.252     16.314
REMARK  4 active torsions:
REMARK  status: ('A' for Active; 'I' for Inactive)
REMARK    1  A    between atoms: C_2  and  O_3 
REMARK    2  A    between atoms: C_2  and  C_5 
REMARK    3  A    between atoms: C_5  and  C_7 
REMARK    4  A    between atoms: C_11  and  O_12 
ROOT
HETATM    1  C   UNK N   1      31.277  52.800  42.948  0.00  0.00     0.028 C 
HETATM    2  C   UNK N   1      30.744  54.108  42.320  0.00  0.00     0.045 C 
HETATM    3  C   UNK N   1      29.666  53.795  41.282  0.00  0.00    -0.066 C 
HETATM    4  C   UNK N   1      28.410  54.349  41.345  0.00  0.00    -0.052 C 
HETATM    5  C   UNK N   1      27.366  54.126  40.253  0.00  0.00     0.149 C 
HETATM    6  C   UNK N   1      27.940  53.474  38.983  0.00  0.00     0.037 C 
HETATM    7  C   UNK N   1      28.830  52.313  39.365  0.00  0.00     0.016 C 
HETATM    8  C   UNK N   1      30.064  52.805  40.174  0.00  0.00    -0.020 C 
HETATM    9  C   UNK N   1      30.681  51.539  40.839  0.00  0.00     0.014 C 
HETATM   10  C   UNK N   1      31.797  51.853  41.849  0.00  0.00     0.011 C 
HETATM   11  C   UNK N   1      31.097  53.476  39.231  0.00  0.00     0.020 C 
HETATM   12  C   UNK N   1      27.997  55.222  42.511  0.00  0.00     0.046 C 
ENDROOT
BRANCH   1  13
HETATM   13  C   UNK N   1      32.355  52.994  44.018  0.00  0.00     0.010 C 
HETATM   14  C   UNK N   1      33.447  52.202  44.085  0.00  0.00     0.026 C 
BRANCH  13  15
HETATM   15  C   UNK N   1      32.170  54.073  45.034  0.00  0.00     0.171 C 
HETATM   16  O   UNK N   1      33.054  54.890  45.242  0.00  0.00    -0.646 OA
BRANCH  15  17
HETATM   17  O   UNK N   1      31.016  54.150  45.733  0.00  0.00    -0.773 OA
HETATM   18  H   UNK N   1      30.168  54.289  45.287  0.00  0.00     0.167 HD
ENDBRANCH  15  17
ENDBRANCH  13  15
ENDBRANCH   1  13
BRANCH   5  19
HETATM   19  O   UNK N   1      26.838  55.394  39.892  0.00  0.00    -0.386 OA
HETATM   20  C   UNK N   1      27.585  55.986  38.854  0.00  0.00     0.202 C 
ENDBRANCH   5  19
TORSDOF 4
ENDMDL
MODEL 8
REMARK VINA RESULT:      -5.0     13.560     16.088
REMARK  4 active torsions:
REMARK  status: ('A' for Active; 'I' for Inactive)
REMARK    1  A    between atoms: C_2  and  O_3 
REMARK    2  A    between atoms: C_2  and  C_5 
REMARK    3  A    between atoms: C_5  and  C_7 
REMARK    4  A    between atoms: C_11  and  O_12 
ROOT
HETATM    1  C   UNK N   1      34.183  49.121  63.692  0.00  0.00     0.028 C 
HETATM    2  C   UNK N   1      35.572  48.545  64.052  0.00  0.00     0.045 C 
HETATM    3  C   UNK N   1      35.740  47.152  63.444  0.00  0.00    -0.066 C 
HETATM    4  C   UNK N   1      36.796  46.836  62.624  0.00  0.00    -0.052 C 
HETATM    5  C   UNK N   1      37.028  45.419  62.103  0.00  0.00     0.149 C 
HETATM    6  C   UNK N   1      36.149  44.363  62.795  0.00  0.00     0.037 C 
HETATM    7  C   UNK N   1      34.726  44.864  62.886  0.00  0.00     0.016 C 
HETATM    8  C   UNK N   1      34.643  46.130  63.787  0.00  0.00    -0.020 C 
HETATM    9  C   UNK N   1      33.255  46.777  63.499  0.00  0.00     0.014 C 
HETATM   10  C   UNK N   1      33.070  48.158  64.150  0.00  0.00     0.011 C 
HETATM   11  C   UNK N   1      34.754  45.737  65.283  0.00  0.00     0.020 C 
HETATM   12  C   UNK N   1      37.797  47.889  62.197  0.00  0.00     0.046 C 
ENDROOT
BRANCH   1  13
HETATM   13  C   UNK N   1      33.911  50.525  64.238  0.00  0.00     0.010 C 
HETATM   14  C   UNK N   1      33.228  50.727  65.386  0.00  0.00     0.026 C 
BRANCH  13  15
HETATM   15  C   UNK N   1      34.389  51.704  63.455  0.00  0.00     0.171 C 
HETATM   16  O   UNK N   1      34.496  51.642  62.240  0.00  0.00    -0.646 OA
BRANCH  15  17
HETATM   17  O   UNK N   1      34.709  52.852  64.094  0.00  0.00    -0.773 OA
HETATM   18  H   UNK N   1      35.085  53.604  63.614  0.00  0.00     0.167 HD
ENDBRANCH  15  17
ENDBRANCH  13  15
ENDBRANCH   1  13
BRANCH   5  19
HETATM   19  O   UNK N   1      38.386  45.084  62.345  0.00  0.00    -0.386 OA
HETATM   20  C   UNK N   1      38.615  44.816  63.710  0.00  0.00     0.202 C 
ENDBRANCH   5  19
TORSDOF 4
ENDMDL
MODEL 9
REMARK VINA RESULT:      -5.0     13.273     15.527
REMARK  4 active torsions:
REMARK  status: ('A' for Active; 'I' for Inactive)
REMARK    1  A    between atoms: C_2  and  O_3 
REMARK    2  A    between atoms: C_2  and  C_5 
REMARK    3  A    between atoms: C_5  and  C_7 
REMARK    4  A    between atoms: C_11  and  O_12 
ROOT
HETATM    1  C   UNK N   1      35.572  46.052  62.606  0.00  0.00     0.028 C 
HETATM    2  C   UNK N   1      35.461  44.516  62.465  0.00  0.00     0.045 C 
HETATM    3  C   UNK N   1      33.992  44.094  62.424  0.00  0.00    -0.066 C 
HETATM    4  C   UNK N   1      33.477  43.343  61.394  0.00  0.00    -0.052 C 
HETATM    5  C   UNK N   1      32.040  42.827  61.402  0.00  0.00     0.149 C 
HETATM    6  C   UNK N   1      31.340  42.989  62.763  0.00  0.00     0.037 C 
HETATM    7  C   UNK N   1      31.602  44.374  63.309  0.00  0.00     0.016 C 
HETATM    8  C   UNK N   1      33.118  44.578  63.593  0.00  0.00    -0.020 C 
HETATM    9  C   UNK N   1      33.325  46.113  63.764  0.00  0.00     0.014 C 
HETATM   10  C   UNK N   1      34.802  46.531  63.852  0.00  0.00     0.011 C 
HETATM   11  C   UNK N   1      33.530  43.832  64.888  0.00  0.00     0.020 C 
HETATM   12  C   UNK N   1      34.322  42.982  60.191  0.00  0.00     0.046 C 
ENDROOT
BRANCH   1  13
HETATM   13  C   UNK N   1      37.004  46.591  62.642  0.00  0.00     0.010 C 
HETATM   14  C   UNK N   1      37.326  47.800  62.131  0.00  0.00     0.026 C 
BRANCH  13  15
HETATM   15  C   UNK N   1      38.078  45.737  63.232  0.00  0.00     0.171 C 
HETATM   16  O   UNK N   1      38.205  45.646  64.444  0.00  0.00    -0.646 OA
BRANCH  15  17
HETATM   17  O   UNK N   1      38.918  45.056  62.422  0.00  0.00    -0.773 OA
HETATM   18  H   UNK N   1      39.352  44.243  62.720  0.00  0.00     0.167 HD
ENDBRANCH  15  17
ENDBRANCH  13  15
ENDBRANCH   1  13
BRANCH   5  19
HETATM   19  O   UNK N   1      32.074  41.442  61.091  0.00  0.00    -0.386 OA
HETATM   20  C   UNK N   1      31.062  41.095  60.174  0.00  0.00     0.202 C 
ENDBRANCH   5  19
TORSDOF 4
ENDMDL
