MODEL 1
REMARK VINA RESULT:      -6.9      0.000      0.000
REMARK  5 active torsions:
REMARK  status: ('A' for Active; 'I' for Inactive)
REMARK    1  A    between atoms: C_6  and  C_7 
REMARK    2  A    between atoms: C_7  and  O_8 
REMARK    3  A    between atoms: C_13  and  O_14 
REMARK    4  A    between atoms: C_17  and  O_18 
REMARK    5  A    between atoms: O_18  and  C_19 
ROOT
HETATM    1  O   UNK N   1      42.422  45.861  52.825  0.00  0.00    -0.259 OA
HETATM    2  C   UNK N   1      41.948  45.456  51.779  0.00  0.00     0.292 A 
HETATM    3  O   UNK N   1      41.664  46.254  50.735  0.00  0.00    -0.307 OA
HETATM    4  C   UNK N   1      41.139  45.504  49.693  0.00  0.00     0.170 A 
HETATM    5  C   UNK N   1      41.177  44.101  50.214  0.00  0.00    -0.036 A 
HETATM    6  C   UNK N   1      41.650  44.079  51.452  0.00  0.00     0.045 A 
HETATM    7  C   UNK N   1      40.727  42.976  49.331  0.00  0.00     0.038 C 
HETATM    8  C   UNK N   1      41.536  43.070  48.019  0.00  0.00     0.012 C 
HETATM    9  C   UNK N   1      41.508  44.495  47.373  0.00  0.00     0.026 C 
HETATM   10  C   UNK N   1      40.118  44.895  46.776  0.00  0.00     0.125 C 
HETATM   11  C   UNK N   1      40.154  46.332  46.170  0.00  0.00     0.069 C 
HETATM   12  C   UNK N   1      40.585  47.360  47.243  0.00  0.00     0.163 C 
HETATM   13  C   UNK N   1      41.935  46.922  47.785  0.00  0.00    -0.053 C 
HETATM   14  C   UNK N   1      42.002  45.552  48.411  0.00  0.00     0.057 C 
HETATM   15  C   UNK N   1      43.038  47.688  47.699  0.00  0.00     0.017 C 
ENDROOT
BRANCH  12  16
HETATM   16  O   UNK N   1      40.641  48.669  46.800  0.00  0.00    -0.312 OA
BRANCH  16  17
HETATM   17  C   UNK N   1      39.921  49.159  45.761  0.00  0.00     0.255 C 
HETATM   18  O   UNK N   1      40.182  48.847  44.608  0.00  0.00    -0.266 OA
HETATM   19  C   UNK N   1      38.732  50.014  46.056  0.00  0.00     0.126 C 
ENDBRANCH  16  17
ENDBRANCH  12  16
BRANCH  10  20
HETATM   20  O   UNK N   1      39.702  43.966  45.807  0.00  0.00    -0.395 OA
HETATM   21  H   UNK N   1      38.784  44.219  45.522  0.00  0.00     0.210 HD
ENDBRANCH  10  20
BRANCH   6  22
HETATM   22  C   UNK N   1      41.829  42.864  52.322  0.00  0.00     0.209 C 
BRANCH  22  23
HETATM   23  O   UNK N   1      42.066  43.227  53.654  0.00  0.00    -0.396 OA
HETATM   24  H   UNK N   1      41.588  42.555  54.212  0.00  0.00     0.209 HD
ENDBRANCH  22  23
ENDBRANCH   6  22
TORSDOF 5
ENDMDL
MODEL 2
REMARK VINA RESULT:      -6.5      2.083      3.922
REMARK  5 active torsions:
REMARK  status: ('A' for Active; 'I' for Inactive)
REMARK    1  A    between atoms: C_6  and  C_7 
REMARK    2  A    between atoms: C_7  and  O_8 
REMARK    3  A    between atoms: C_13  and  O_14 
REMARK    4  A    between atoms: C_17  and  O_18 
REMARK    5  A    between atoms: O_18  and  C_19 
ROOT
HETATM    1  O   UNK N   1      37.721  44.397  48.022  0.00  0.00    -0.259 OA
HETATM    2  C   UNK N   1      38.796  44.951  47.882  0.00  0.00     0.292 A 
HETATM    3  O   UNK N   1      38.997  45.977  47.036  0.00  0.00    -0.307 OA
HETATM    4  C   UNK N   1      40.318  46.396  47.103  0.00  0.00     0.170 A 
HETATM    5  C   UNK N   1      40.915  45.512  48.153  0.00  0.00    -0.036 A 
HETATM    6  C   UNK N   1      40.012  44.655  48.607  0.00  0.00     0.045 A 
HETATM    7  C   UNK N   1      42.349  45.705  48.549  0.00  0.00     0.038 C 
HETATM    8  C   UNK N   1      42.521  47.187  48.949  0.00  0.00     0.012 C 
HETATM    9  C   UNK N   1      41.969  48.187  47.879  0.00  0.00     0.026 C 
HETATM   10  C   UNK N   1      42.814  48.240  46.564  0.00  0.00     0.125 C 
HETATM   11  C   UNK N   1      42.198  49.237  45.534  0.00  0.00     0.069 C 
HETATM   12  C   UNK N   1      40.737  48.843  45.210  0.00  0.00     0.163 C 
HETATM   13  C   UNK N   1      39.968  48.808  46.518  0.00  0.00    -0.053 C 
HETATM   14  C   UNK N   1      40.472  47.859  47.576  0.00  0.00     0.057 C 
HETATM   15  C   UNK N   1      38.901  49.594  46.759  0.00  0.00     0.017 C 
ENDROOT
BRANCH  12  16
HETATM   16  O   UNK N   1      40.106  49.670  44.297  0.00  0.00    -0.312 OA
BRANCH  16  17
HETATM   17  C   UNK N   1      39.157  49.260  43.419  0.00  0.00     0.255 C 
HETATM   18  O   UNK N   1      38.399  48.341  43.691  0.00  0.00    -0.266 OA
HETATM   19  C   UNK N   1      38.987  50.022  42.144  0.00  0.00     0.126 C 
ENDBRANCH  16  17
ENDBRANCH  12  16
BRANCH  10  20
HETATM   20  O   UNK N   1      44.149  48.583  46.838  0.00  0.00    -0.395 OA
HETATM   21  H   UNK N   1      44.414  49.297  46.200  0.00  0.00     0.210 HD
ENDBRANCH  10  20
BRANCH   6  22
HETATM   22  C   UNK N   1      40.227  43.597  49.655  0.00  0.00     0.209 C 
BRANCH  22  23
HETATM   23  O   UNK N   1      39.822  44.048  50.918  0.00  0.00    -0.396 OA
HETATM   24  H   UNK N   1      38.865  44.305  50.825  0.00  0.00     0.209 HD
ENDBRANCH  22  23
ENDBRANCH   6  22
TORSDOF 5
ENDMDL
MODEL 3
REMARK VINA RESULT:      -6.4      1.682      6.669
REMARK  5 active torsions:
REMARK  status: ('A' for Active; 'I' for Inactive)
REMARK    1  A    between atoms: C_6  and  C_7 
REMARK    2  A    between atoms: C_7  and  O_8 
REMARK    3  A    between atoms: C_13  and  O_14 
REMARK    4  A    between atoms: C_17  and  O_18 
REMARK    5  A    between atoms: O_18  and  C_19 
ROOT
HETATM    1  O   UNK N   1      37.660  46.120  45.643  0.00  0.00    -0.259 OA
HETATM    2  C   UNK N   1      38.592  46.409  46.370  0.00  0.00     0.292 A 
HETATM    3  O   UNK N   1      38.885  45.744  47.502  0.00  0.00    -0.307 OA
HETATM    4  C   UNK N   1      39.999  46.305  48.108  0.00  0.00     0.170 A 
HETATM    5  C   UNK N   1      40.401  47.397  47.166  0.00  0.00    -0.036 A 
HETATM    6  C   UNK N   1      39.561  47.459  46.142  0.00  0.00     0.045 A 
HETATM    7  C   UNK N   1      41.624  48.212  47.463  0.00  0.00     0.038 C 
HETATM    8  C   UNK N   1      42.798  47.227  47.656  0.00  0.00     0.012 C 
HETATM    9  C   UNK N   1      42.483  46.076  48.670  0.00  0.00     0.026 C 
HETATM   10  C   UNK N   1      42.379  46.551  50.157  0.00  0.00     0.125 C 
HETATM   11  C   UNK N   1      42.042  45.362  51.109  0.00  0.00     0.069 C 
HETATM   12  C   UNK N   1      40.721  44.682  50.676  0.00  0.00     0.163 C 
HETATM   13  C   UNK N   1      40.880  44.244  49.231  0.00  0.00    -0.053 C 
HETATM   14  C   UNK N   1      41.189  45.324  48.225  0.00  0.00     0.057 C 
HETATM   15  C   UNK N   1      40.783  42.959  48.844  0.00  0.00     0.017 C 
ENDROOT
BRANCH  12  16
HETATM   16  O   UNK N   1      40.335  43.615  51.468  0.00  0.00    -0.312 OA
BRANCH  16  17
HETATM   17  C   UNK N   1      40.498  43.559  52.812  0.00  0.00     0.255 C 
HETATM   18  O   UNK N   1      39.635  43.972  53.572  0.00  0.00    -0.266 OA
HETATM   19  C   UNK N   1      41.717  42.886  53.356  0.00  0.00     0.126 C 
ENDBRANCH  16  17
ENDBRANCH  12  16
BRANCH  10  20
HETATM   20  O   UNK N   1      43.565  47.184  50.566  0.00  0.00    -0.395 OA
HETATM   21  H   UNK N   1      44.327  46.632  50.248  0.00  0.00     0.210 HD
ENDBRANCH  10  20
BRANCH   6  22
HETATM   22  C   UNK N   1      39.618  48.429  44.994  0.00  0.00     0.209 C 
BRANCH  22  23
HETATM   23  O   UNK N   1      38.501  48.290  44.160  0.00  0.00    -0.396 OA
HETATM   24  H   UNK N   1      37.723  48.138  44.763  0.00  0.00     0.209 HD
ENDBRANCH  22  23
ENDBRANCH   6  22
TORSDOF 5
ENDMDL
MODEL 4
REMARK VINA RESULT:      -6.1     10.685     14.823
REMARK  5 active torsions:
REMARK  status: ('A' for Active; 'I' for Inactive)
REMARK    1  A    between atoms: C_6  and  C_7 
REMARK    2  A    between atoms: C_7  and  O_8 
REMARK    3  A    between atoms: C_13  and  O_14 
REMARK    4  A    between atoms: C_17  and  O_18 
REMARK    5  A    between atoms: O_18  and  C_19 
ROOT
HETATM    1  O   UNK N   1      33.581  53.887  45.020  0.00  0.00    -0.259 OA
HETATM    2  C   UNK N   1      32.831  53.362  44.217  0.00  0.00     0.292 A 
HETATM    3  O   UNK N   1      31.722  53.954  43.741  0.00  0.00    -0.307 OA
HETATM    4  C   UNK N   1      31.080  53.111  42.845  0.00  0.00     0.170 A 
HETATM    5  C   UNK N   1      31.975  51.912  42.787  0.00  0.00    -0.036 A 
HETATM    6  C   UNK N   1      33.006  52.063  43.606  0.00  0.00     0.045 A 
HETATM    7  C   UNK N   1      31.631  50.782  41.863  0.00  0.00     0.038 C 
HETATM    8  C   UNK N   1      31.460  51.379  40.449  0.00  0.00     0.012 C 
HETATM    9  C   UNK N   1      30.495  52.611  40.407  0.00  0.00     0.026 C 
HETATM   10  C   UNK N   1      28.993  52.249  40.650  0.00  0.00     0.125 C 
HETATM   11  C   UNK N   1      28.091  53.521  40.618  0.00  0.00     0.069 C 
HETATM   12  C   UNK N   1      28.566  54.546  41.674  0.00  0.00     0.163 C 
HETATM   13  C   UNK N   1      30.025  54.858  41.390  0.00  0.00    -0.053 C 
HETATM   14  C   UNK N   1      30.985  53.696  41.417  0.00  0.00     0.057 C 
HETATM   15  C   UNK N   1      30.462  56.098  41.099  0.00  0.00     0.017 C 
ENDROOT
BRANCH  12  16
HETATM   16  O   UNK N   1      27.821  55.711  41.725  0.00  0.00    -0.312 OA
BRANCH  16  17
HETATM   17  C   UNK N   1      26.804  55.934  42.593  0.00  0.00     0.255 C 
HETATM   18  O   UNK N   1      26.552  55.142  43.489  0.00  0.00    -0.266 OA
HETATM   19  C   UNK N   1      26.053  57.222  42.498  0.00  0.00     0.126 C 
ENDBRANCH  16  17
ENDBRANCH  12  16
BRANCH  10  20
HETATM   20  O   UNK N   1      28.544  51.307  39.708  0.00  0.00    -0.395 OA
HETATM   21  H   UNK N   1      29.344  50.920  39.265  0.00  0.00     0.210 HD
ENDBRANCH  10  20
BRANCH   6  22
HETATM   22  C   UNK N   1      34.117  51.074  43.840  0.00  0.00     0.209 C 
BRANCH  22  23
HETATM   23  O   UNK N   1      34.647  51.207  45.130  0.00  0.00    -0.396 OA
HETATM   24  H   UNK N   1      33.878  51.118  45.755  0.00  0.00     0.209 HD
ENDBRANCH  22  23
ENDBRANCH   6  22
TORSDOF 5
ENDMDL
MODEL 5
REMARK VINA RESULT:      -5.5     11.337     15.548
REMARK  5 active torsions:
REMARK  status: ('A' for Active; 'I' for Inactive)
REMARK    1  A    between atoms: C_6  and  C_7 
REMARK    2  A    between atoms: C_7  and  O_8 
REMARK    3  A    between atoms: C_13  and  O_14 
REMARK    4  A    between atoms: C_17  and  O_18 
REMARK    5  A    between atoms: O_18  and  C_19 
ROOT
HETATM    1  O   UNK N   1      32.845  55.173  44.768  0.00  0.00    -0.259 OA
HETATM    2  C   UNK N   1      32.207  54.466  44.009  0.00  0.00     0.292 A 
HETATM    3  O   UNK N   1      31.123  54.889  43.337  0.00  0.00    -0.307 OA
HETATM    4  C   UNK N   1      30.618  53.861  42.554  0.00  0.00     0.170 A 
HETATM    5  C   UNK N   1      31.573  52.734  42.793  0.00  0.00    -0.036 A 
HETATM    6  C   UNK N   1      32.509  53.095  43.661  0.00  0.00     0.045 A 
HETATM    7  C   UNK N   1      31.382  51.439  42.062  0.00  0.00     0.038 C 
HETATM    8  C   UNK N   1      31.323  51.766  40.554  0.00  0.00     0.012 C 
HETATM    9  C   UNK N   1      30.305  52.903  40.204  0.00  0.00     0.026 C 
HETATM   10  C   UNK N   1      28.807  52.488  40.374  0.00  0.00     0.125 C 
HETATM   11  C   UNK N   1      27.849  53.671  40.031  0.00  0.00     0.069 C 
HETATM   12  C   UNK N   1      28.163  54.895  40.924  0.00  0.00     0.163 C 
HETATM   13  C   UNK N   1      29.625  55.251  40.719  0.00  0.00    -0.053 C 
HETATM   14  C   UNK N   1      30.636  54.180  41.042  0.00  0.00     0.057 C 
HETATM   15  C   UNK N   1      30.026  56.448  40.249  0.00  0.00     0.017 C 
ENDROOT
BRANCH  12  16
HETATM   16  O   UNK N   1      27.358  55.997  40.697  0.00  0.00    -0.312 OA
BRANCH  16  17
HETATM   17  C   UNK N   1      26.431  56.463  41.569  0.00  0.00     0.255 C 
HETATM   18  O   UNK N   1      25.449  55.798  41.863  0.00  0.00    -0.266 OA
HETATM   19  C   UNK N   1      26.682  57.772  42.247  0.00  0.00     0.126 C 
ENDBRANCH  16  17
ENDBRANCH  12  16
BRANCH  10  20
HETATM   20  O   UNK N   1      28.503  51.368  39.580  0.00  0.00    -0.395 OA
HETATM   21  H   UNK N   1      27.514  51.278  39.551  0.00  0.00     0.210 HD
ENDBRANCH  10  20
BRANCH   6  22
HETATM   22  C   UNK N   1      33.639  52.241  44.168  0.00  0.00     0.209 C 
BRANCH  22  23
HETATM   23  O   UNK N   1      33.970  52.573  45.488  0.00  0.00    -0.396 OA
HETATM   24  H   UNK N   1      34.657  51.912  45.775  0.00  0.00     0.209 HD
ENDBRANCH  22  23
ENDBRANCH   6  22
TORSDOF 5
ENDMDL
MODEL 6
REMARK VINA RESULT:      -5.4      1.588      6.230
REMARK  5 active torsions:
REMARK  status: ('A' for Active; 'I' for Inactive)
REMARK    1  A    between atoms: C_6  and  C_7 
REMARK    2  A    between atoms: C_7  and  O_8 
REMARK    3  A    between atoms: C_13  and  O_14 
REMARK    4  A    between atoms: C_17  and  O_18 
REMARK    5  A    between atoms: O_18  and  C_19 
ROOT
HETATM    1  O   UNK N   1      38.877  49.572  46.892  0.00  0.00    -0.259 OA
HETATM    2  C   UNK N   1      39.548  48.562  46.786  0.00  0.00     0.292 A 
HETATM    3  O   UNK N   1      39.749  47.696  47.794  0.00  0.00    -0.307 OA
HETATM    4  C   UNK N   1      40.550  46.647  47.366  0.00  0.00     0.170 A 
HETATM    5  C   UNK N   1      40.787  46.952  45.920  0.00  0.00    -0.036 A 
HETATM    6  C   UNK N   1      40.198  48.090  45.583  0.00  0.00     0.045 A 
HETATM    7  C   UNK N   1      41.586  45.994  45.087  0.00  0.00     0.038 C 
HETATM    8  C   UNK N   1      40.930  44.603  45.230  0.00  0.00     0.012 C 
HETATM    9  C   UNK N   1      40.692  44.178  46.717  0.00  0.00     0.026 C 
HETATM   10  C   UNK N   1      42.005  43.857  47.504  0.00  0.00     0.125 C 
HETATM   11  C   UNK N   1      41.698  43.463  48.982  0.00  0.00     0.069 C 
HETATM   12  C   UNK N   1      40.919  44.596  49.691  0.00  0.00     0.163 C 
HETATM   13  C   UNK N   1      39.660  44.863  48.886  0.00  0.00    -0.053 C 
HETATM   14  C   UNK N   1      39.849  45.271  47.447  0.00  0.00     0.057 C 
HETATM   15  C   UNK N   1      38.423  44.725  49.400  0.00  0.00     0.017 C 
ENDROOT
BRANCH  12  16
HETATM   16  O   UNK N   1      40.605  44.340  51.015  0.00  0.00    -0.312 OA
BRANCH  16  17
HETATM   17  C   UNK N   1      41.473  44.469  52.048  0.00  0.00     0.255 C 
HETATM   18  O   UNK N   1      42.154  45.475  52.180  0.00  0.00    -0.266 OA
HETATM   19  C   UNK N   1      41.510  43.395  53.087  0.00  0.00     0.126 C 
ENDBRANCH  16  17
ENDBRANCH  12  16
BRANCH  10  20
HETATM   20  O   UNK N   1      42.736  42.838  46.868  0.00  0.00    -0.395 OA
HETATM   21  H   UNK N   1      42.242  42.583  46.045  0.00  0.00     0.210 HD
ENDBRANCH  10  20
BRANCH   6  22
HETATM   22  C   UNK N   1      40.215  48.741  44.226  0.00  0.00     0.209 C 
BRANCH  22  23
HETATM   23  O   UNK N   1      40.521  50.105  44.325  0.00  0.00    -0.396 OA
HETATM   24  H   UNK N   1      41.492  50.186  44.120  0.00  0.00     0.209 HD
ENDBRANCH  22  23
ENDBRANCH   6  22
TORSDOF 5
ENDMDL
MODEL 7
REMARK VINA RESULT:      -5.2     12.548     17.457
REMARK  5 active torsions:
REMARK  status: ('A' for Active; 'I' for Inactive)
REMARK    1  A    between atoms: C_6  and  C_7 
REMARK    2  A    between atoms: C_7  and  O_8 
REMARK    3  A    between atoms: C_13  and  O_14 
REMARK    4  A    between atoms: C_17  and  O_18 
REMARK    5  A    between atoms: O_18  and  C_19 
ROOT
HETATM    1  O   UNK N   1      25.953  50.723  39.955  0.00  0.00    -0.259 OA
HETATM    2  C   UNK N   1      26.479  51.807  40.127  0.00  0.00     0.292 A 
HETATM    3  O   UNK N   1      27.603  51.981  40.845  0.00  0.00    -0.307 OA
HETATM    4  C   UNK N   1      27.956  53.322  40.856  0.00  0.00     0.170 A 
HETATM    5  C   UNK N   1      26.914  53.969  39.998  0.00  0.00    -0.036 A 
HETATM    6  C   UNK N   1      26.038  53.069  39.574  0.00  0.00     0.045 A 
HETATM    7  C   UNK N   1      26.994  55.441  39.726  0.00  0.00     0.038 C 
HETATM    8  C   UNK N   1      28.399  55.727  39.152  0.00  0.00     0.012 C 
HETATM    9  C   UNK N   1      29.557  55.130  40.019  0.00  0.00     0.026 C 
HETATM   10  C   UNK N   1      29.757  55.849  41.394  0.00  0.00     0.125 C 
HETATM   11  C   UNK N   1      30.909  55.192  42.214  0.00  0.00     0.069 C 
HETATM   12  C   UNK N   1      30.622  53.689  42.440  0.00  0.00     0.163 C 
HETATM   13  C   UNK N   1      30.437  53.046  41.077  0.00  0.00    -0.053 C 
HETATM   14  C   UNK N   1      29.333  53.597  40.211  0.00  0.00     0.057 C 
HETATM   15  C   UNK N   1      31.224  52.049  40.628  0.00  0.00     0.017 C 
ENDROOT
BRANCH  12  16
HETATM   16  O   UNK N   1      31.590  53.018  43.167  0.00  0.00    -0.312 OA
BRANCH  16  17
HETATM   17  C   UNK N   1      32.112  53.458  44.338  0.00  0.00     0.255 C 
HETATM   18  O   UNK N   1      31.436  53.500  45.355  0.00  0.00    -0.266 OA
HETATM   19  C   UNK N   1      33.566  53.799  44.388  0.00  0.00     0.126 C 
ENDBRANCH  16  17
ENDBRANCH  12  16
BRANCH  10  20
HETATM   20  O   UNK N   1      30.007  57.220  41.212  0.00  0.00    -0.395 OA
HETATM   21  H   UNK N   1      29.680  57.696  42.020  0.00  0.00     0.210 HD
ENDBRANCH  10  20
BRANCH   6  22
HETATM   22  C   UNK N   1      24.839  53.326  38.702  0.00  0.00     0.209 C 
BRANCH  22  23
HETATM   23  O   UNK N   1      23.974  52.223  38.695  0.00  0.00    -0.396 OA
HETATM   24  H   UNK N   1      23.329  52.383  37.953  0.00  0.00     0.209 HD
ENDBRANCH  22  23
ENDBRANCH   6  22
TORSDOF 5
ENDMDL
MODEL 8
REMARK VINA RESULT:      -5.0     10.170     14.156
REMARK  5 active torsions:
REMARK  status: ('A' for Active; 'I' for Inactive)
REMARK    1  A    between atoms: C_6  and  C_7 
REMARK    2  A    between atoms: C_7  and  O_8 
REMARK    3  A    between atoms: C_13  and  O_14 
REMARK    4  A    between atoms: C_17  and  O_18 
REMARK    5  A    between atoms: O_18  and  C_19 
ROOT
HETATM    1  O   UNK N   1      33.438  54.274  44.189  0.00  0.00    -0.259 OA
HETATM    2  C   UNK N   1      32.795  53.342  43.742  0.00  0.00     0.292 A 
HETATM    3  O   UNK N   1      31.774  53.491  42.880  0.00  0.00    -0.307 OA
HETATM    4  C   UNK N   1      31.244  52.252  42.551  0.00  0.00     0.170 A 
HETATM    5  C   UNK N   1      32.114  51.288  43.296  0.00  0.00    -0.036 A 
HETATM    6  C   UNK N   1      33.026  51.938  44.005  0.00  0.00     0.045 A 
HETATM    7  C   UNK N   1      31.878  49.815  43.146  0.00  0.00     0.038 C 
HETATM    8  C   UNK N   1      31.914  49.496  41.635  0.00  0.00     0.012 C 
HETATM    9  C   UNK N   1      30.988  50.425  40.781  0.00  0.00     0.026 C 
HETATM   10  C   UNK N   1      29.460  50.173  40.998  0.00  0.00     0.125 C 
HETATM   11  C   UNK N   1      28.597  51.145  40.137  0.00  0.00     0.069 C 
HETATM   12  C   UNK N   1      28.943  52.615  40.472  0.00  0.00     0.163 C 
HETATM   13  C   UNK N   1      30.433  52.801  40.244  0.00  0.00    -0.053 C 
HETATM   14  C   UNK N   1      31.357  51.920  41.046  0.00  0.00     0.057 C 
HETATM   15  C   UNK N   1      30.930  53.683  39.356  0.00  0.00     0.017 C 
ENDROOT
BRANCH  12  16
HETATM   16  O   UNK N   1      28.221  53.556  39.759  0.00  0.00    -0.312 OA
BRANCH  16  17
HETATM   17  C   UNK N   1      27.499  54.556  40.320  0.00  0.00     0.255 C 
HETATM   18  O   UNK N   1      27.886  55.714  40.281  0.00  0.00    -0.266 OA
HETATM   19  C   UNK N   1      26.163  54.231  40.906  0.00  0.00     0.126 C 
ENDBRANCH  16  17
ENDBRANCH  12  16
BRANCH  10  20
HETATM   20  O   UNK N   1      29.126  48.838  40.711  0.00  0.00    -0.395 OA
HETATM   21  H   UNK N   1      29.201  48.712  39.729  0.00  0.00     0.210 HD
ENDBRANCH  10  20
BRANCH   6  22
HETATM   22  C   UNK N   1      34.074  51.327  44.895  0.00  0.00     0.209 C 
BRANCH  22  23
HETATM   23  O   UNK N   1      35.098  50.740  44.140  0.00  0.00    -0.396 OA
HETATM   24  H   UNK N   1      35.172  51.281  43.307  0.00  0.00     0.209 HD
ENDBRANCH  22  23
ENDBRANCH   6  22
TORSDOF 5
ENDMDL
MODEL 9
REMARK VINA RESULT:      -4.9     13.022     15.487
REMARK  5 active torsions:
REMARK  status: ('A' for Active; 'I' for Inactive)
REMARK    1  A    between atoms: C_6  and  C_7 
REMARK    2  A    between atoms: C_7  and  O_8 
REMARK    3  A    between atoms: C_13  and  O_14 
REMARK    4  A    between atoms: C_17  and  O_18 
REMARK    5  A    between atoms: O_18  and  C_19 
ROOT
HETATM    1  O   UNK N   1      29.655  42.197  52.694  0.00  0.00    -0.259 OA
HETATM    2  C   UNK N   1      29.554  41.668  53.786  0.00  0.00     0.292 A 
HETATM    3  O   UNK N   1      30.240  42.069  54.871  0.00  0.00    -0.307 OA
HETATM    4  C   UNK N   1      29.911  41.276  55.961  0.00  0.00     0.170 A 
HETATM    5  C   UNK N   1      28.877  40.340  55.417  0.00  0.00    -0.036 A 
HETATM    6  C   UNK N   1      28.674  40.571  54.127  0.00  0.00     0.045 A 
HETATM    7  C   UNK N   1      28.232  39.344  56.333  0.00  0.00     0.038 C 
HETATM    8  C   UNK N   1      27.652  40.129  57.530  0.00  0.00     0.012 C 
HETATM    9  C   UNK N   1      28.685  41.098  58.197  0.00  0.00     0.026 C 
HETATM   10  C   UNK N   1      29.829  40.369  58.975  0.00  0.00     0.125 C 
HETATM   11  C   UNK N   1      30.833  41.389  59.594  0.00  0.00     0.069 C 
HETATM   12  C   UNK N   1      31.435  42.290  58.490  0.00  0.00     0.163 C 
HETATM   13  C   UNK N   1      30.283  42.970  57.771  0.00  0.00    -0.053 C 
HETATM   14  C   UNK N   1      29.264  42.069  57.119  0.00  0.00     0.057 C 
HETATM   15  C   UNK N   1      30.139  44.308  57.724  0.00  0.00     0.017 C 
ENDROOT
BRANCH  12  16
HETATM   16  O   UNK N   1      32.346  43.229  58.943  0.00  0.00    -0.312 OA
BRANCH  16  17
HETATM   17  C   UNK N   1      33.620  42.947  59.309  0.00  0.00     0.255 C 
HETATM   18  O   UNK N   1      34.474  42.684  58.475  0.00  0.00    -0.266 OA
HETATM   19  C   UNK N   1      33.991  43.061  60.752  0.00  0.00     0.126 C 
ENDBRANCH  16  17
ENDBRANCH  12  16
BRANCH  10  20
HETATM   20  O   UNK N   1      29.302  39.533  59.975  0.00  0.00    -0.395 OA
HETATM   21  H   UNK N   1      29.073  40.104  60.755  0.00  0.00     0.210 HD
ENDBRANCH  10  20
BRANCH   6  22
HETATM   22  C   UNK N   1      27.724  39.834  53.223  0.00  0.00     0.209 C 
BRANCH  22  23
HETATM   23  O   UNK N   1      27.636  40.455  51.970  0.00  0.00    -0.396 OA
HETATM   24  H   UNK N   1      26.907  39.984  51.480  0.00  0.00     0.209 HD
ENDBRANCH  22  23
ENDBRANCH   6  22
TORSDOF 5
ENDMDL
