MODEL 1
REMARK VINA RESULT:      -5.8      0.000      0.000
REMARK  1 active torsions:
REMARK  status: ('A' for Active; 'I' for Inactive)
REMARK    1  A    between atoms: C_16  and  O_17 
ROOT
HETATM    1  O   UNK N   1      51.961  56.914  47.422  0.00  0.00    -0.293 OA
HETATM    2  C   UNK N   1      51.184  56.998  46.482  0.00  0.00     0.150 A 
HETATM    3  C   UNK N   1      50.035  56.147  46.312  0.00  0.00     0.053 A 
HETATM    4  C   UNK N   1      49.390  56.516  45.220  0.00  0.00    -0.067 A 
HETATM    5  C   UNK N   1      48.153  55.871  44.673  0.00  0.00     0.035 C 
HETATM    6  C   UNK N   1      48.430  55.407  43.235  0.00  0.00     0.010 C 
HETATM    7  C   UNK N   1      49.057  56.547  42.353  0.00  0.00     0.004 C 
HETATM    8  C   UNK N   1      50.397  57.110  43.022  0.00  0.00    -0.028 C 
HETATM    9  C   UNK N   1      50.045  57.664  44.490  0.00  0.00    -0.006 A 
HETATM   10  C   UNK N   1      51.282  58.023  45.403  0.00  0.00     0.097 A 
HETATM   11  C   UNK N   1      49.076  58.884  44.523  0.00  0.00     0.021 C 
HETATM   12  C   UNK N   1      50.952  58.262  42.141  0.00  0.00     0.011 C 
HETATM   13  C   UNK N   1      51.082  57.908  40.650  0.00  0.00     0.007 C 
HETATM   14  C   UNK N   1      49.694  57.507  40.065  0.00  0.00     0.004 C 
HETATM   15  C   UNK N   1      49.610  57.515  38.482  0.00  0.00    -0.017 C 
HETATM   16  C   UNK N   1      48.130  57.206  38.075  0.00  0.00     0.126 C 
HETATM   17  C   UNK N   1      47.592  55.913  38.716  0.00  0.00     0.033 C 
HETATM   18  C   UNK N   1      47.680  55.979  40.255  0.00  0.00     0.012 C 
HETATM   19  C   UNK N   1      49.132  56.212  40.789  0.00  0.00    -0.035 C 
HETATM   20  C   UNK N   1      49.953  54.912  40.504  0.00  0.00     0.016 C 
HETATM   21  C   UNK N   1      50.607  56.549  37.791  0.00  0.00     0.018 C 
HETATM   22  C   UNK N   1      49.946  58.936  37.946  0.00  0.00     0.018 C 
HETATM   23  C   UNK N   1      51.495  55.997  43.144  0.00  0.00     0.016 C 
ENDROOT
BRANCH  16  24
HETATM   24  O   UNK N   1      48.015  57.131  36.675  0.00  0.00    -0.395 OA
HETATM   25  H   UNK N   1      47.343  57.807  36.397  0.00  0.00     0.210 HD
ENDBRANCH  16  24
TORSDOF 1
ENDMDL
MODEL 2
REMARK VINA RESULT:      -5.7     17.993     19.855
REMARK  1 active torsions:
REMARK  status: ('A' for Active; 'I' for Inactive)
REMARK    1  A    between atoms: C_16  and  O_17 
ROOT
HETATM    1  O   UNK N   1      34.736  56.006  45.306  0.00  0.00    -0.293 OA
HETATM    2  C   UNK N   1      33.839  55.289  44.885  0.00  0.00     0.150 A 
HETATM    3  C   UNK N   1      34.048  53.957  44.378  0.00  0.00     0.053 A 
HETATM    4  C   UNK N   1      32.880  53.445  44.035  0.00  0.00    -0.067 A 
HETATM    5  C   UNK N   1      32.661  52.088  43.441  0.00  0.00     0.035 C 
HETATM    6  C   UNK N   1      31.942  52.247  42.091  0.00  0.00     0.010 C 
HETATM    7  C   UNK N   1      30.669  53.163  42.200  0.00  0.00     0.004 C 
HETATM    8  C   UNK N   1      31.052  54.597  42.799  0.00  0.00    -0.028 C 
HETATM    9  C   UNK N   1      31.721  54.389  44.246  0.00  0.00    -0.006 A 
HETATM   10  C   UNK N   1      32.397  55.667  44.880  0.00  0.00     0.097 A 
HETATM   11  C   UNK N   1      30.781  53.777  45.328  0.00  0.00     0.021 C 
HETATM   12  C   UNK N   1      29.759  55.447  42.931  0.00  0.00     0.011 C 
HETATM   13  C   UNK N   1      28.903  55.494  41.653  0.00  0.00     0.007 C 
HETATM   14  C   UNK N   1      28.471  54.056  41.237  0.00  0.00     0.004 C 
HETATM   15  C   UNK N   1      27.274  53.995  40.198  0.00  0.00    -0.017 C 
HETATM   16  C   UNK N   1      26.897  52.490  39.985  0.00  0.00     0.126 C 
HETATM   17  C   UNK N   1      28.105  51.622  39.588  0.00  0.00     0.033 C 
HETATM   18  C   UNK N   1      29.222  51.707  40.649  0.00  0.00     0.012 C 
HETATM   19  C   UNK N   1      29.738  53.163  40.898  0.00  0.00    -0.035 C 
HETATM   20  C   UNK N   1      30.515  53.613  39.618  0.00  0.00     0.016 C 
HETATM   21  C   UNK N   1      27.567  54.707  38.853  0.00  0.00     0.018 C 
HETATM   22  C   UNK N   1      26.024  54.701  40.796  0.00  0.00     0.018 C 
HETATM   23  C   UNK N   1      32.063  55.360  41.872  0.00  0.00     0.016 C 
ENDROOT
BRANCH  16  24
HETATM   24  O   UNK N   1      25.884  52.375  39.016  0.00  0.00    -0.395 OA
HETATM   25  H   UNK N   1      25.145  52.979  39.288  0.00  0.00     0.210 HD
ENDBRANCH  16  24
TORSDOF 1
ENDMDL
MODEL 3
REMARK VINA RESULT:      -5.5      1.879      3.240
REMARK  1 active torsions:
REMARK  status: ('A' for Active; 'I' for Inactive)
REMARK    1  A    between atoms: C_16  and  O_17 
ROOT
HETATM    1  O   UNK N   1      53.170  57.350  44.018  0.00  0.00    -0.293 OA
HETATM    2  C   UNK N   1      52.169  56.956  43.437  0.00  0.00     0.150 A 
HETATM    3  C   UNK N   1      52.078  55.684  42.769  0.00  0.00     0.053 A 
HETATM    4  C   UNK N   1      50.861  55.550  42.274  0.00  0.00    -0.067 A 
HETATM    5  C   UNK N   1      50.361  54.380  41.483  0.00  0.00     0.035 C 
HETATM    6  C   UNK N   1      49.857  54.880  40.120  0.00  0.00     0.010 C 
HETATM    7  C   UNK N   1      48.862  56.088  40.261  0.00  0.00     0.004 C 
HETATM    8  C   UNK N   1      49.538  57.287  41.077  0.00  0.00    -0.028 C 
HETATM    9  C   UNK N   1      49.971  56.743  42.527  0.00  0.00    -0.006 A 
HETATM   10  C   UNK N   1      50.883  57.709  43.379  0.00  0.00     0.097 A 
HETATM   11  C   UNK N   1      48.793  56.291  43.443  0.00  0.00     0.021 C 
HETATM   12  C   UNK N   1      48.505  58.436  41.230  0.00  0.00     0.011 C 
HETATM   13  C   UNK N   1      47.832  58.858  39.912  0.00  0.00     0.007 C 
HETATM   14  C   UNK N   1      47.088  57.648  39.272  0.00  0.00     0.004 C 
HETATM   15  C   UNK N   1      46.035  58.031  38.150  0.00  0.00    -0.017 C 
HETATM   16  C   UNK N   1      45.305  56.719  37.704  0.00  0.00     0.126 C 
HETATM   17  C   UNK N   1      46.281  55.607  37.281  0.00  0.00     0.033 C 
HETATM   18  C   UNK N   1      47.261  55.266  38.422  0.00  0.00     0.012 C 
HETATM   19  C   UNK N   1      48.108  56.489  38.907  0.00  0.00    -0.035 C 
HETATM   20  C   UNK N   1      49.108  56.853  37.761  0.00  0.00     0.016 C 
HETATM   21  C   UNK N   1      46.646  58.785  36.940  0.00  0.00     0.018 C 
HETATM   22  C   UNK N   1      44.954  58.978  38.746  0.00  0.00     0.018 C 
HETATM   23  C   UNK N   1      50.806  57.847  40.341  0.00  0.00     0.016 C 
ENDROOT
BRANCH  16  24
HETATM   24  O   UNK N   1      44.407  56.994  36.657  0.00  0.00    -0.395 OA
HETATM   25  H   UNK N   1      43.809  56.207  36.566  0.00  0.00     0.210 HD
ENDBRANCH  16  24
TORSDOF 1
ENDMDL
MODEL 4
REMARK VINA RESULT:      -5.5     25.659     28.565
REMARK  1 active torsions:
REMARK  status: ('A' for Active; 'I' for Inactive)
REMARK    1  A    between atoms: C_16  and  O_17 
ROOT
HETATM    1  O   UNK N   1      40.218  46.978  65.225  0.00  0.00    -0.293 OA
HETATM    2  C   UNK N   1      39.126  47.129  64.695  0.00  0.00     0.150 A 
HETATM    3  C   UNK N   1      38.217  48.197  65.020  0.00  0.00     0.053 A 
HETATM    4  C   UNK N   1      37.148  48.094  64.251  0.00  0.00    -0.067 A 
HETATM    5  C   UNK N   1      35.953  48.996  64.289  0.00  0.00     0.035 C 
HETATM    6  C   UNK N   1      34.699  48.148  64.557  0.00  0.00     0.010 C 
HETATM    7  C   UNK N   1      34.598  46.914  63.589  0.00  0.00     0.004 C 
HETATM    8  C   UNK N   1      35.913  46.008  63.685  0.00  0.00    -0.028 C 
HETATM    9  C   UNK N   1      37.190  46.911  63.313  0.00  0.00    -0.006 A 
HETATM   10  C   UNK N   1      38.599  46.262  63.602  0.00  0.00     0.097 A 
HETATM   11  C   UNK N   1      37.218  47.447  61.850  0.00  0.00     0.021 C 
HETATM   12  C   UNK N   1      35.787  44.831  62.680  0.00  0.00     0.011 C 
HETATM   13  C   UNK N   1      34.463  44.053  62.784  0.00  0.00     0.007 C 
HETATM   14  C   UNK N   1      33.254  45.004  62.538  0.00  0.00     0.004 C 
HETATM   15  C   UNK N   1      31.885  44.272  62.216  0.00  0.00    -0.017 C 
HETATM   16  C   UNK N   1      30.818  45.368  61.883  0.00  0.00     0.126 C 
HETATM   17  C   UNK N   1      30.702  46.442  62.980  0.00  0.00     0.033 C 
HETATM   18  C   UNK N   1      32.060  47.131  63.227  0.00  0.00     0.012 C 
HETATM   19  C   UNK N   1      33.197  46.141  63.643  0.00  0.00    -0.035 C 
HETATM   20  C   UNK N   1      32.867  45.620  65.080  0.00  0.00     0.016 C 
HETATM   21  C   UNK N   1      31.397  43.322  63.341  0.00  0.00     0.018 C 
HETATM   22  C   UNK N   1      32.047  43.389  60.947  0.00  0.00     0.018 C 
HETATM   23  C   UNK N   1      36.105  45.419  65.127  0.00  0.00     0.016 C 
ENDROOT
BRANCH  16  24
HETATM   24  O   UNK N   1      29.562  44.773  61.659  0.00  0.00    -0.395 OA
HETATM   25  H   UNK N   1      28.881  45.346  62.099  0.00  0.00     0.210 HD
ENDBRANCH  16  24
TORSDOF 1
ENDMDL
MODEL 5
REMARK VINA RESULT:      -5.4     26.858     28.620
REMARK  1 active torsions:
REMARK  status: ('A' for Active; 'I' for Inactive)
REMARK    1  A    between atoms: C_16  and  O_17 
ROOT
HETATM    1  O   UNK N   1      33.161  42.954  60.957  0.00  0.00    -0.293 OA
HETATM    2  C   UNK N   1      32.341  43.279  60.112  0.00  0.00     0.150 A 
HETATM    3  C   UNK N   1      31.001  43.709  60.417  0.00  0.00     0.053 A 
HETATM    4  C   UNK N   1      30.386  44.018  59.290  0.00  0.00    -0.067 A 
HETATM    5  C   UNK N   1      28.968  44.486  59.166  0.00  0.00     0.035 C 
HETATM    6  C   UNK N   1      28.208  43.527  58.236  0.00  0.00     0.010 C 
HETATM    7  C   UNK N   1      28.971  43.281  56.883  0.00  0.00     0.004 C 
HETATM    8  C   UNK N   1      30.449  42.734  57.157  0.00  0.00    -0.028 C 
HETATM    9  C   UNK N   1      31.237  43.806  58.060  0.00  0.00    -0.006 A 
HETATM   10  C   UNK N   1      32.620  43.326  58.648  0.00  0.00     0.097 A 
HETATM   11  C   UNK N   1      31.475  45.191  57.385  0.00  0.00     0.021 C 
HETATM   12  C   UNK N   1      31.177  42.551  55.798  0.00  0.00     0.011 C 
HETATM   13  C   UNK N   1      30.378  41.745  54.759  0.00  0.00     0.007 C 
HETATM   14  C   UNK N   1      29.015  42.440  54.465  0.00  0.00     0.004 C 
HETATM   15  C   UNK N   1      28.288  41.950  53.143  0.00  0.00    -0.017 C 
HETATM   16  C   UNK N   1      27.007  42.828  52.943  0.00  0.00     0.126 C 
HETATM   17  C   UNK N   1      26.093  42.842  54.181  0.00  0.00     0.033 C 
HETATM   18  C   UNK N   1      26.852  43.350  55.425  0.00  0.00     0.012 C 
HETATM   19  C   UNK N   1      28.120  42.502  55.774  0.00  0.00    -0.035 C 
HETATM   20  C   UNK N   1      27.629  41.106  56.280  0.00  0.00     0.016 C 
HETATM   21  C   UNK N   1      27.953  40.436  53.131  0.00  0.00     0.018 C 
HETATM   22  C   UNK N   1      29.210  42.197  51.915  0.00  0.00     0.018 C 
HETATM   23  C   UNK N   1      30.426  41.354  57.905  0.00  0.00     0.016 C 
ENDROOT
BRANCH  16  24
HETATM   24  O   UNK N   1      26.286  42.386  51.819  0.00  0.00    -0.395 OA
HETATM   25  H   UNK N   1      26.842  42.573  51.018  0.00  0.00     0.210 HD
ENDBRANCH  16  24
TORSDOF 1
ENDMDL
MODEL 6
REMARK VINA RESULT:      -5.1     26.054     29.435
REMARK  1 active torsions:
REMARK  status: ('A' for Active; 'I' for Inactive)
REMARK    1  A    between atoms: C_16  and  O_17 
ROOT
HETATM    1  O   UNK N   1      27.956  43.377  63.800  0.00  0.00    -0.293 OA
HETATM    2  C   UNK N   1      29.022  43.655  63.271  0.00  0.00     0.150 A 
HETATM    3  C   UNK N   1      29.863  42.694  62.605  0.00  0.00     0.053 A 
HETATM    4  C   UNK N   1      30.919  43.318  62.116  0.00  0.00    -0.067 A 
HETATM    5  C   UNK N   1      32.049  42.676  61.373  0.00  0.00     0.035 C 
HETATM    6  C   UNK N   1      33.364  42.982  62.108  0.00  0.00     0.010 C 
HETATM    7  C   UNK N   1      33.529  44.514  62.418  0.00  0.00     0.004 C 
HETATM    8  C   UNK N   1      32.283  45.060  63.259  0.00  0.00    -0.028 C 
HETATM    9  C   UNK N   1      30.938  44.798  62.417  0.00  0.00    -0.006 A 
HETATM   10  C   UNK N   1      29.584  45.034  63.192  0.00  0.00     0.097 A 
HETATM   11  C   UNK N   1      30.841  45.573  61.068  0.00  0.00     0.021 C 
HETATM   12  C   UNK N   1      32.467  46.583  63.500  0.00  0.00     0.011 C 
HETATM   13  C   UNK N   1      33.843  46.968  64.071  0.00  0.00     0.007 C 
HETATM   14  C   UNK N   1      34.978  46.510  63.106  0.00  0.00     0.004 C 
HETATM   15  C   UNK N   1      36.388  47.190  63.365  0.00  0.00    -0.017 C 
HETATM   16  C   UNK N   1      37.368  46.709  62.243  0.00  0.00     0.126 C 
HETATM   17  C   UNK N   1      37.434  45.176  62.124  0.00  0.00     0.033 C 
HETATM   18  C   UNK N   1      36.038  44.581  61.849  0.00  0.00     0.012 C 
HETATM   19  C   UNK N   1      34.981  44.931  62.948  0.00  0.00    -0.035 C 
HETATM   20  C   UNK N   1      35.378  44.159  64.248  0.00  0.00     0.016 C 
HETATM   21  C   UNK N   1      36.965  46.928  64.780  0.00  0.00     0.018 C 
HETATM   22  C   UNK N   1      36.258  48.734  63.231  0.00  0.00     0.018 C 
HETATM   23  C   UNK N   1      32.164  44.342  64.649  0.00  0.00     0.016 C 
ENDROOT
BRANCH  16  24
HETATM   24  O   UNK N   1      38.657  47.229  62.468  0.00  0.00    -0.395 OA
HETATM   25  H   UNK N   1      38.859  47.850  61.720  0.00  0.00     0.210 HD
ENDBRANCH  16  24
TORSDOF 1
ENDMDL
MODEL 7
REMARK VINA RESULT:      -5.1     27.688     30.477
REMARK  1 active torsions:
REMARK  status: ('A' for Active; 'I' for Inactive)
REMARK    1  A    between atoms: C_16  and  O_17 
ROOT
HETATM    1  O   UNK N   1      27.043  41.290  52.104  0.00  0.00    -0.293 OA
HETATM    2  C   UNK N   1      27.797  41.128  53.052  0.00  0.00     0.150 A 
HETATM    3  C   UNK N   1      28.101  39.843  53.625  0.00  0.00     0.053 A 
HETATM    4  C   UNK N   1      28.968  40.008  54.607  0.00  0.00    -0.067 A 
HETATM    5  C   UNK N   1      29.523  38.923  55.478  0.00  0.00     0.035 C 
HETATM    6  C   UNK N   1      29.205  39.252  56.945  0.00  0.00     0.010 C 
HETATM    7  C   UNK N   1      29.619  40.719  57.329  0.00  0.00     0.004 C 
HETATM    8  C   UNK N   1      28.917  41.779  56.358  0.00  0.00    -0.028 C 
HETATM    9  C   UNK N   1      29.345  41.452  54.842  0.00  0.00    -0.006 A 
HETATM   10  C   UNK N   1      28.551  42.228  53.721  0.00  0.00     0.097 A 
HETATM   11  C   UNK N   1      30.864  41.618  54.534  0.00  0.00     0.021 C 
HETATM   12  C   UNK N   1      29.391  43.206  56.745  0.00  0.00     0.011 C 
HETATM   13  C   UNK N   1      29.262  43.527  58.244  0.00  0.00     0.007 C 
HETATM   14  C   UNK N   1      30.095  42.517  59.089  0.00  0.00     0.004 C 
HETATM   15  C   UNK N   1      30.375  42.970  60.583  0.00  0.00    -0.017 C 
HETATM   16  C   UNK N   1      31.314  41.904  61.242  0.00  0.00     0.126 C 
HETATM   17  C   UNK N   1      30.766  40.471  61.123  0.00  0.00     0.033 C 
HETATM   18  C   UNK N   1      30.538  40.084  59.647  0.00  0.00     0.012 C 
HETATM   19  C   UNK N   1      29.552  41.039  58.896  0.00  0.00    -0.035 C 
HETATM   20  C   UNK N   1      28.123  40.800  59.485  0.00  0.00     0.016 C 
HETATM   21  C   UNK N   1      29.094  43.202  61.424  0.00  0.00     0.018 C 
HETATM   22  C   UNK N   1      31.143  44.322  60.585  0.00  0.00     0.018 C 
HETATM   23  C   UNK N   1      27.353  41.721  56.471  0.00  0.00     0.016 C 
ENDROOT
BRANCH  16  24
HETATM   24  O   UNK N   1      31.538  42.222  62.594  0.00  0.00    -0.395 OA
HETATM   25  H   UNK N   1      32.175  41.551  62.954  0.00  0.00     0.210 HD
ENDBRANCH  16  24
TORSDOF 1
ENDMDL
MODEL 8
REMARK VINA RESULT:      -5.1     26.411     28.755
REMARK  1 active torsions:
REMARK  status: ('A' for Active; 'I' for Inactive)
REMARK    1  A    between atoms: C_16  and  O_17 
ROOT
HETATM    1  O   UNK N   1      30.399  40.404  59.958  0.00  0.00    -0.293 OA
HETATM    2  C   UNK N   1      30.308  41.413  59.274  0.00  0.00     0.150 A 
HETATM    3  C   UNK N   1      31.440  42.140  58.762  0.00  0.00     0.053 A 
HETATM    4  C   UNK N   1      31.002  43.156  58.040  0.00  0.00    -0.067 A 
HETATM    5  C   UNK N   1      31.858  44.173  57.351  0.00  0.00     0.035 C 
HETATM    6  C   UNK N   1      31.474  45.572  57.859  0.00  0.00     0.010 C 
HETATM    7  C   UNK N   1      29.924  45.822  57.795  0.00  0.00     0.004 C 
HETATM    8  C   UNK N   1      29.133  44.697  58.613  0.00  0.00    -0.028 C 
HETATM    9  C   UNK N   1      29.497  43.259  57.993  0.00  0.00    -0.006 A 
HETATM   10  C   UNK N   1      29.016  42.009  58.829  0.00  0.00     0.097 A 
HETATM   11  C   UNK N   1      29.035  43.037  56.521  0.00  0.00     0.021 C 
HETATM   12  C   UNK N   1      27.608  44.959  58.483  0.00  0.00     0.011 C 
HETATM   13  C   UNK N   1      27.187  46.403  58.809  0.00  0.00     0.007 C 
HETATM   14  C   UNK N   1      27.912  47.406  57.862  0.00  0.00     0.004 C 
HETATM   15  C   UNK N   1      27.275  48.858  57.816  0.00  0.00    -0.017 C 
HETATM   16  C   UNK N   1      28.049  49.690  56.739  0.00  0.00     0.126 C 
HETATM   17  C   UNK N   1      29.572  49.690  56.964  0.00  0.00     0.033 C 
HETATM   18  C   UNK N   1      30.131  48.252  56.975  0.00  0.00     0.012 C 
HETATM   19  C   UNK N   1      29.484  47.337  58.067  0.00  0.00    -0.035 C 
HETATM   20  C   UNK N   1      29.971  47.851  59.461  0.00  0.00     0.016 C 
HETATM   21  C   UNK N   1      27.250  49.580  59.188  0.00  0.00     0.018 C 
HETATM   22  C   UNK N   1      25.795  48.766  57.350  0.00  0.00     0.018 C 
HETATM   23  C   UNK N   1      29.517  44.710  60.135  0.00  0.00     0.016 C 
ENDROOT
BRANCH  16  24
HETATM   24  O   UNK N   1      27.568  51.012  56.708  0.00  0.00    -0.395 OA
HETATM   25  H   UNK N   1      27.193  51.211  57.605  0.00  0.00     0.210 HD
ENDBRANCH  16  24
TORSDOF 1
ENDMDL
MODEL 9
REMARK VINA RESULT:      -4.8     27.026     29.636
REMARK  1 active torsions:
REMARK  status: ('A' for Active; 'I' for Inactive)
REMARK    1  A    between atoms: C_16  and  O_17 
ROOT
HETATM    1  O   UNK N   1      28.143  42.751  56.349  0.00  0.00    -0.293 OA
HETATM    2  C   UNK N   1      29.112  43.118  56.997  0.00  0.00     0.150 A 
HETATM    3  C   UNK N   1      30.331  42.360  57.117  0.00  0.00     0.053 A 
HETATM    4  C   UNK N   1      31.187  43.044  57.855  0.00  0.00    -0.067 A 
HETATM    5  C   UNK N   1      32.563  42.597  58.240  0.00  0.00     0.035 C 
HETATM    6  C   UNK N   1      32.673  42.592  59.773  0.00  0.00     0.010 C 
HETATM    7  C   UNK N   1      32.187  43.945  60.409  0.00  0.00     0.004 C 
HETATM    8  C   UNK N   1      30.688  44.276  59.960  0.00  0.00    -0.028 C 
HETATM    9  C   UNK N   1      30.637  44.359  58.355  0.00  0.00    -0.006 A 
HETATM   10  C   UNK N   1      29.195  44.422  57.716  0.00  0.00     0.097 A 
HETATM   11  C   UNK N   1      31.474  45.512  57.725  0.00  0.00     0.021 C 
HETATM   12  C   UNK N   1      30.270  45.641  60.573  0.00  0.00     0.011 C 
HETATM   13  C   UNK N   1      30.526  45.756  62.086  0.00  0.00     0.007 C 
HETATM   14  C   UNK N   1      32.040  45.553  62.396  0.00  0.00     0.004 C 
HETATM   15  C   UNK N   1      32.496  46.042  63.835  0.00  0.00    -0.017 C 
HETATM   16  C   UNK N   1      34.050  45.872  63.931  0.00  0.00     0.126 C 
HETATM   17  C   UNK N   1      34.518  44.447  63.585  0.00  0.00     0.033 C 
HETATM   18  C   UNK N   1      34.063  44.043  62.168  0.00  0.00     0.012 C 
HETATM   19  C   UNK N   1      32.512  44.100  61.969  0.00  0.00    -0.035 C 
HETATM   20  C   UNK N   1      31.885  42.947  62.818  0.00  0.00     0.016 C 
HETATM   21  C   UNK N   1      31.770  45.329  65.005  0.00  0.00     0.018 C 
HETATM   22  C   UNK N   1      32.189  47.558  63.995  0.00  0.00     0.018 C 
HETATM   23  C   UNK N   1      29.681  43.177  60.449  0.00  0.00     0.016 C 
ENDROOT
BRANCH  16  24
HETATM   24  O   UNK N   1      34.500  46.227  65.216  0.00  0.00    -0.395 OA
HETATM   25  H   UNK N   1      33.848  45.858  65.869  0.00  0.00     0.210 HD
ENDBRANCH  16  24
TORSDOF 1
ENDMDL
