MODEL 1
REMARK VINA RESULT:      -6.6      0.000      0.000
REMARK  8 active torsions:
REMARK  status: ('A' for Active; 'I' for Inactive)
REMARK    1  A    between atoms: O_1  and  C_2 
REMARK    2  A    between atoms: C_15  and  C_16 
REMARK    3  A    between atoms: C_16  and  C_17 
REMARK    4  A    between atoms: C_17  and  C_18 
REMARK    5  A    between atoms: C_18  and  O_19 
REMARK    6  A    between atoms: C_18  and  C_21 
REMARK    7  A    between atoms: C_21  and  C_22 
REMARK    8  A    between atoms: C_29  and  O_30 
ROOT
HETATM    1  C   UNK N   1      27.901  55.302  38.130  0.00  0.00     0.124 C 
HETATM    2  C   UNK N   1      27.138  56.352  38.982  0.00  0.00     0.029 C 
HETATM    3  C   UNK N   1      26.581  55.749  40.323  0.00  0.00    -0.014 C 
HETATM    4  C   UNK N   1      27.775  55.093  41.061  0.00  0.00    -0.070 C 
HETATM    5  C   UNK N   1      28.117  55.419  42.339  0.00  0.00    -0.022 C 
HETATM    6  C   UNK N   1      29.285  54.791  43.081  0.00  0.00     0.037 C 
HETATM    7  C   UNK N   1      30.445  54.343  42.142  0.00  0.00    -0.033 C 
HETATM    8  C   UNK N   1      29.697  53.392  41.117  0.00  0.00     0.002 C 
HETATM    9  C   UNK N   1      28.593  54.073  40.257  0.00  0.00     0.022 C 
HETATM   10  C   UNK N   1      29.081  54.723  38.940  0.00  0.00     0.041 C 
HETATM   11  C   UNK N   1      30.675  52.538  40.312  0.00  0.00     0.006 C 
HETATM   12  C   UNK N   1      31.462  51.602  41.241  0.00  0.00     0.001 C 
HETATM   13  C   UNK N   1      31.455  52.029  42.724  0.00  0.00     0.006 C 
HETATM   14  C   UNK N   1      31.647  53.560  42.896  0.00  0.00    -0.002 C 
HETATM   15  C   UNK N   1      31.068  55.592  41.451  0.00  0.00     0.016 C 
HETATM   16  C   UNK N   1      25.918  56.924  41.118  0.00  0.00     0.016 C 
HETATM   17  C   UNK N   1      24.818  57.644  40.313  0.00  0.00     0.033 C 
HETATM   18  C   UNK N   1      25.371  58.174  38.984  0.00  0.00     0.118 C 
HETATM   19  C   UNK N   1      26.014  57.039  38.166  0.00  0.00     0.039 C 
HETATM   20  C   UNK N   1      25.513  54.636  40.100  0.00  0.00     0.020 C 
ENDROOT
BRANCH  14  21
HETATM   21  C   UNK N   1      31.901  53.947  44.420  0.00  0.00    -0.012 C 
HETATM   22  C   UNK N   1      32.861  52.948  45.120  0.00  0.00     0.010 C 
BRANCH  21  23
HETATM   23  C   UNK N   1      32.477  55.389  44.611  0.00  0.00     0.036 C 
BRANCH  23  24
HETATM   24  C   UNK N   1      33.964  55.503  45.053  0.00  0.00     0.118 C 
BRANCH  24  25
HETATM   25  O   UNK N   1      34.775  55.375  43.912  0.00  0.00    -0.396 OA
HETATM   26  H   UNK N   1      35.434  54.653  44.088  0.00  0.00     0.210 HD
ENDBRANCH  24  25
BRANCH  24  27
HETATM   27  C   UNK N   1      34.288  56.812  45.828  0.00  0.00     0.035 C 
BRANCH  27  28
HETATM   28  C   UNK N   1      34.249  56.683  47.374  0.00  0.00    -0.020 C 
HETATM   29  C   UNK N   1      33.587  57.932  47.980  0.00  0.00     0.009 C 
HETATM   30  C   UNK N   1      35.630  56.489  48.015  0.00  0.00     0.009 C 
ENDBRANCH  27  28
ENDBRANCH  24  27
ENDBRANCH  23  24
ENDBRANCH  21  23
ENDBRANCH  14  21
BRANCH   1  31
HETATM   31  O   UNK N   1      28.402  55.913  36.969  0.00  0.00    -0.395 OA
HETATM   32  H   UNK N   1      27.646  55.982  36.328  0.00  0.00     0.210 HD
ENDBRANCH   1  31
BRANCH  18  33
HETATM   33  O   UNK N   1      24.326  58.766  38.257  0.00  0.00    -0.396 OA
HETATM   34  H   UNK N   1      23.496  58.638  38.786  0.00  0.00     0.210 HD
ENDBRANCH  18  33
TORSDOF 8
ENDMDL
MODEL 2
REMARK VINA RESULT:      -6.2     15.963     19.413
REMARK  8 active torsions:
REMARK  status: ('A' for Active; 'I' for Inactive)
REMARK    1  A    between atoms: O_1  and  C_2 
REMARK    2  A    between atoms: C_15  and  C_16 
REMARK    3  A    between atoms: C_16  and  C_17 
REMARK    4  A    between atoms: C_17  and  C_18 
REMARK    5  A    between atoms: C_18  and  O_19 
REMARK    6  A    between atoms: C_18  and  C_21 
REMARK    7  A    between atoms: C_21  and  C_22 
REMARK    8  A    between atoms: C_29  and  O_30 
ROOT
HETATM    1  C   UNK N   1      30.866  41.802  55.362  0.00  0.00     0.124 C 
HETATM    2  C   UNK N   1      29.513  42.196  54.710  0.00  0.00     0.029 C 
HETATM    3  C   UNK N   1      28.318  42.145  55.729  0.00  0.00    -0.014 C 
HETATM    4  C   UNK N   1      28.708  43.029  56.939  0.00  0.00    -0.070 C 
HETATM    5  C   UNK N   1      27.931  44.057  57.380  0.00  0.00    -0.022 C 
HETATM    6  C   UNK N   1      28.295  44.939  58.563  0.00  0.00     0.037 C 
HETATM    7  C   UNK N   1      29.833  45.090  58.770  0.00  0.00    -0.033 C 
HETATM    8  C   UNK N   1      30.306  43.579  58.873  0.00  0.00     0.002 C 
HETATM    9  C   UNK N   1      30.056  42.713  57.604  0.00  0.00     0.022 C 
HETATM   10  C   UNK N   1      31.179  42.750  56.540  0.00  0.00     0.041 C 
HETATM   11  C   UNK N   1      31.720  43.461  59.438  0.00  0.00     0.006 C 
HETATM   12  C   UNK N   1      31.772  44.005  60.874  0.00  0.00     0.001 C 
HETATM   13  C   UNK N   1      30.595  44.934  61.242  0.00  0.00     0.006 C 
HETATM   14  C   UNK N   1      30.247  45.923  60.098  0.00  0.00    -0.002 C 
HETATM   15  C   UNK N   1      30.454  45.827  57.547  0.00  0.00     0.016 C 
HETATM   16  C   UNK N   1      27.043  42.645  54.970  0.00  0.00     0.016 C 
HETATM   17  C   UNK N   1      26.746  41.828  53.696  0.00  0.00     0.033 C 
HETATM   18  C   UNK N   1      27.948  41.846  52.744  0.00  0.00     0.118 C 
HETATM   19  C   UNK N   1      29.218  41.340  53.453  0.00  0.00     0.039 C 
HETATM   20  C   UNK N   1      28.038  40.713  56.277  0.00  0.00     0.020 C 
ENDROOT
BRANCH  14  21
HETATM   21  C   UNK N   1      29.219  47.038  60.585  0.00  0.00    -0.012 C 
HETATM   22  C   UNK N   1      28.736  46.785  62.038  0.00  0.00     0.010 C 
BRANCH  21  23
HETATM   23  C   UNK N   1      29.793  48.492  60.509  0.00  0.00     0.036 C 
BRANCH  23  24
HETATM   24  C   UNK N   1      29.182  49.437  59.436  0.00  0.00     0.118 C 
BRANCH  24  25
HETATM   25  O   UNK N   1      29.158  50.742  59.958  0.00  0.00    -0.396 OA
HETATM   26  H   UNK N   1      29.284  50.677  60.942  0.00  0.00     0.210 HD
ENDBRANCH  24  25
BRANCH  24  27
HETATM   27  C   UNK N   1      29.923  49.394  58.069  0.00  0.00     0.035 C 
BRANCH  27  28
HETATM   28  C   UNK N   1      29.019  49.082  56.845  0.00  0.00    -0.020 C 
HETATM   29  C   UNK N   1      28.669  50.390  56.117  0.00  0.00     0.009 C 
HETATM   30  C   UNK N   1      27.721  48.346  57.205  0.00  0.00     0.009 C 
ENDBRANCH  27  28
ENDBRANCH  24  27
ENDBRANCH  23  24
ENDBRANCH  21  23
ENDBRANCH  14  21
BRANCH   1  31
HETATM   31  O   UNK N   1      31.894  41.905  54.410  0.00  0.00    -0.395 OA
HETATM   32  H   UNK N   1      31.536  42.438  53.653  0.00  0.00     0.210 HD
ENDBRANCH   1  31
BRANCH  18  33
HETATM   33  O   UNK N   1      27.660  41.042  51.629  0.00  0.00    -0.396 OA
HETATM   34  H   UNK N   1      27.596  40.107  51.955  0.00  0.00     0.210 HD
ENDBRANCH  18  33
TORSDOF 8
ENDMDL
MODEL 3
REMARK VINA RESULT:      -6.2     19.149     23.955
REMARK  8 active torsions:
REMARK  status: ('A' for Active; 'I' for Inactive)
REMARK    1  A    between atoms: O_1  and  C_2 
REMARK    2  A    between atoms: C_15  and  C_16 
REMARK    3  A    between atoms: C_16  and  C_17 
REMARK    4  A    between atoms: C_17  and  C_18 
REMARK    5  A    between atoms: C_18  and  O_19 
REMARK    6  A    between atoms: C_18  and  C_21 
REMARK    7  A    between atoms: C_21  and  C_22 
REMARK    8  A    between atoms: C_29  and  O_30 
ROOT
HETATM    1  C   UNK N   1      33.756  46.650  64.092  0.00  0.00     0.124 C 
HETATM    2  C   UNK N   1      34.920  46.502  63.075  0.00  0.00     0.029 C 
HETATM    3  C   UNK N   1      35.399  45.013  62.922  0.00  0.00    -0.014 C 
HETATM    4  C   UNK N   1      34.151  44.164  62.570  0.00  0.00    -0.070 C 
HETATM    5  C   UNK N   1      34.091  43.369  61.466  0.00  0.00    -0.022 C 
HETATM    6  C   UNK N   1      32.878  42.530  61.100  0.00  0.00     0.037 C 
HETATM    7  C   UNK N   1      31.532  43.145  61.590  0.00  0.00    -0.033 C 
HETATM    8  C   UNK N   1      31.794  43.326  63.144  0.00  0.00     0.002 C 
HETATM    9  C   UNK N   1      32.951  44.297  63.518  0.00  0.00     0.022 C 
HETATM   10  C   UNK N   1      32.555  45.788  63.647  0.00  0.00     0.041 C 
HETATM   11  C   UNK N   1      30.499  43.575  63.916  0.00  0.00     0.006 C 
HETATM   12  C   UNK N   1      29.561  42.364  63.796  0.00  0.00     0.001 C 
HETATM   13  C   UNK N   1      29.886  41.426  62.614  0.00  0.00     0.006 C 
HETATM   14  C   UNK N   1      30.236  42.209  61.321  0.00  0.00    -0.002 C 
HETATM   15  C   UNK N   1      31.284  44.501  60.865  0.00  0.00     0.016 C 
HETATM   16  C   UNK N   1      36.505  44.995  61.813  0.00  0.00     0.016 C 
HETATM   17  C   UNK N   1      37.679  45.946  62.124  0.00  0.00     0.033 C 
HETATM   18  C   UNK N   1      37.180  47.382  62.327  0.00  0.00     0.118 C 
HETATM   19  C   UNK N   1      36.103  47.440  63.427  0.00  0.00     0.039 C 
HETATM   20  C   UNK N   1      36.001  44.422  64.232  0.00  0.00     0.020 C 
ENDROOT
BRANCH  14  21
HETATM   21  C   UNK N   1      30.308  41.243  60.056  0.00  0.00    -0.012 C 
HETATM   22  C   UNK N   1      30.272  39.747  60.468  0.00  0.00     0.010 C 
BRANCH  21  23
HETATM   23  C   UNK N   1      29.165  41.489  59.017  0.00  0.00     0.036 C 
BRANCH  23  24
HETATM   24  C   UNK N   1      29.584  42.042  57.625  0.00  0.00     0.118 C 
BRANCH  24  25
HETATM   25  O   UNK N   1      28.655  41.591  56.672  0.00  0.00    -0.396 OA
HETATM   26  H   UNK N   1      29.114  40.928  56.091  0.00  0.00     0.210 HD
ENDBRANCH  24  25
BRANCH  24  27
HETATM   27  C   UNK N   1      29.724  43.591  57.583  0.00  0.00     0.035 C 
BRANCH  27  28
HETATM   28  C   UNK N   1      31.091  44.111  57.064  0.00  0.00    -0.020 C 
HETATM   29  C   UNK N   1      32.217  43.196  57.572  0.00  0.00     0.009 C 
HETATM   30  C   UNK N   1      31.400  45.558  57.472  0.00  0.00     0.009 C 
ENDBRANCH  27  28
ENDBRANCH  24  27
ENDBRANCH  23  24
ENDBRANCH  21  23
ENDBRANCH  14  21
BRANCH   1  31
HETATM   31  O   UNK N   1      33.353  47.994  64.154  0.00  0.00    -0.395 OA
HETATM   32  H   UNK N   1      33.233  48.304  63.218  0.00  0.00     0.210 HD
ENDBRANCH   1  31
BRANCH  18  33
HETATM   33  O   UNK N   1      38.268  48.201  62.668  0.00  0.00    -0.396 OA
HETATM   34  H   UNK N   1      38.572  47.917  63.569  0.00  0.00     0.210 HD
ENDBRANCH  18  33
TORSDOF 8
ENDMDL
MODEL 4
REMARK VINA RESULT:      -6.2     16.127     19.696
REMARK  8 active torsions:
REMARK  status: ('A' for Active; 'I' for Inactive)
REMARK    1  A    between atoms: O_1  and  C_2 
REMARK    2  A    between atoms: C_15  and  C_16 
REMARK    3  A    between atoms: C_16  and  C_17 
REMARK    4  A    between atoms: C_17  and  C_18 
REMARK    5  A    between atoms: C_18  and  O_19 
REMARK    6  A    between atoms: C_18  and  C_21 
REMARK    7  A    between atoms: C_21  and  C_22 
REMARK    8  A    between atoms: C_29  and  O_30 
ROOT
HETATM    1  C   UNK N   1      26.800  48.546  60.065  0.00  0.00     0.124 C 
HETATM    2  C   UNK N   1      27.049  48.938  58.583  0.00  0.00     0.029 C 
HETATM    3  C   UNK N   1      28.567  49.215  58.282  0.00  0.00    -0.014 C 
HETATM    4  C   UNK N   1      29.361  47.966  58.740  0.00  0.00    -0.070 C 
HETATM    5  C   UNK N   1      30.195  47.281  57.910  0.00  0.00    -0.022 C 
HETATM    6  C   UNK N   1      30.982  46.053  58.336  0.00  0.00     0.037 C 
HETATM    7  C   UNK N   1      30.277  45.225  59.454  0.00  0.00    -0.033 C 
HETATM    8  C   UNK N   1      30.049  46.316  60.583  0.00  0.00     0.002 C 
HETATM    9  C   UNK N   1      29.127  47.505  60.186  0.00  0.00     0.022 C 
HETATM   10  C   UNK N   1      27.613  47.283  60.420  0.00  0.00     0.041 C 
HETATM   11  C   UNK N   1      29.701  45.681  61.928  0.00  0.00     0.006 C 
HETATM   12  C   UNK N   1      30.864  44.811  62.428  0.00  0.00     0.001 C 
HETATM   13  C   UNK N   1      31.864  44.397  61.327  0.00  0.00     0.006 C 
HETATM   14  C   UNK N   1      31.152  43.980  60.012  0.00  0.00    -0.002 C 
HETATM   15  C   UNK N   1      28.940  44.644  58.907  0.00  0.00     0.016 C 
HETATM   16  C   UNK N   1      28.687  49.510  56.749  0.00  0.00     0.016 C 
HETATM   17  C   UNK N   1      27.790  50.678  56.292  0.00  0.00     0.033 C 
HETATM   18  C   UNK N   1      26.322  50.410  56.648  0.00  0.00     0.118 C 
HETATM   19  C   UNK N   1      26.163  50.135  58.156  0.00  0.00     0.039 C 
HETATM   20  C   UNK N   1      29.137  50.435  59.068  0.00  0.00     0.020 C 
ENDROOT
BRANCH  14  21
HETATM   21  C   UNK N   1      32.170  43.311  58.986  0.00  0.00    -0.012 C 
HETATM   22  C   UNK N   1      33.267  42.487  59.713  0.00  0.00     0.010 C 
BRANCH  21  23
HETATM   23  C   UNK N   1      31.477  42.381  57.937  0.00  0.00     0.036 C 
BRANCH  23  24
HETATM   24  C   UNK N   1      31.188  42.990  56.535  0.00  0.00     0.118 C 
BRANCH  24  25
HETATM   25  O   UNK N   1      32.345  42.855  55.747  0.00  0.00    -0.396 OA
HETATM   26  H   UNK N   1      32.911  43.657  55.900  0.00  0.00     0.210 HD
ENDBRANCH  24  25
BRANCH  24  27
HETATM   27  C   UNK N   1      29.951  42.369  55.826  0.00  0.00     0.035 C 
BRANCH  27  28
HETATM   28  C   UNK N   1      30.282  41.431  54.634  0.00  0.00    -0.020 C 
HETATM   29  C   UNK N   1      29.486  41.872  53.395  0.00  0.00     0.009 C 
HETATM   30  C   UNK N   1      29.994  39.949  54.912  0.00  0.00     0.009 C 
ENDBRANCH  27  28
ENDBRANCH  24  27
ENDBRANCH  23  24
ENDBRANCH  21  23
ENDBRANCH  14  21
BRANCH   1  31
HETATM   31  O   UNK N   1      25.435  48.276  60.256  0.00  0.00    -0.395 OA
HETATM   32  H   UNK N   1      25.359  47.741  61.090  0.00  0.00     0.210 HD
ENDBRANCH   1  31
BRANCH  18  33
HETATM   33  O   UNK N   1      25.550  51.521  56.273  0.00  0.00    -0.396 OA
HETATM   34  H   UNK N   1      25.319  52.008  57.106  0.00  0.00     0.210 HD
ENDBRANCH  18  33
TORSDOF 8
ENDMDL
MODEL 5
REMARK VINA RESULT:      -5.9     16.248     20.450
REMARK  8 active torsions:
REMARK  status: ('A' for Active; 'I' for Inactive)
REMARK    1  A    between atoms: O_1  and  C_2 
REMARK    2  A    between atoms: C_15  and  C_16 
REMARK    3  A    between atoms: C_16  and  C_17 
REMARK    4  A    between atoms: C_17  and  C_18 
REMARK    5  A    between atoms: C_18  and  O_19 
REMARK    6  A    between atoms: C_18  and  C_21 
REMARK    7  A    between atoms: C_21  and  C_22 
REMARK    8  A    between atoms: C_29  and  O_30 
ROOT
HETATM    1  C   UNK N   1      29.476  43.022  60.075  0.00  0.00     0.124 C 
HETATM    2  C   UNK N   1      30.988  43.128  59.738  0.00  0.00     0.029 C 
HETATM    3  C   UNK N   1      31.243  43.610  58.264  0.00  0.00    -0.014 C 
HETATM    4  C   UNK N   1      30.467  44.937  58.074  0.00  0.00    -0.070 C 
HETATM    5  C   UNK N   1      31.066  46.086  57.654  0.00  0.00    -0.022 C 
HETATM    6  C   UNK N   1      30.325  47.398  57.463  0.00  0.00     0.037 C 
HETATM    7  C   UNK N   1      29.099  47.559  58.413  0.00  0.00    -0.033 C 
HETATM    8  C   UNK N   1      28.260  46.250  58.100  0.00  0.00     0.002 C 
HETATM    9  C   UNK N   1      28.973  44.906  58.428  0.00  0.00     0.022 C 
HETATM   10  C   UNK N   1      28.795  44.393  59.878  0.00  0.00     0.041 C 
HETATM   11  C   UNK N   1      26.833  46.345  58.636  0.00  0.00     0.006 C 
HETATM   12  C   UNK N   1      26.076  47.491  57.949  0.00  0.00     0.001 C 
HETATM   13  C   UNK N   1      26.988  48.537  57.272  0.00  0.00     0.006 C 
HETATM   14  C   UNK N   1      28.221  48.895  58.145  0.00  0.00    -0.002 C 
HETATM   15  C   UNK N   1      29.589  47.615  59.890  0.00  0.00     0.016 C 
HETATM   16  C   UNK N   1      32.792  43.756  58.087  0.00  0.00     0.016 C 
HETATM   17  C   UNK N   1      33.556  42.455  58.405  0.00  0.00     0.033 C 
HETATM   18  C   UNK N   1      33.246  41.974  59.828  0.00  0.00     0.118 C 
HETATM   19  C   UNK N   1      31.730  41.800  60.031  0.00  0.00     0.039 C 
HETATM   20  C   UNK N   1      30.714  42.611  57.190  0.00  0.00     0.020 C 
ENDROOT
BRANCH  14  21
HETATM   21  C   UNK N   1      29.002  50.154  57.560  0.00  0.00    -0.012 C 
HETATM   22  C   UNK N   1      28.585  50.466  56.098  0.00  0.00     0.010 C 
BRANCH  21  23
HETATM   23  C   UNK N   1      28.814  51.455  58.408  0.00  0.00     0.036 C 
BRANCH  23  24
HETATM   24  C   UNK N   1      28.010  51.324  59.733  0.00  0.00     0.118 C 
BRANCH  24  25
HETATM   25  O   UNK N   1      28.896  51.511  60.808  0.00  0.00    -0.396 OA
HETATM   26  H   UNK N   1      29.000  50.638  61.271  0.00  0.00     0.210 HD
ENDBRANCH  24  25
BRANCH  24  27
HETATM   27  C   UNK N   1      26.799  52.295  59.829  0.00  0.00     0.035 C 
BRANCH  27  28
HETATM   28  C   UNK N   1      25.411  51.633  59.616  0.00  0.00    -0.020 C 
HETATM   29  C   UNK N   1      25.383  50.260  60.307  0.00  0.00     0.009 C 
HETATM   30  C   UNK N   1      25.027  51.457  58.140  0.00  0.00     0.009 C 
ENDBRANCH  27  28
ENDBRANCH  24  27
ENDBRANCH  23  24
ENDBRANCH  21  23
ENDBRANCH  14  21
BRANCH   1  31
HETATM   31  O   UNK N   1      29.319  42.624  61.413  0.00  0.00    -0.395 OA
HETATM   32  H   UNK N   1      28.401  42.886  61.687  0.00  0.00     0.210 HD
ENDBRANCH   1  31
BRANCH  18  33
HETATM   33  O   UNK N   1      33.911  40.758  60.055  0.00  0.00    -0.396 OA
HETATM   34  H   UNK N   1      34.000  40.657  61.038  0.00  0.00     0.210 HD
ENDBRANCH  18  33
TORSDOF 8
ENDMDL
MODEL 6
REMARK VINA RESULT:      -5.8      3.556      5.421
REMARK  8 active torsions:
REMARK  status: ('A' for Active; 'I' for Inactive)
REMARK    1  A    between atoms: O_1  and  C_2 
REMARK    2  A    between atoms: C_15  and  C_16 
REMARK    3  A    between atoms: C_16  and  C_17 
REMARK    4  A    between atoms: C_17  and  C_18 
REMARK    5  A    between atoms: C_18  and  O_19 
REMARK    6  A    between atoms: C_18  and  C_21 
REMARK    7  A    between atoms: C_21  and  C_22 
REMARK    8  A    between atoms: C_29  and  O_30 
ROOT
HETATM    1  C   UNK N   1      28.339  55.103  42.140  0.00  0.00     0.124 C 
HETATM    2  C   UNK N   1      27.900  53.809  41.403  0.00  0.00     0.029 C 
HETATM    3  C   UNK N   1      29.033  53.230  40.480  0.00  0.00    -0.014 C 
HETATM    4  C   UNK N   1      30.295  53.049  41.361  0.00  0.00    -0.070 C 
HETATM    5  C   UNK N   1      30.949  51.860  41.474  0.00  0.00    -0.022 C 
HETATM    6  C   UNK N   1      32.186  51.660  42.334  0.00  0.00     0.037 C 
HETATM    7  C   UNK N   1      32.235  52.602  43.575  0.00  0.00    -0.033 C 
HETATM    8  C   UNK N   1      32.089  54.035  42.911  0.00  0.00     0.002 C 
HETATM    9  C   UNK N   1      30.756  54.285  42.147  0.00  0.00     0.022 C 
HETATM   10  C   UNK N   1      29.585  54.819  43.006  0.00  0.00     0.041 C 
HETATM   11  C   UNK N   1      32.470  55.154  43.879  0.00  0.00     0.006 C 
HETATM   12  C   UNK N   1      33.948  55.037  44.281  0.00  0.00     0.001 C 
HETATM   13  C   UNK N   1      34.563  53.643  44.031  0.00  0.00     0.006 C 
HETATM   14  C   UNK N   1      33.602  52.494  44.439  0.00  0.00    -0.002 C 
HETATM   15  C   UNK N   1      31.053  52.265  44.532  0.00  0.00     0.016 C 
HETATM   16  C   UNK N   1      28.495  51.891  39.871  0.00  0.00     0.016 C 
HETATM   17  C   UNK N   1      27.169  52.073  39.105  0.00  0.00     0.033 C 
HETATM   18  C   UNK N   1      26.096  52.693  40.010  0.00  0.00     0.118 C 
HETATM   19  C   UNK N   1      26.586  54.024  40.611  0.00  0.00     0.039 C 
HETATM   20  C   UNK N   1      29.423  54.184  39.311  0.00  0.00     0.020 C 
ENDROOT
BRANCH  14  21
HETATM   21  C   UNK N   1      34.341  51.084  44.425  0.00  0.00    -0.012 C 
HETATM   22  C   UNK N   1      33.352  49.909  44.654  0.00  0.00     0.010 C 
BRANCH  21  23
HETATM   23  C   UNK N   1      35.129  50.805  43.102  0.00  0.00     0.036 C 
BRANCH  23  24
HETATM   24  C   UNK N   1      36.282  49.763  43.173  0.00  0.00     0.118 C 
BRANCH  24  25
HETATM   25  O   UNK N   1      35.746  48.491  42.909  0.00  0.00    -0.396 OA
HETATM   26  H   UNK N   1      36.022  47.886  43.647  0.00  0.00     0.210 HD
ENDBRANCH  24  25
BRANCH  24  27
HETATM   27  C   UNK N   1      37.471  50.079  42.222  0.00  0.00     0.035 C 
BRANCH  27  28
HETATM   28  C   UNK N   1      38.871  50.047  42.892  0.00  0.00    -0.020 C 
HETATM   29  C   UNK N   1      38.714  49.830  44.405  0.00  0.00     0.009 C 
HETATM   30  C   UNK N   1      39.702  51.316  42.652  0.00  0.00     0.009 C 
ENDBRANCH  27  28
ENDBRANCH  24  27
ENDBRANCH  23  24
ENDBRANCH  21  23
ENDBRANCH  14  21
BRANCH   1  31
HETATM   31  O   UNK N   1      27.297  55.545  42.973  0.00  0.00    -0.395 OA
HETATM   32  H   UNK N   1      26.689  54.773  43.111  0.00  0.00     0.210 HD
ENDBRANCH   1  31
BRANCH  18  33
HETATM   33  O   UNK N   1      24.928  52.899  39.259  0.00  0.00    -0.396 OA
HETATM   34  H   UNK N   1      24.216  53.161  39.898  0.00  0.00     0.210 HD
ENDBRANCH  18  33
TORSDOF 8
ENDMDL
MODEL 7
REMARK VINA RESULT:      -5.7     17.839     20.320
REMARK  8 active torsions:
REMARK  status: ('A' for Active; 'I' for Inactive)
REMARK    1  A    between atoms: O_1  and  C_2 
REMARK    2  A    between atoms: C_15  and  C_16 
REMARK    3  A    between atoms: C_16  and  C_17 
REMARK    4  A    between atoms: C_17  and  C_18 
REMARK    5  A    between atoms: C_18  and  O_19 
REMARK    6  A    between atoms: C_18  and  C_21 
REMARK    7  A    between atoms: C_21  and  C_22 
REMARK    8  A    between atoms: C_29  and  O_30 
ROOT
HETATM    1  C   UNK N   1      28.997  49.293  59.424  0.00  0.00     0.124 C 
HETATM    2  C   UNK N   1      27.513  49.044  59.808  0.00  0.00     0.029 C 
HETATM    3  C   UNK N   1      26.752  48.181  58.738  0.00  0.00    -0.014 C 
HETATM    4  C   UNK N   1      27.569  46.882  58.530  0.00  0.00    -0.070 C 
HETATM    5  C   UNK N   1      27.028  45.641  58.677  0.00  0.00    -0.022 C 
HETATM    6  C   UNK N   1      27.811  44.354  58.480  0.00  0.00     0.037 C 
HETATM    7  C   UNK N   1      29.327  44.496  58.814  0.00  0.00    -0.033 C 
HETATM    8  C   UNK N   1      29.761  45.708  57.887  0.00  0.00     0.002 C 
HETATM    9  C   UNK N   1      29.055  47.062  58.185  0.00  0.00     0.022 C 
HETATM   10  C   UNK N   1      29.732  47.945  59.260  0.00  0.00     0.041 C 
HETATM   11  C   UNK N   1      31.279  45.812  57.758  0.00  0.00     0.006 C 
HETATM   12  C   UNK N   1      31.849  44.556  57.083  0.00  0.00     0.001 C 
HETATM   13  C   UNK N   1      30.905  43.335  57.119  0.00  0.00     0.006 C 
HETATM   14  C   UNK N   1      30.206  43.172  58.495  0.00  0.00    -0.002 C 
HETATM   15  C   UNK N   1      29.499  44.813  60.329  0.00  0.00     0.016 C 
HETATM   16  C   UNK N   1      25.307  47.934  59.287  0.00  0.00     0.016 C 
HETATM   17  C   UNK N   1      24.556  49.242  59.608  0.00  0.00     0.033 C 
HETATM   18  C   UNK N   1      25.346  50.093  60.611  0.00  0.00     0.118 C 
HETATM   19  C   UNK N   1      26.769  50.373  60.092  0.00  0.00     0.039 C 
HETATM   20  C   UNK N   1      26.641  48.881  57.349  0.00  0.00     0.020 C 
ENDROOT
BRANCH  14  21
HETATM   21  C   UNK N   1      29.449  41.775  58.602  0.00  0.00    -0.012 C 
HETATM   22  C   UNK N   1      29.281  41.099  57.214  0.00  0.00     0.010 C 
BRANCH  21  23
HETATM   23  C   UNK N   1      30.152  40.755  59.557  0.00  0.00     0.036 C 
BRANCH  23  24
HETATM   24  C   UNK N   1      31.132  41.339  60.615  0.00  0.00     0.118 C 
BRANCH  24  25
HETATM   25  O   UNK N   1      30.724  40.898  61.886  0.00  0.00    -0.396 OA
HETATM   26  H   UNK N   1      30.807  39.908  61.905  0.00  0.00     0.210 HD
ENDBRANCH  24  25
BRANCH  24  27
HETATM   27  C   UNK N   1      32.623  40.984  60.350  0.00  0.00     0.035 C 
BRANCH  27  28
HETATM   28  C   UNK N   1      33.592  42.197  60.339  0.00  0.00    -0.020 C 
HETATM   29  C   UNK N   1      32.897  43.417  60.964  0.00  0.00     0.009 C 
HETATM   30  C   UNK N   1      34.100  42.572  58.940  0.00  0.00     0.009 C 
ENDBRANCH  27  28
ENDBRANCH  24  27
ENDBRANCH  23  24
ENDBRANCH  21  23
ENDBRANCH  14  21
BRANCH   1  31
HETATM   31  O   UNK N   1      29.627  50.035  60.436  0.00  0.00    -0.395 OA
HETATM   32  H   UNK N   1      28.971  50.133  61.175  0.00  0.00     0.210 HD
ENDBRANCH   1  31
BRANCH  18  33
HETATM   33  O   UNK N   1      24.661  51.299  60.827  0.00  0.00    -0.396 OA
HETATM   34  H   UNK N   1      23.692  51.085  60.828  0.00  0.00     0.210 HD
ENDBRANCH  18  33
TORSDOF 8
ENDMDL
MODEL 8
REMARK VINA RESULT:      -5.5     16.451     19.983
REMARK  8 active torsions:
REMARK  status: ('A' for Active; 'I' for Inactive)
REMARK    1  A    between atoms: O_1  and  C_2 
REMARK    2  A    between atoms: C_15  and  C_16 
REMARK    3  A    between atoms: C_16  and  C_17 
REMARK    4  A    between atoms: C_17  and  C_18 
REMARK    5  A    between atoms: C_18  and  O_19 
REMARK    6  A    between atoms: C_18  and  C_21 
REMARK    7  A    between atoms: C_21  and  C_22 
REMARK    8  A    between atoms: C_29  and  O_30 
ROOT
HETATM    1  C   UNK N   1      26.487  47.255  58.007  0.00  0.00     0.124 C 
HETATM    2  C   UNK N   1      27.818  47.694  57.339  0.00  0.00     0.029 C 
HETATM    3  C   UNK N   1      29.081  47.179  58.120  0.00  0.00    -0.014 C 
HETATM    4  C   UNK N   1      28.934  45.644  58.270  0.00  0.00    -0.070 C 
HETATM    5  C   UNK N   1      29.888  44.770  57.848  0.00  0.00    -0.022 C 
HETATM    6  C   UNK N   1      29.764  43.261  57.982  0.00  0.00     0.037 C 
HETATM    7  C   UNK N   1      28.289  42.757  57.941  0.00  0.00    -0.033 C 
HETATM    8  C   UNK N   1      27.614  43.604  59.100  0.00  0.00     0.002 C 
HETATM    9  C   UNK N   1      27.620  45.146  58.890  0.00  0.00     0.022 C 
HETATM   10  C   UNK N   1      26.423  45.716  58.092  0.00  0.00     0.041 C 
HETATM   11  C   UNK N   1      26.255  43.036  59.503  0.00  0.00     0.006 C 
HETATM   12  C   UNK N   1      26.412  41.617  60.071  0.00  0.00     0.001 C 
HETATM   13  C   UNK N   1      27.739  40.927  59.691  0.00  0.00     0.006 C 
HETATM   14  C   UNK N   1      28.122  41.166  58.206  0.00  0.00    -0.002 C 
HETATM   15  C   UNK N   1      27.674  43.061  56.543  0.00  0.00     0.016 C 
HETATM   16  C   UNK N   1      30.341  47.613  57.299  0.00  0.00     0.016 C 
HETATM   17  C   UNK N   1      30.400  49.134  57.052  0.00  0.00     0.033 C 
HETATM   18  C   UNK N   1      29.132  49.621  56.340  0.00  0.00     0.118 C 
HETATM   19  C   UNK N   1      27.872  49.229  57.133  0.00  0.00     0.039 C 
HETATM   20  C   UNK N   1      29.199  47.772  59.557  0.00  0.00     0.020 C 
ENDROOT
BRANCH  14  21
HETATM   21  C   UNK N   1      29.340  40.241  57.762  0.00  0.00    -0.012 C 
HETATM   22  C   UNK N   1      29.956  39.478  58.966  0.00  0.00     0.010 C 
BRANCH  21  23
HETATM   23  C   UNK N   1      28.961  39.193  56.664  0.00  0.00     0.036 C 
BRANCH  23  24
HETATM   24  C   UNK N   1      29.667  39.328  55.285  0.00  0.00     0.118 C 
BRANCH  24  25
HETATM   25  O   UNK N   1      29.824  38.041  54.741  0.00  0.00    -0.396 OA
HETATM   26  H   UNK N   1      30.763  37.757  54.897  0.00  0.00     0.210 HD
ENDBRANCH  24  25
BRANCH  24  27
HETATM   27  C   UNK N   1      28.929  40.270  54.293  0.00  0.00     0.035 C 
BRANCH  27  28
HETATM   28  C   UNK N   1      29.568  41.675  54.127  0.00  0.00    -0.020 C 
HETATM   29  C   UNK N   1      29.479  42.112  52.655  0.00  0.00     0.009 C 
HETATM   30  C   UNK N   1      31.033  41.748  54.582  0.00  0.00     0.009 C 
ENDBRANCH  27  28
ENDBRANCH  24  27
ENDBRANCH  23  24
ENDBRANCH  21  23
ENDBRANCH  14  21
BRANCH   1  31
HETATM   31  O   UNK N   1      25.403  47.714  57.241  0.00  0.00    -0.395 OA
HETATM   32  H   UNK N   1      24.575  47.435  57.713  0.00  0.00     0.210 HD
ENDBRANCH   1  31
BRANCH  18  33
HETATM   33  O   UNK N   1      29.199  51.016  56.191  0.00  0.00    -0.396 OA
HETATM   34  H   UNK N   1      28.358  51.300  55.747  0.00  0.00     0.210 HD
ENDBRANCH  18  33
TORSDOF 8
ENDMDL
MODEL 9
REMARK VINA RESULT:      -5.4     23.605     25.886
REMARK  8 active torsions:
REMARK  status: ('A' for Active; 'I' for Inactive)
REMARK    1  A    between atoms: O_1  and  C_2 
REMARK    2  A    between atoms: C_15  and  C_16 
REMARK    3  A    between atoms: C_16  and  C_17 
REMARK    4  A    between atoms: C_17  and  C_18 
REMARK    5  A    between atoms: C_18  and  O_19 
REMARK    6  A    between atoms: C_18  and  C_21 
REMARK    7  A    between atoms: C_21  and  C_22 
REMARK    8  A    between atoms: C_29  and  O_30 
ROOT
HETATM    1  C   UNK N   1      48.435  57.368  56.773  0.00  0.00     0.124 C 
HETATM    2  C   UNK N   1      48.975  56.159  55.961  0.00  0.00     0.029 C 
HETATM    3  C   UNK N   1      50.096  55.371  56.730  0.00  0.00    -0.014 C 
HETATM    4  C   UNK N   1      49.518  54.986  58.115  0.00  0.00    -0.070 C 
HETATM    5  C   UNK N   1      49.488  53.701  58.567  0.00  0.00    -0.022 C 
HETATM    6  C   UNK N   1      48.924  53.300  59.920  0.00  0.00     0.037 C 
HETATM    7  C   UNK N   1      47.785  54.241  60.418  0.00  0.00    -0.033 C 
HETATM    8  C   UNK N   1      48.481  55.665  60.364  0.00  0.00     0.002 C 
HETATM    9  C   UNK N   1      48.933  56.134  58.950  0.00  0.00     0.022 C 
HETATM   10  C   UNK N   1      47.862  56.883  58.122  0.00  0.00     0.041 C 
HETATM   11  C   UNK N   1      47.694  56.716  61.145  0.00  0.00     0.006 C 
HETATM   12  C   UNK N   1      47.636  56.345  62.635  0.00  0.00     0.001 C 
HETATM   13  C   UNK N   1      47.936  54.859  62.930  0.00  0.00     0.006 C 
HETATM   14  C   UNK N   1      47.252  53.908  61.912  0.00  0.00    -0.002 C 
HETATM   15  C   UNK N   1      46.565  54.136  59.457  0.00  0.00     0.016 C 
HETATM   16  C   UNK N   1      50.485  54.139  55.846  0.00  0.00     0.016 C 
HETATM   17  C   UNK N   1      50.936  54.540  54.427  0.00  0.00     0.033 C 
HETATM   18  C   UNK N   1      49.849  55.357  53.718  0.00  0.00     0.118 C 
HETATM   19  C   UNK N   1      49.456  56.590  54.553  0.00  0.00     0.039 C 
HETATM   20  C   UNK N   1      51.378  56.220  56.988  0.00  0.00     0.020 C 
ENDROOT
BRANCH  14  21
HETATM   21  C   UNK N   1      47.352  52.388  62.379  0.00  0.00    -0.012 C 
HETATM   22  C   UNK N   1      48.313  52.214  63.586  0.00  0.00     0.010 C 
BRANCH  21  23
HETATM   23  C   UNK N   1      45.971  51.761  62.763  0.00  0.00     0.036 C 
BRANCH  23  24
HETATM   24  C   UNK N   1      45.449  50.601  61.868  0.00  0.00     0.118 C 
BRANCH  24  25
HETATM   25  O   UNK N   1      45.019  51.144  60.645  0.00  0.00    -0.396 OA
HETATM   26  H   UNK N   1      44.953  52.129  60.758  0.00  0.00     0.210 HD
ENDBRANCH  24  25
BRANCH  24  27
HETATM   27  C   UNK N   1      46.489  49.467  61.643  0.00  0.00     0.035 C 
BRANCH  27  28
HETATM   28  C   UNK N   1      47.185  49.483  60.256  0.00  0.00    -0.020 C 
HETATM   29  C   UNK N   1      46.847  48.191  59.494  0.00  0.00     0.009 C 
HETATM   30  C   UNK N   1      48.710  49.636  60.328  0.00  0.00     0.009 C 
ENDBRANCH  27  28
ENDBRANCH  24  27
ENDBRANCH  23  24
ENDBRANCH  21  23
ENDBRANCH  14  21
BRANCH   1  31
HETATM   31  O   UNK N   1      47.414  58.003  56.047  0.00  0.00    -0.395 OA
HETATM   32  H   UNK N   1      47.394  58.951  56.343  0.00  0.00     0.210 HD
ENDBRANCH   1  31
BRANCH  18  33
HETATM   33  O   UNK N   1      50.323  55.753  52.457  0.00  0.00    -0.396 OA
HETATM   34  H   UNK N   1      51.221  56.152  52.598  0.00  0.00     0.210 HD
ENDBRANCH  18  33
TORSDOF 8
ENDMDL
