MODEL 1
REMARK VINA RESULT:      -7.2      0.000      0.000
REMARK  11 active torsions:
REMARK  status: ('A' for Active; 'I' for Inactive)
REMARK    1  A    between atoms: C_6  and  C_7 
REMARK    2  A    between atoms: C_7  and  O_8 
REMARK    3  A    between atoms: O_8  and  C_9 
REMARK    4  A    between atoms: C_11  and  C_21 
REMARK    5  A    between atoms: C_12  and  O_13 
REMARK    6  A    between atoms: C_15  and  O_16 
REMARK    7  A    between atoms: C_18  and  O_19 
REMARK    8  A    between atoms: C_21  and  O_22 
REMARK    9  A    between atoms: C_24  and  C_25 
REMARK   10  A    between atoms: C_25  and  C_26 
REMARK   11  A    between atoms: C_26  and  O_27 
ROOT
HETATM    1  C   UNK N   1      41.012  44.534  48.323  0.00  0.00     0.291 C 
HETATM    2  O   UNK N   1      41.972  44.042  47.398  0.00  0.00    -0.348 OA
HETATM    3  C   UNK N   1      41.363  43.302  46.348  0.00  0.00     0.179 C 
HETATM    4  C   UNK N   1      40.398  44.195  45.532  0.00  0.00     0.180 C 
HETATM    5  C   UNK N   1      39.331  44.790  46.469  0.00  0.00     0.183 C 
HETATM    6  C   UNK N   1      40.035  45.502  47.634  0.00  0.00     0.204 C 
ENDROOT
BRANCH   1   7
HETATM    7  O   UNK N   1      40.304  43.489  48.977  0.00  0.00    -0.358 OA
BRANCH   7   8
HETATM    8  C   UNK N   1      39.865  43.851  50.277  0.00  0.00     0.181 C 
BRANCH   8   9
HETATM    9  C   UNK N   1      40.932  43.683  51.396  0.00  0.00     0.050 A 
HETATM   10  C   UNK N   1      40.280  43.518  52.753  0.00  0.00    -0.073 A 
HETATM   11  C   UNK N   1      40.731  44.377  53.645  0.00  0.00     0.053 A 
HETATM   12  C   UNK N   1      39.266  42.454  53.071  0.00  0.00     0.044 C 
HETATM   13  C   UNK N   1      41.740  45.208  53.047  0.00  0.00     0.154 A 
HETATM   14  O   UNK N   1      42.380  46.037  53.671  0.00  0.00    -0.293 OA
HETATM   15  C   UNK N   1      41.956  44.869  51.600  0.00  0.00     0.072 A 
BRANCH  15  16
HETATM   16  C   UNK N   1      41.788  46.095  50.660  0.00  0.00     0.039 C 
BRANCH  16  17
HETATM   17  C   UNK N   1      43.108  46.629  50.087  0.00  0.00     0.165 C 
BRANCH  17  18
HETATM   18  O   UNK N   1      42.852  47.697  49.215  0.00  0.00    -0.401 OA
HETATM   19  H   UNK N   1      42.453  47.299  48.398  0.00  0.00     0.209 HD
ENDBRANCH  17  18
ENDBRANCH  16  17
ENDBRANCH  15  16
ENDBRANCH   8   9
ENDBRANCH   7   8
ENDBRANCH   1   7
BRANCH   6  20
HETATM   20  O   UNK N   1      39.078  45.973  48.550  0.00  0.00    -0.388 OA
HETATM   21  H   UNK N   1      38.611  45.178  48.917  0.00  0.00     0.210 HD
ENDBRANCH   6  20
BRANCH   3  22
HETATM   22  C   UNK N   1      42.480  42.752  45.453  0.00  0.00     0.198 C 
BRANCH  22  23
HETATM   23  O   UNK N   1      42.496  43.451  44.239  0.00  0.00    -0.398 OA
HETATM   24  H   UNK N   1      41.921  44.249  44.373  0.00  0.00     0.209 HD
ENDBRANCH  22  23
ENDBRANCH   3  22
BRANCH   5  25
HETATM   25  O   UNK N   1      38.535  45.696  45.747  0.00  0.00    -0.390 OA
HETATM   26  H   UNK N   1      37.587  45.475  45.937  0.00  0.00     0.210 HD
ENDBRANCH   5  25
BRANCH   4  27
HETATM   27  O   UNK N   1      39.785  43.429  44.526  0.00  0.00    -0.390 OA
HETATM   28  H   UNK N   1      39.582  44.041  43.772  0.00  0.00     0.210 HD
ENDBRANCH   4  27
TORSDOF 11
ENDMDL
MODEL 2
REMARK VINA RESULT:      -7.1      1.680      6.784
REMARK  11 active torsions:
REMARK  status: ('A' for Active; 'I' for Inactive)
REMARK    1  A    between atoms: C_6  and  C_7 
REMARK    2  A    between atoms: C_7  and  O_8 
REMARK    3  A    between atoms: O_8  and  C_9 
REMARK    4  A    between atoms: C_11  and  C_21 
REMARK    5  A    between atoms: C_12  and  O_13 
REMARK    6  A    between atoms: C_15  and  O_16 
REMARK    7  A    between atoms: C_18  and  O_19 
REMARK    8  A    between atoms: C_21  and  O_22 
REMARK    9  A    between atoms: C_24  and  C_25 
REMARK   10  A    between atoms: C_25  and  C_26 
REMARK   11  A    between atoms: C_26  and  O_27 
ROOT
HETATM    1  C   UNK N   1      40.862  44.497  50.304  0.00  0.00     0.291 C 
HETATM    2  O   UNK N   1      39.894  43.917  51.168  0.00  0.00    -0.348 OA
HETATM    3  C   UNK N   1      40.496  43.303  52.299  0.00  0.00     0.179 C 
HETATM    4  C   UNK N   1      41.260  44.345  53.151  0.00  0.00     0.180 C 
HETATM    5  C   UNK N   1      42.322  45.042  52.279  0.00  0.00     0.183 C 
HETATM    6  C   UNK N   1      41.640  45.612  51.027  0.00  0.00     0.204 C 
ENDROOT
BRANCH   1   7
HETATM    7  O   UNK N   1      41.755  43.533  49.764  0.00  0.00    -0.358 OA
BRANCH   7   8
HETATM    8  C   UNK N   1      41.348  43.059  48.489  0.00  0.00     0.181 C 
BRANCH   8   9
HETATM    9  C   UNK N   1      41.557  44.066  47.322  0.00  0.00     0.050 A 
HETATM   10  C   UNK N   1      40.239  44.428  46.670  0.00  0.00    -0.073 A 
HETATM   11  C   UNK N   1      40.245  44.240  45.365  0.00  0.00     0.053 A 
HETATM   12  C   UNK N   1      39.064  44.994  47.417  0.00  0.00     0.044 C 
HETATM   13  C   UNK N   1      41.536  43.760  44.953  0.00  0.00     0.154 A 
HETATM   14  O   UNK N   1      41.840  43.578  43.787  0.00  0.00    -0.293 OA
HETATM   15  C   UNK N   1      42.469  43.595  46.119  0.00  0.00     0.072 A 
BRANCH  15  16
HETATM   16  C   UNK N   1      43.062  42.163  46.222  0.00  0.00     0.039 C 
BRANCH  16  17
HETATM   17  C   UNK N   1      44.457  42.018  45.600  0.00  0.00     0.165 C 
BRANCH  17  18
HETATM   18  O   UNK N   1      44.343  41.745  44.229  0.00  0.00    -0.401 OA
HETATM   19  H   UNK N   1      45.168  42.099  43.807  0.00  0.00     0.209 HD
ENDBRANCH  17  18
ENDBRANCH  16  17
ENDBRANCH  15  16
ENDBRANCH   8   9
ENDBRANCH   7   8
ENDBRANCH   1   7
BRANCH   6  20
HETATM   20  O   UNK N   1      42.607  46.171  50.173  0.00  0.00    -0.388 OA
HETATM   21  H   UNK N   1      42.886  45.458  49.542  0.00  0.00     0.210 HD
ENDBRANCH   6  20
BRANCH   3  22
HETATM   22  C   UNK N   1      39.383  42.642  53.122  0.00  0.00     0.198 C 
BRANCH  22  23
HETATM   23  O   UNK N   1      39.198  43.352  54.316  0.00  0.00    -0.398 OA
HETATM   24  H   UNK N   1      38.909  42.684  54.992  0.00  0.00     0.209 HD
ENDBRANCH  22  23
ENDBRANCH   3  22
BRANCH   5  25
HETATM   25  O   UNK N   1      42.926  46.071  53.021  0.00  0.00    -0.390 OA
HETATM   26  H   UNK N   1      43.606  45.652  53.611  0.00  0.00     0.210 HD
ENDBRANCH   5  25
BRANCH   4  27
HETATM   27  O   UNK N   1      41.874  43.704  54.241  0.00  0.00    -0.390 OA
HETATM   28  H   UNK N   1      42.691  44.221  54.463  0.00  0.00     0.210 HD
ENDBRANCH   4  27
TORSDOF 11
ENDMDL
MODEL 3
REMARK VINA RESULT:      -6.9      2.372      6.554
REMARK  11 active torsions:
REMARK  status: ('A' for Active; 'I' for Inactive)
REMARK    1  A    between atoms: C_6  and  C_7 
REMARK    2  A    between atoms: C_7  and  O_8 
REMARK    3  A    between atoms: O_8  and  C_9 
REMARK    4  A    between atoms: C_11  and  C_21 
REMARK    5  A    between atoms: C_12  and  O_13 
REMARK    6  A    between atoms: C_15  and  O_16 
REMARK    7  A    between atoms: C_18  and  O_19 
REMARK    8  A    between atoms: C_21  and  O_22 
REMARK    9  A    between atoms: C_24  and  C_25 
REMARK   10  A    between atoms: C_25  and  C_26 
REMARK   11  A    between atoms: C_26  and  O_27 
ROOT
HETATM    1  C   UNK N   1      42.493  45.496  49.980  0.00  0.00     0.291 C 
HETATM    2  O   UNK N   1      42.624  45.436  51.393  0.00  0.00    -0.348 OA
HETATM    3  C   UNK N   1      41.384  45.152  52.027  0.00  0.00     0.179 C 
HETATM    4  C   UNK N   1      40.844  43.770  51.588  0.00  0.00     0.180 C 
HETATM    5  C   UNK N   1      40.692  43.741  50.056  0.00  0.00     0.183 C 
HETATM    6  C   UNK N   1      42.030  44.140  49.417  0.00  0.00     0.204 C 
ENDROOT
BRANCH   1   7
HETATM    7  O   UNK N   1      41.622  46.536  49.559  0.00  0.00    -0.358 OA
BRANCH   7   8
HETATM    8  C   UNK N   1      42.283  47.534  48.796  0.00  0.00     0.181 C 
BRANCH   8   9
HETATM    9  C   UNK N   1      42.324  47.265  47.265  0.00  0.00     0.050 A 
HETATM   10  C   UNK N   1      42.940  48.432  46.522  0.00  0.00    -0.073 A 
HETATM   11  C   UNK N   1      42.171  48.882  45.550  0.00  0.00     0.053 A 
HETATM   12  C   UNK N   1      44.306  48.986  46.818  0.00  0.00     0.044 C 
HETATM   13  C   UNK N   1      40.970  48.095  45.482  0.00  0.00     0.154 A 
HETATM   14  O   UNK N   1      40.119  48.247  44.622  0.00  0.00    -0.293 OA
HETATM   15  C   UNK N   1      40.941  47.028  46.538  0.00  0.00     0.072 A 
BRANCH  15  16
HETATM   16  C   UNK N   1      39.671  47.095  47.431  0.00  0.00     0.039 C 
BRANCH  16  17
HETATM   17  C   UNK N   1      38.658  45.975  47.163  0.00  0.00     0.165 C 
BRANCH  17  18
HETATM   18  O   UNK N   1      38.376  45.904  45.791  0.00  0.00    -0.401 OA
HETATM   19  H   UNK N   1      37.591  45.305  45.700  0.00  0.00     0.209 HD
ENDBRANCH  17  18
ENDBRANCH  16  17
ENDBRANCH  15  16
ENDBRANCH   8   9
ENDBRANCH   7   8
ENDBRANCH   1   7
BRANCH   6  20
HETATM   20  O   UNK N   1      41.886  44.209  48.020  0.00  0.00    -0.388 OA
HETATM   21  H   UNK N   1      41.423  43.379  47.733  0.00  0.00     0.210 HD
ENDBRANCH   6  20
BRANCH   3  22
HETATM   22  C   UNK N   1      41.614  45.188  53.544  0.00  0.00     0.198 C 
BRANCH  22  23
HETATM   23  O   UNK N   1      41.878  43.893  54.008  0.00  0.00    -0.398 OA
HETATM   24  H   UNK N   1      42.527  43.993  54.753  0.00  0.00     0.209 HD
ENDBRANCH  22  23
ENDBRANCH   3  22
BRANCH   5  25
HETATM   25  O   UNK N   1      40.321  42.446  49.653  0.00  0.00    -0.390 OA
HETATM   26  H   UNK N   1      39.406  42.278  50.000  0.00  0.00     0.210 HD
ENDBRANCH   5  25
BRANCH   4  27
HETATM   27  O   UNK N   1      39.602  43.533  52.202  0.00  0.00    -0.390 OA
HETATM   28  H   UNK N   1      39.542  42.559  52.378  0.00  0.00     0.210 HD
ENDBRANCH   4  27
TORSDOF 11
ENDMDL
MODEL 4
REMARK VINA RESULT:      -6.9      1.704      6.562
REMARK  11 active torsions:
REMARK  status: ('A' for Active; 'I' for Inactive)
REMARK    1  A    between atoms: C_6  and  C_7 
REMARK    2  A    between atoms: C_7  and  O_8 
REMARK    3  A    between atoms: O_8  and  C_9 
REMARK    4  A    between atoms: C_11  and  C_21 
REMARK    5  A    between atoms: C_12  and  O_13 
REMARK    6  A    between atoms: C_15  and  O_16 
REMARK    7  A    between atoms: C_18  and  O_19 
REMARK    8  A    between atoms: C_21  and  O_22 
REMARK    9  A    between atoms: C_24  and  C_25 
REMARK   10  A    between atoms: C_25  and  C_26 
REMARK   11  A    between atoms: C_26  and  O_27 
ROOT
HETATM    1  C   UNK N   1      40.799  44.379  50.006  0.00  0.00     0.291 C 
HETATM    2  O   UNK N   1      39.841  43.856  50.915  0.00  0.00    -0.348 OA
HETATM    3  C   UNK N   1      40.457  43.269  52.052  0.00  0.00     0.179 C 
HETATM    4  C   UNK N   1      41.269  44.322  52.845  0.00  0.00     0.180 C 
HETATM    5  C   UNK N   1      42.325  44.958  51.920  0.00  0.00     0.183 C 
HETATM    6  C   UNK N   1      41.624  45.499  50.665  0.00  0.00     0.204 C 
ENDROOT
BRANCH   1   7
HETATM    7  O   UNK N   1      41.653  43.373  49.478  0.00  0.00    -0.358 OA
BRANCH   7   8
HETATM    8  C   UNK N   1      42.327  43.785  48.299  0.00  0.00     0.181 C 
BRANCH   8   9
HETATM    9  C   UNK N   1      41.574  43.473  46.975  0.00  0.00     0.050 A 
HETATM   10  C   UNK N   1      42.391  42.562  46.082  0.00  0.00    -0.073 A 
HETATM   11  C   UNK N   1      42.554  43.048  44.868  0.00  0.00     0.053 A 
HETATM   12  C   UNK N   1      42.916  41.221  46.512  0.00  0.00     0.044 C 
HETATM   13  C   UNK N   1      41.872  44.309  44.757  0.00  0.00     0.154 A 
HETATM   14  O   UNK N   1      41.795  44.938  43.716  0.00  0.00    -0.293 OA
HETATM   15  C   UNK N   1      41.209  44.701  46.047  0.00  0.00     0.072 A 
BRANCH  15  16
HETATM   16  C   UNK N   1      41.650  46.102  46.552  0.00  0.00     0.039 C 
BRANCH  16  17
HETATM   17  C   UNK N   1      40.582  47.191  46.385  0.00  0.00     0.165 C 
BRANCH  17  18
HETATM   18  O   UNK N   1      40.316  47.394  45.023  0.00  0.00    -0.401 OA
HETATM   19  H   UNK N   1      39.386  47.081  44.873  0.00  0.00     0.209 HD
ENDBRANCH  17  18
ENDBRANCH  16  17
ENDBRANCH  15  16
ENDBRANCH   8   9
ENDBRANCH   7   8
ENDBRANCH   1   7
BRANCH   6  20
HETATM   20  O   UNK N   1      42.581  46.001  49.767  0.00  0.00    -0.388 OA
HETATM   21  H   UNK N   1      42.234  45.840  48.852  0.00  0.00     0.210 HD
ENDBRANCH   6  20
BRANCH   3  22
HETATM   22  C   UNK N   1      39.350  42.668  52.928  0.00  0.00     0.198 C 
BRANCH  22  23
HETATM   23  O   UNK N   1      39.213  43.427  54.097  0.00  0.00    -0.398 OA
HETATM   24  H   UNK N   1      40.135  43.624  54.408  0.00  0.00     0.209 HD
ENDBRANCH  22  23
ENDBRANCH   3  22
BRANCH   5  25
HETATM   25  O   UNK N   1      42.974  45.998  52.608  0.00  0.00    -0.390 OA
HETATM   26  H   UNK N   1      43.820  46.189  52.126  0.00  0.00     0.210 HD
ENDBRANCH   5  25
BRANCH   4  27
HETATM   27  O   UNK N   1      41.896  43.705  53.941  0.00  0.00    -0.390 OA
HETATM   28  H   UNK N   1      42.795  43.413  53.639  0.00  0.00     0.210 HD
ENDBRANCH   4  27
TORSDOF 11
ENDMDL
MODEL 5
REMARK VINA RESULT:      -6.8      1.513      2.740
REMARK  11 active torsions:
REMARK  status: ('A' for Active; 'I' for Inactive)
REMARK    1  A    between atoms: C_6  and  C_7 
REMARK    2  A    between atoms: C_7  and  O_8 
REMARK    3  A    between atoms: O_8  and  C_9 
REMARK    4  A    between atoms: C_11  and  C_21 
REMARK    5  A    between atoms: C_12  and  O_13 
REMARK    6  A    between atoms: C_15  and  O_16 
REMARK    7  A    between atoms: C_18  and  O_19 
REMARK    8  A    between atoms: C_21  and  O_22 
REMARK    9  A    between atoms: C_24  and  C_25 
REMARK   10  A    between atoms: C_25  and  C_26 
REMARK   11  A    between atoms: C_26  and  O_27 
ROOT
HETATM    1  C   UNK N   1      39.550  44.784  47.822  0.00  0.00     0.291 C 
HETATM    2  O   UNK N   1      38.999  45.852  47.064  0.00  0.00    -0.348 OA
HETATM    3  C   UNK N   1      39.953  46.879  46.828  0.00  0.00     0.179 C 
HETATM    4  C   UNK N   1      41.149  46.341  46.005  0.00  0.00     0.180 C 
HETATM    5  C   UNK N   1      41.795  45.158  46.751  0.00  0.00     0.183 C 
HETATM    6  C   UNK N   1      40.710  44.117  47.063  0.00  0.00     0.204 C 
ENDROOT
BRANCH   1   7
HETATM    7  O   UNK N   1      39.970  45.196  49.116  0.00  0.00    -0.358 OA
BRANCH   7   8
HETATM    8  C   UNK N   1      39.702  44.226  50.117  0.00  0.00     0.181 C 
BRANCH   8   9
HETATM    9  C   UNK N   1      40.894  43.924  51.068  0.00  0.00     0.050 A 
HETATM   10  C   UNK N   1      40.421  43.735  52.495  0.00  0.00    -0.073 A 
HETATM   11  C   UNK N   1      41.055  44.512  53.350  0.00  0.00     0.053 A 
HETATM   12  C   UNK N   1      39.380  42.731  52.905  0.00  0.00     0.044 C 
HETATM   13  C   UNK N   1      42.035  45.299  52.652  0.00  0.00     0.154 A 
HETATM   14  O   UNK N   1      42.816  46.047  53.216  0.00  0.00    -0.293 OA
HETATM   15  C   UNK N   1      42.026  45.022  51.176  0.00  0.00     0.072 A 
BRANCH  15  16
HETATM   16  C   UNK N   1      41.827  46.304  50.322  0.00  0.00     0.039 C 
BRANCH  16  17
HETATM   17  C   UNK N   1      43.119  46.843  49.693  0.00  0.00     0.165 C 
BRANCH  17  18
HETATM   18  O   UNK N   1      42.815  47.847  48.763  0.00  0.00    -0.401 OA
HETATM   19  H   UNK N   1      41.845  48.030  48.859  0.00  0.00     0.209 HD
ENDBRANCH  17  18
ENDBRANCH  16  17
ENDBRANCH  15  16
ENDBRANCH   8   9
ENDBRANCH   7   8
ENDBRANCH   1   7
BRANCH   6  20
HETATM   20  O   UNK N   1      41.262  43.072  47.824  0.00  0.00    -0.388 OA
HETATM   21  H   UNK N   1      41.258  43.368  48.771  0.00  0.00     0.210 HD
ENDBRANCH   6  20
BRANCH   3  22
HETATM   22  C   UNK N   1      39.245  48.013  46.077  0.00  0.00     0.198 C 
BRANCH  22  23
HETATM   23  O   UNK N   1      39.607  47.978  44.724  0.00  0.00    -0.398 OA
HETATM   24  H   UNK N   1      40.347  47.319  44.653  0.00  0.00     0.209 HD
ENDBRANCH  22  23
ENDBRANCH   3  22
BRANCH   5  25
HETATM   25  O   UNK N   1      42.799  44.597  45.943  0.00  0.00    -0.390 OA
HETATM   26  H   UNK N   1      42.355  43.984  45.301  0.00  0.00     0.210 HD
ENDBRANCH   5  25
BRANCH   4  27
HETATM   27  O   UNK N   1      42.091  47.368  45.819  0.00  0.00    -0.390 OA
HETATM   28  H   UNK N   1      41.700  48.198  46.197  0.00  0.00     0.210 HD
ENDBRANCH   4  27
TORSDOF 11
ENDMDL
MODEL 6
REMARK VINA RESULT:      -6.8      1.846      4.005
REMARK  11 active torsions:
REMARK  status: ('A' for Active; 'I' for Inactive)
REMARK    1  A    between atoms: C_6  and  C_7 
REMARK    2  A    between atoms: C_7  and  O_8 
REMARK    3  A    between atoms: O_8  and  C_9 
REMARK    4  A    between atoms: C_11  and  C_21 
REMARK    5  A    between atoms: C_12  and  O_13 
REMARK    6  A    between atoms: C_15  and  O_16 
REMARK    7  A    between atoms: C_18  and  O_19 
REMARK    8  A    between atoms: C_21  and  O_22 
REMARK    9  A    between atoms: C_24  and  C_25 
REMARK   10  A    between atoms: C_25  and  C_26 
REMARK   11  A    between atoms: C_26  and  O_27 
ROOT
HETATM    1  C   UNK N   1      40.316  44.395  47.249  0.00  0.00     0.291 C 
HETATM    2  O   UNK N   1      39.605  45.617  47.389  0.00  0.00    -0.348 OA
HETATM    3  C   UNK N   1      40.424  46.741  47.098  0.00  0.00     0.179 C 
HETATM    4  C   UNK N   1      40.918  46.699  45.632  0.00  0.00     0.180 C 
HETATM    5  C   UNK N   1      41.686  45.387  45.387  0.00  0.00     0.183 C 
HETATM    6  C   UNK N   1      40.795  44.206  45.799  0.00  0.00     0.204 C 
ENDROOT
BRANCH   1   7
HETATM    7  O   UNK N   1      41.407  44.295  48.154  0.00  0.00    -0.358 OA
BRANCH   7   8
HETATM    8  C   UNK N   1      41.016  43.842  49.441  0.00  0.00     0.181 C 
BRANCH   8   9
HETATM    9  C   UNK N   1      40.855  44.962  50.506  0.00  0.00     0.050 A 
HETATM   10  C   UNK N   1      42.123  45.781  50.635  0.00  0.00    -0.073 A 
HETATM   11  C   UNK N   1      42.560  45.854  51.876  0.00  0.00     0.053 A 
HETATM   12  C   UNK N   1      42.785  46.484  49.483  0.00  0.00     0.044 C 
HETATM   13  C   UNK N   1      41.668  45.137  52.745  0.00  0.00     0.154 A 
HETATM   14  O   UNK N   1      41.794  45.110  53.958  0.00  0.00    -0.293 OA
HETATM   15  C   UNK N   1      40.535  44.508  51.986  0.00  0.00     0.072 A 
BRANCH  15  16
HETATM   16  C   UNK N   1      40.420  42.978  52.230  0.00  0.00     0.039 C 
BRANCH  16  17
HETATM   17  C   UNK N   1      39.339  42.585  53.245  0.00  0.00     0.165 C 
BRANCH  17  18
HETATM   18  O   UNK N   1      39.342  43.488  54.318  0.00  0.00    -0.401 OA
HETATM   19  H   UNK N   1      38.516  44.030  54.226  0.00  0.00     0.209 HD
ENDBRANCH  17  18
ENDBRANCH  16  17
ENDBRANCH  15  16
ENDBRANCH   8   9
ENDBRANCH   7   8
ENDBRANCH   1   7
BRANCH   6  20
HETATM   20  O   UNK N   1      41.512  43.004  45.669  0.00  0.00    -0.388 OA
HETATM   21  H   UNK N   1      42.130  43.114  44.901  0.00  0.00     0.210 HD
ENDBRANCH   6  20
BRANCH   3  22
HETATM   22  C   UNK N   1      39.593  48.005  47.353  0.00  0.00     0.198 C 
BRANCH  22  23
HETATM   23  O   UNK N   1      39.231  48.584  46.130  0.00  0.00    -0.398 OA
HETATM   24  H   UNK N   1      38.542  47.988  45.736  0.00  0.00     0.209 HD
ENDBRANCH  22  23
ENDBRANCH   3  22
BRANCH   5  25
HETATM   25  O   UNK N   1      42.024  45.297  44.025  0.00  0.00    -0.390 OA
HETATM   26  H   UNK N   1      42.785  45.913  43.867  0.00  0.00     0.210 HD
ENDBRANCH   5  25
BRANCH   4  27
HETATM   27  O   UNK N   1      41.753  47.802  45.385  0.00  0.00    -0.390 OA
HETATM   28  H   UNK N   1      41.980  47.788  44.419  0.00  0.00     0.210 HD
ENDBRANCH   4  27
TORSDOF 11
ENDMDL
MODEL 7
REMARK VINA RESULT:      -6.5      1.994      3.391
REMARK  11 active torsions:
REMARK  status: ('A' for Active; 'I' for Inactive)
REMARK    1  A    between atoms: C_6  and  C_7 
REMARK    2  A    between atoms: C_7  and  O_8 
REMARK    3  A    between atoms: O_8  and  C_9 
REMARK    4  A    between atoms: C_11  and  C_21 
REMARK    5  A    between atoms: C_12  and  O_13 
REMARK    6  A    between atoms: C_15  and  O_16 
REMARK    7  A    between atoms: C_18  and  O_19 
REMARK    8  A    between atoms: C_21  and  O_22 
REMARK    9  A    between atoms: C_24  and  C_25 
REMARK   10  A    between atoms: C_25  and  C_26 
REMARK   11  A    between atoms: C_26  and  O_27 
ROOT
HETATM    1  C   UNK N   1      42.525  46.218  47.584  0.00  0.00     0.291 C 
HETATM    2  O   UNK N   1      41.791  45.180  46.951  0.00  0.00    -0.348 OA
HETATM    3  C   UNK N   1      40.458  45.577  46.659  0.00  0.00     0.179 C 
HETATM    4  C   UNK N   1      40.442  46.773  45.677  0.00  0.00     0.180 C 
HETATM    5  C   UNK N   1      41.241  47.944  46.280  0.00  0.00     0.183 C 
HETATM    6  C   UNK N   1      42.642  47.445  46.662  0.00  0.00     0.204 C 
ENDROOT
BRANCH   1   7
HETATM    7  O   UNK N   1      41.971  46.587  48.840  0.00  0.00    -0.358 OA
BRANCH   7   8
HETATM    8  C   UNK N   1      42.259  45.650  49.866  0.00  0.00     0.181 C 
BRANCH   8   9
HETATM    9  C   UNK N   1      41.151  45.504  50.946  0.00  0.00     0.050 A 
HETATM   10  C   UNK N   1      41.749  45.236  52.312  0.00  0.00    -0.073 A 
HETATM   11  C   UNK N   1      41.248  44.161  52.887  0.00  0.00     0.053 A 
HETATM   12  C   UNK N   1      42.765  46.127  52.969  0.00  0.00     0.044 C 
HETATM   13  C   UNK N   1      40.251  43.576  52.032  0.00  0.00     0.154 A 
HETATM   14  O   UNK N   1      39.573  42.616  52.356  0.00  0.00    -0.293 OA
HETATM   15  C   UNK N   1      40.100  44.340  50.748  0.00  0.00     0.072 A 
BRANCH  15  16
HETATM   16  C   UNK N   1      40.287  43.448  49.489  0.00  0.00     0.039 C 
BRANCH  16  17
HETATM   17  C   UNK N   1      41.615  42.680  49.458  0.00  0.00     0.165 C 
BRANCH  17  18
HETATM   18  O   UNK N   1      42.162  42.723  48.168  0.00  0.00    -0.401 OA
HETATM   19  H   UNK N   1      41.397  42.843  47.547  0.00  0.00     0.209 HD
ENDBRANCH  17  18
ENDBRANCH  16  17
ENDBRANCH  15  16
ENDBRANCH   8   9
ENDBRANCH   7   8
ENDBRANCH   1   7
BRANCH   6  20
HETATM   20  O   UNK N   1      43.355  48.475  47.299  0.00  0.00    -0.388 OA
HETATM   21  H   UNK N   1      42.742  48.887  47.962  0.00  0.00     0.210 HD
ENDBRANCH   6  20
BRANCH   3  22
HETATM   22  C   UNK N   1      39.730  44.370  46.054  0.00  0.00     0.198 C 
BRANCH  22  23
HETATM   23  O   UNK N   1      40.447  43.896  44.948  0.00  0.00    -0.398 OA
HETATM   24  H   UNK N   1      39.861  44.036  44.159  0.00  0.00     0.209 HD
ENDBRANCH  22  23
ENDBRANCH   3  22
BRANCH   5  25
HETATM   25  O   UNK N   1      41.328  48.979  45.333  0.00  0.00    -0.390 OA
HETATM   26  H   UNK N   1      41.595  48.570  44.470  0.00  0.00     0.210 HD
ENDBRANCH   5  25
BRANCH   4  27
HETATM   27  O   UNK N   1      39.115  47.167  45.435  0.00  0.00    -0.390 OA
HETATM   28  H   UNK N   1      39.048  48.130  45.664  0.00  0.00     0.210 HD
ENDBRANCH   4  27
TORSDOF 11
ENDMDL
MODEL 8
REMARK VINA RESULT:      -6.4      3.686      6.821
REMARK  11 active torsions:
REMARK  status: ('A' for Active; 'I' for Inactive)
REMARK    1  A    between atoms: C_6  and  C_7 
REMARK    2  A    between atoms: C_7  and  O_8 
REMARK    3  A    between atoms: O_8  and  C_9 
REMARK    4  A    between atoms: C_11  and  C_21 
REMARK    5  A    between atoms: C_12  and  O_13 
REMARK    6  A    between atoms: C_15  and  O_16 
REMARK    7  A    between atoms: C_18  and  O_19 
REMARK    8  A    between atoms: C_21  and  O_22 
REMARK    9  A    between atoms: C_24  and  C_25 
REMARK   10  A    between atoms: C_25  and  C_26 
REMARK   11  A    between atoms: C_26  and  O_27 
ROOT
HETATM    1  C   UNK N   1      38.874  45.505  46.727  0.00  0.00     0.291 C 
HETATM    2  O   UNK N   1      39.489  44.771  45.678  0.00  0.00    -0.348 OA
HETATM    3  C   UNK N   1      40.853  44.490  45.960  0.00  0.00     0.179 C 
HETATM    4  C   UNK N   1      40.985  43.614  47.230  0.00  0.00     0.180 C 
HETATM    5  C   UNK N   1      40.320  44.332  48.419  0.00  0.00     0.183 C 
HETATM    6  C   UNK N   1      38.878  44.695  48.036  0.00  0.00     0.204 C 
ENDROOT
BRANCH   1   7
HETATM    7  O   UNK N   1      39.476  46.778  46.925  0.00  0.00    -0.358 OA
BRANCH   7   8
HETATM    8  C   UNK N   1      38.915  47.787  46.098  0.00  0.00     0.181 C 
BRANCH   8   9
HETATM    9  C   UNK N   1      39.813  48.231  44.910  0.00  0.00     0.050 A 
HETATM   10  C   UNK N   1      41.062  48.933  45.401  0.00  0.00    -0.073 A 
HETATM   11  C   UNK N   1      41.232  50.119  44.850  0.00  0.00     0.053 A 
HETATM   12  C   UNK N   1      42.037  48.326  46.371  0.00  0.00     0.044 C 
HETATM   13  C   UNK N   1      40.169  50.374  43.917  0.00  0.00     0.154 A 
HETATM   14  O   UNK N   1      40.124  51.366  43.210  0.00  0.00    -0.293 OA
HETATM   15  C   UNK N   1      39.184  49.241  43.869  0.00  0.00     0.072 A 
BRANCH  15  16
HETATM   16  C   UNK N   1      37.725  49.696  44.145  0.00  0.00     0.039 C 
BRANCH  16  17
HETATM   17  C   UNK N   1      36.833  49.728  42.897  0.00  0.00     0.165 C 
BRANCH  17  18
HETATM   18  O   UNK N   1      37.579  49.364  41.767  0.00  0.00    -0.401 OA
HETATM   19  H   UNK N   1      37.485  48.380  41.678  0.00  0.00     0.209 HD
ENDBRANCH  17  18
ENDBRANCH  16  17
ENDBRANCH  15  16
ENDBRANCH   8   9
ENDBRANCH   7   8
ENDBRANCH   1   7
BRANCH   6  20
HETATM   20  O   UNK N   1      38.283  45.433  49.075  0.00  0.00    -0.388 OA
HETATM   21  H   UNK N   1      38.656  46.352  49.030  0.00  0.00     0.210 HD
ENDBRANCH   6  20
BRANCH   3  22
HETATM   22  C   UNK N   1      41.444  43.768  44.741  0.00  0.00     0.198 C 
BRANCH  22  23
HETATM   23  O   UNK N   1      41.878  44.713  43.802  0.00  0.00    -0.398 OA
HETATM   24  H   UNK N   1      41.079  44.956  43.265  0.00  0.00     0.209 HD
ENDBRANCH  22  23
ENDBRANCH   3  22
BRANCH   5  25
HETATM   25  O   UNK N   1      40.332  43.481  49.538  0.00  0.00    -0.390 OA
HETATM   26  H   UNK N   1      39.396  43.197  49.705  0.00  0.00     0.210 HD
ENDBRANCH   5  25
BRANCH   4  27
HETATM   27  O   UNK N   1      42.344  43.383  47.503  0.00  0.00    -0.390 OA
HETATM   28  H   UNK N   1      42.387  42.793  48.299  0.00  0.00     0.210 HD
ENDBRANCH   4  27
TORSDOF 11
ENDMDL
MODEL 9
REMARK VINA RESULT:      -6.0      4.399      8.183
REMARK  11 active torsions:
REMARK  status: ('A' for Active; 'I' for Inactive)
REMARK    1  A    between atoms: C_6  and  C_7 
REMARK    2  A    between atoms: C_7  and  O_8 
REMARK    3  A    between atoms: O_8  and  C_9 
REMARK    4  A    between atoms: C_11  and  C_21 
REMARK    5  A    between atoms: C_12  and  O_13 
REMARK    6  A    between atoms: C_15  and  O_16 
REMARK    7  A    between atoms: C_18  and  O_19 
REMARK    8  A    between atoms: C_21  and  O_22 
REMARK    9  A    between atoms: C_24  and  C_25 
REMARK   10  A    between atoms: C_25  and  C_26 
REMARK   11  A    between atoms: C_26  and  O_27 
ROOT
HETATM    1  C   UNK N   1      39.903  47.444  45.907  0.00  0.00     0.291 C 
HETATM    2  O   UNK N   1      41.260  47.458  46.326  0.00  0.00    -0.348 OA
HETATM    3  C   UNK N   1      41.381  47.298  47.733  0.00  0.00     0.179 C 
HETATM    4  C   UNK N   1      40.808  45.933  48.183  0.00  0.00     0.180 C 
HETATM    5  C   UNK N   1      39.335  45.824  47.746  0.00  0.00     0.183 C 
HETATM    6  C   UNK N   1      39.244  46.093  46.237  0.00  0.00     0.204 C 
ENDROOT
BRANCH   1   7
HETATM    7  O   UNK N   1      39.152  48.515  46.461  0.00  0.00    -0.358 OA
BRANCH   7   8
HETATM    8  C   UNK N   1      38.564  49.346  45.472  0.00  0.00     0.181 C 
BRANCH   8   9
HETATM    9  C   UNK N   1      39.220  49.250  44.065  0.00  0.00     0.050 A 
HETATM   10  C   UNK N   1      40.132  50.430  43.804  0.00  0.00    -0.073 A 
HETATM   11  C   UNK N   1      39.847  51.057  42.680  0.00  0.00     0.053 A 
HETATM   12  C   UNK N   1      41.275  50.818  44.699  0.00  0.00     0.044 C 
HETATM   13  C   UNK N   1      38.750  50.398  42.024  0.00  0.00     0.154 A 
HETATM   14  O   UNK N   1      38.334  50.725  40.926  0.00  0.00    -0.293 OA
HETATM   15  C   UNK N   1      38.249  49.226  42.818  0.00  0.00     0.072 A 
BRANCH  15  16
HETATM   16  C   UNK N   1      36.728  49.310  43.125  0.00  0.00     0.039 C 
BRANCH  16  17
HETATM   17  C   UNK N   1      35.948  48.036  42.776  0.00  0.00     0.165 C 
BRANCH  17  18
HETATM   18  O   UNK N   1      36.577  46.919  43.345  0.00  0.00    -0.401 OA
HETATM   19  H   UNK N   1      37.544  47.015  43.146  0.00  0.00     0.209 HD
ENDBRANCH  17  18
ENDBRANCH  16  17
ENDBRANCH  15  16
ENDBRANCH   8   9
ENDBRANCH   7   8
ENDBRANCH   1   7
BRANCH   6  20
HETATM   20  O   UNK N   1      37.897  46.090  45.835  0.00  0.00    -0.388 OA
HETATM   21  H   UNK N   1      37.387  46.591  46.523  0.00  0.00     0.210 HD
ENDBRANCH   6  20
BRANCH   3  22
HETATM   22  C   UNK N   1      42.868  47.406  48.091  0.00  0.00     0.198 C 
BRANCH  22  23
HETATM   23  O   UNK N   1      43.002  47.717  49.450  0.00  0.00    -0.398 OA
HETATM   24  H   UNK N   1      43.978  47.779  49.625  0.00  0.00     0.209 HD
ENDBRANCH  22  23
ENDBRANCH   3  22
BRANCH   5  25
HETATM   25  O   UNK N   1      38.857  44.537  48.047  0.00  0.00    -0.390 OA
HETATM   26  H   UNK N   1      39.560  43.890  47.776  0.00  0.00     0.210 HD
ENDBRANCH   5  25
BRANCH   4  27
HETATM   27  O   UNK N   1      40.908  45.818  49.580  0.00  0.00    -0.390 OA
HETATM   28  H   UNK N   1      41.303  46.664  49.916  0.00  0.00     0.210 HD
ENDBRANCH   4  27
TORSDOF 11
ENDMDL
