MODEL 1
REMARK VINA RESULT:      -6.3      0.000      0.000
REMARK  8 active torsions:
REMARK  status: ('A' for Active; 'I' for Inactive)
REMARK    1  A    between atoms: C_2  and  O_3 
REMARK    2  A    between atoms: C_2  and  C_25 
REMARK    3  A    between atoms: O_3  and  C_4 
REMARK    4  A    between atoms: C_6  and  O_7 
REMARK    5  A    between atoms: C_6  and  C_9 
REMARK    6  A    between atoms: C_15  and  O_16 
REMARK    7  A    between atoms: O_16  and  C_17 
REMARK    8  A    between atoms: C_28  and  O_29 
ROOT
HETATM    1  C   UNK N   1      30.524  53.802  40.480  0.00  0.00     0.144 C 
HETATM    2  C   UNK N   1      30.142  55.201  41.092  0.00  0.00     0.061 C 
HETATM    3  C   UNK N   1      30.216  55.367  42.658  0.00  0.00     0.068 C 
HETATM    4  C   UNK N   1      28.749  55.089  43.033  0.00  0.00     0.040 C 
HETATM    5  C   UNK N   1      28.017  56.016  42.070  0.00  0.00     0.015 C 
HETATM    6  C   UNK N   1      28.707  55.762  40.703  0.00  0.00    -0.005 C 
HETATM    7  C   UNK N   1      27.763  54.822  39.873  0.00  0.00     0.163 C 
HETATM    8  C   UNK N   1      28.233  54.492  38.475  0.00  0.00     0.008 C 
HETATM    9  C   UNK N   1      29.463  54.085  38.072  0.00  0.00    -0.083 C 
HETATM   10  C   UNK N   1      30.682  53.854  38.954  0.00  0.00     0.066 C 
HETATM   11  C   UNK N   1      29.678  53.852  36.595  0.00  0.00     0.043 C 
HETATM   12  C   UNK N   1      28.846  57.104  39.943  0.00  0.00     0.019 C 
ENDROOT
BRANCH   1  13
HETATM   13  O   UNK N   1      29.641  52.778  40.736  0.00  0.00    -0.311 OA
BRANCH  13  14
HETATM   14  C   UNK N   1      29.813  51.450  40.499  0.00  0.00     0.293 C 
HETATM   15  O   UNK N   1      29.142  50.862  39.668  0.00  0.00    -0.259 OA
BRANCH  14  16
HETATM   16  C   UNK N   1      30.830  50.727  41.286  0.00  0.00     0.039 A 
HETATM   17  C   UNK N   1      31.769  51.423  42.065  0.00  0.00     0.020 A 
HETATM   18  C   UNK N   1      32.705  50.717  42.827  0.00  0.00     0.037 A 
HETATM   19  C   UNK N   1      32.730  49.315  42.796  0.00  0.00     0.065 A 
HETATM   20  C   UNK N   1      31.815  48.622  41.997  0.00  0.00     0.037 A 
HETATM   21  C   UNK N   1      30.865  49.323  41.252  0.00  0.00     0.020 A 
BRANCH  19  22
HETATM   22  O   UNK N   1      33.622  48.625  43.534  0.00  0.00    -0.361 OA
HETATM   23  H   UNK N   1      34.240  49.070  44.130  0.00  0.00     0.217 HD
ENDBRANCH  19  22
ENDBRANCH  14  16
ENDBRANCH  13  14
ENDBRANCH   1  13
BRANCH   3  24
HETATM   24  O   UNK N   1      30.521  56.726  42.923  0.00  0.00    -0.389 OA
HETATM   25  H   UNK N   1      29.819  57.301  42.522  0.00  0.00     0.210 HD
ENDBRANCH   3  24
BRANCH   3  26
HETATM   26  C   UNK N   1      31.267  54.489  43.423  0.00  0.00     0.012 C 
HETATM   27  C   UNK N   1      32.674  55.120  43.407  0.00  0.00     0.012 C 
HETATM   28  C   UNK N   1      30.875  54.229  44.891  0.00  0.00     0.012 C 
ENDBRANCH   3  26
BRANCH   7  29
HETATM   29  O   UNK N   1      27.368  53.676  40.558  0.00  0.00    -0.312 OA
BRANCH  29  30
HETATM   30  C   UNK N   1      26.200  52.998  40.341  0.00  0.00     0.255 C 
HETATM   31  O   UNK N   1      25.259  53.532  39.771  0.00  0.00    -0.266 OA
HETATM   32  C   UNK N   1      26.054  51.588  40.817  0.00  0.00     0.126 C 
ENDBRANCH  29  30
ENDBRANCH   7  29
TORSDOF 8
ENDMDL
MODEL 2
REMARK VINA RESULT:      -5.6      1.873      5.555
REMARK  8 active torsions:
REMARK  status: ('A' for Active; 'I' for Inactive)
REMARK    1  A    between atoms: C_2  and  O_3 
REMARK    2  A    between atoms: C_2  and  C_25 
REMARK    3  A    between atoms: O_3  and  C_4 
REMARK    4  A    between atoms: C_6  and  O_7 
REMARK    5  A    between atoms: C_6  and  C_9 
REMARK    6  A    between atoms: C_15  and  O_16 
REMARK    7  A    between atoms: O_16  and  C_17 
REMARK    8  A    between atoms: C_28  and  O_29 
ROOT
HETATM    1  C   UNK N   1      28.526  55.388  41.309  0.00  0.00     0.144 C 
HETATM    2  C   UNK N   1      29.511  55.808  40.154  0.00  0.00     0.061 C 
HETATM    3  C   UNK N   1      28.918  55.982  38.705  0.00  0.00     0.068 C 
HETATM    4  C   UNK N   1      29.224  54.594  38.114  0.00  0.00     0.040 C 
HETATM    5  C   UNK N   1      30.700  54.444  38.463  0.00  0.00     0.015 C 
HETATM    6  C   UNK N   1      30.782  54.876  39.952  0.00  0.00    -0.005 C 
HETATM    7  C   UNK N   1      30.864  53.567  40.813  0.00  0.00     0.163 C 
HETATM    8  C   UNK N   1      31.004  53.771  42.304  0.00  0.00     0.008 C 
HETATM    9  C   UNK N   1      30.293  54.598  43.113  0.00  0.00    -0.083 C 
HETATM   10  C   UNK N   1      29.160  55.527  42.699  0.00  0.00     0.066 C 
HETATM   11  C   UNK N   1      30.661  54.635  44.578  0.00  0.00     0.043 C 
HETATM   12  C   UNK N   1      32.080  55.689  40.179  0.00  0.00     0.019 C 
ENDROOT
BRANCH   1  13
HETATM   13  O   UNK N   1      28.039  54.102  41.239  0.00  0.00    -0.311 OA
BRANCH  13  14
HETATM   14  C   UNK N   1      26.740  53.703  41.211  0.00  0.00     0.293 C 
HETATM   15  O   UNK N   1      25.881  54.296  41.842  0.00  0.00    -0.259 OA
BRANCH  14  16
HETATM   16  C   UNK N   1      26.390  52.520  40.402  0.00  0.00     0.039 A 
HETATM   17  C   UNK N   1      26.494  52.547  39.002  0.00  0.00     0.020 A 
HETATM   18  C   UNK N   1      26.187  51.405  38.257  0.00  0.00     0.037 A 
HETATM   19  C   UNK N   1      25.748  50.237  38.899  0.00  0.00     0.065 A 
HETATM   20  C   UNK N   1      25.614  50.219  40.291  0.00  0.00     0.037 A 
HETATM   21  C   UNK N   1      25.941  51.351  41.040  0.00  0.00     0.020 A 
BRANCH  19  22
HETATM   22  O   UNK N   1      25.457  49.128  38.190  0.00  0.00    -0.361 OA
HETATM   23  H   UNK N   1      25.260  48.286  38.622  0.00  0.00     0.217 HD
ENDBRANCH  19  22
ENDBRANCH  14  16
ENDBRANCH  13  14
ENDBRANCH   1  13
BRANCH   3  24
HETATM   24  O   UNK N   1      29.702  56.961  38.043  0.00  0.00    -0.389 OA
HETATM   25  H   UNK N   1      30.456  57.225  38.633  0.00  0.00     0.210 HD
ENDBRANCH   3  24
BRANCH   3  26
HETATM   26  C   UNK N   1      27.417  56.426  38.593  0.00  0.00     0.012 C 
HETATM   27  C   UNK N   1      27.262  57.961  38.606  0.00  0.00     0.012 C 
HETATM   28  C   UNK N   1      26.726  55.886  37.324  0.00  0.00     0.012 C 
ENDBRANCH   3  26
BRANCH   7  29
HETATM   29  O   UNK N   1      29.868  52.639  40.521  0.00  0.00    -0.312 OA
BRANCH  29  30
HETATM   30  C   UNK N   1      30.046  51.283  40.494  0.00  0.00     0.255 C 
HETATM   31  O   UNK N   1      29.112  50.530  40.256  0.00  0.00    -0.266 OA
HETATM   32  C   UNK N   1      31.395  50.701  40.773  0.00  0.00     0.126 C 
ENDBRANCH  29  30
ENDBRANCH   7  29
TORSDOF 8
ENDMDL
MODEL 3
REMARK VINA RESULT:      -5.6     16.236     19.929
REMARK  8 active torsions:
REMARK  status: ('A' for Active; 'I' for Inactive)
REMARK    1  A    between atoms: C_2  and  O_3 
REMARK    2  A    between atoms: C_2  and  C_25 
REMARK    3  A    between atoms: O_3  and  C_4 
REMARK    4  A    between atoms: C_6  and  O_7 
REMARK    5  A    between atoms: C_6  and  C_9 
REMARK    6  A    between atoms: C_15  and  O_16 
REMARK    7  A    between atoms: O_16  and  C_17 
REMARK    8  A    between atoms: C_28  and  O_29 
ROOT
HETATM    1  C   UNK N   1      28.443  40.214  57.400  0.00  0.00     0.144 C 
HETATM    2  C   UNK N   1      27.708  41.467  58.007  0.00  0.00     0.061 C 
HETATM    3  C   UNK N   1      26.737  42.280  57.069  0.00  0.00     0.068 C 
HETATM    4  C   UNK N   1      27.687  43.390  56.587  0.00  0.00     0.040 C 
HETATM    5  C   UNK N   1      28.268  43.878  57.909  0.00  0.00     0.015 C 
HETATM    6  C   UNK N   1      28.644  42.573  58.660  0.00  0.00    -0.005 C 
HETATM    7  C   UNK N   1      30.196  42.384  58.516  0.00  0.00     0.163 C 
HETATM    8  C   UNK N   1      30.778  41.186  59.229  0.00  0.00     0.008 C 
HETATM    9  C   UNK N   1      30.336  39.903  59.223  0.00  0.00    -0.083 C 
HETATM   10  C   UNK N   1      29.127  39.358  58.475  0.00  0.00     0.066 C 
HETATM   11  C   UNK N   1      31.092  38.895  60.056  0.00  0.00     0.043 C 
HETATM   12  C   UNK N   1      28.312  42.733  60.164  0.00  0.00     0.019 C 
ENDROOT
BRANCH   1  13
HETATM   13  O   UNK N   1      29.410  40.487  56.459  0.00  0.00    -0.311 OA
BRANCH  13  14
HETATM   14  C   UNK N   1      29.562  39.924  55.232  0.00  0.00     0.293 C 
HETATM   15  O   UNK N   1      30.107  38.841  55.094  0.00  0.00    -0.259 OA
BRANCH  14  16
HETATM   16  C   UNK N   1      29.059  40.662  54.057  0.00  0.00     0.039 A 
HETATM   17  C   UNK N   1      29.627  41.889  53.678  0.00  0.00     0.020 A 
HETATM   18  C   UNK N   1      29.155  42.556  52.544  0.00  0.00     0.037 A 
HETATM   19  C   UNK N   1      28.097  42.019  51.796  0.00  0.00     0.065 A 
HETATM   20  C   UNK N   1      27.510  40.813  52.190  0.00  0.00     0.037 A 
HETATM   21  C   UNK N   1      27.992  40.133  53.310  0.00  0.00     0.020 A 
BRANCH  19  22
HETATM   22  O   UNK N   1      27.641  42.651  50.696  0.00  0.00    -0.361 OA
HETATM   23  H   UNK N   1      28.129  42.634  49.861  0.00  0.00     0.217 HD
ENDBRANCH  19  22
ENDBRANCH  14  16
ENDBRANCH  13  14
ENDBRANCH   1  13
BRANCH   3  24
HETATM   24  O   UNK N   1      25.730  42.844  57.893  0.00  0.00    -0.389 OA
HETATM   25  H   UNK N   1      25.571  43.783  57.613  0.00  0.00     0.210 HD
ENDBRANCH   3  24
BRANCH   3  26
HETATM   26  C   UNK N   1      26.018  41.486  55.922  0.00  0.00     0.012 C 
HETATM   27  C   UNK N   1      24.868  40.607  56.455  0.00  0.00     0.012 C 
HETATM   28  C   UNK N   1      25.447  42.407  54.825  0.00  0.00     0.012 C 
ENDBRANCH   3  26
BRANCH   7  29
HETATM   29  O   UNK N   1      30.652  42.464  57.203  0.00  0.00    -0.312 OA
BRANCH  29  30
HETATM   30  C   UNK N   1      31.660  43.282  56.773  0.00  0.00     0.255 C 
HETATM   31  O   UNK N   1      32.406  42.940  55.867  0.00  0.00    -0.266 OA
HETATM   32  C   UNK N   1      31.872  44.612  57.426  0.00  0.00     0.126 C 
ENDBRANCH  29  30
ENDBRANCH   7  29
TORSDOF 8
ENDMDL
MODEL 4
REMARK VINA RESULT:      -5.5     17.958     20.997
REMARK  8 active torsions:
REMARK  status: ('A' for Active; 'I' for Inactive)
REMARK    1  A    between atoms: C_2  and  O_3 
REMARK    2  A    between atoms: C_2  and  C_25 
REMARK    3  A    between atoms: O_3  and  C_4 
REMARK    4  A    between atoms: C_6  and  O_7 
REMARK    5  A    between atoms: C_6  and  C_9 
REMARK    6  A    between atoms: C_15  and  O_16 
REMARK    7  A    between atoms: O_16  and  C_17 
REMARK    8  A    between atoms: C_28  and  O_29 
ROOT
HETATM    1  C   UNK N   1      28.522  40.272  57.656  0.00  0.00     0.144 C 
HETATM    2  C   UNK N   1      28.286  40.457  56.111  0.00  0.00     0.061 C 
HETATM    3  C   UNK N   1      28.999  39.450  55.130  0.00  0.00     0.068 C 
HETATM    4  C   UNK N   1      30.260  40.257  54.775  0.00  0.00     0.040 C 
HETATM    5  C   UNK N   1      29.652  41.601  54.390  0.00  0.00     0.015 C 
HETATM    6  C   UNK N   1      28.631  41.892  55.522  0.00  0.00    -0.005 C 
HETATM    7  C   UNK N   1      29.295  42.932  56.492  0.00  0.00     0.163 C 
HETATM    8  C   UNK N   1      28.436  43.392  57.646  0.00  0.00     0.008 C 
HETATM    9  C   UNK N   1      27.697  42.640  58.501  0.00  0.00    -0.083 C 
HETATM   10  C   UNK N   1      27.564  41.124  58.501  0.00  0.00     0.066 C 
HETATM   11  C   UNK N   1      26.895  43.362  59.559  0.00  0.00     0.043 C 
HETATM   12  C   UNK N   1      27.362  42.538  54.914  0.00  0.00     0.019 C 
ENDROOT
BRANCH   1  13
HETATM   13  O   UNK N   1      29.789  40.566  58.106  0.00  0.00    -0.311 OA
BRANCH  13  14
HETATM   14  C   UNK N   1      30.350  40.228  59.297  0.00  0.00     0.293 C 
HETATM   15  O   UNK N   1      30.235  39.104  59.756  0.00  0.00    -0.259 OA
BRANCH  14  16
HETATM   16  C   UNK N   1      31.098  41.264  60.036  0.00  0.00     0.039 A 
HETATM   17  C   UNK N   1      30.428  42.224  60.810  0.00  0.00     0.020 A 
HETATM   18  C   UNK N   1      31.157  43.178  61.526  0.00  0.00     0.037 A 
HETATM   19  C   UNK N   1      32.558  43.197  61.455  0.00  0.00     0.065 A 
HETATM   20  C   UNK N   1      33.226  42.260  60.660  0.00  0.00     0.037 A 
HETATM   21  C   UNK N   1      32.501  41.293  59.960  0.00  0.00     0.020 A 
BRANCH  19  22
HETATM   22  O   UNK N   1      33.271  44.107  62.149  0.00  0.00    -0.361 OA
HETATM   23  H   UNK N   1      32.959  45.015  62.266  0.00  0.00     0.217 HD
ENDBRANCH  19  22
ENDBRANCH  14  16
ENDBRANCH  13  14
ENDBRANCH   1  13
BRANCH   3  24
HETATM   24  O   UNK N   1      28.177  39.329  53.981  0.00  0.00    -0.389 OA
HETATM   25  H   UNK N   1      28.557  39.883  53.250  0.00  0.00     0.210 HD
ENDBRANCH   3  24
BRANCH   3  26
HETATM   26  C   UNK N   1      29.276  38.002  55.666  0.00  0.00     0.012 C 
HETATM   27  C   UNK N   1      27.985  37.164  55.775  0.00  0.00     0.012 C 
HETATM   28  C   UNK N   1      30.280  37.222  54.793  0.00  0.00     0.012 C 
ENDBRANCH   3  26
BRANCH   7  29
HETATM   29  O   UNK N   1      30.568  42.565  56.923  0.00  0.00    -0.312 OA
BRANCH  29  30
HETATM   30  C   UNK N   1      31.688  43.340  56.802  0.00  0.00     0.255 C 
HETATM   31  O   UNK N   1      32.490  43.151  55.899  0.00  0.00    -0.266 OA
HETATM   32  C   UNK N   1      31.954  44.428  57.794  0.00  0.00     0.126 C 
ENDBRANCH  29  30
ENDBRANCH   7  29
TORSDOF 8
ENDMDL
MODEL 5
REMARK VINA RESULT:      -5.3     17.777     21.356
REMARK  8 active torsions:
REMARK  status: ('A' for Active; 'I' for Inactive)
REMARK    1  A    between atoms: C_2  and  O_3 
REMARK    2  A    between atoms: C_2  and  C_25 
REMARK    3  A    between atoms: O_3  and  C_4 
REMARK    4  A    between atoms: C_6  and  O_7 
REMARK    5  A    between atoms: C_6  and  C_9 
REMARK    6  A    between atoms: C_15  and  O_16 
REMARK    7  A    between atoms: O_16  and  C_17 
REMARK    8  A    between atoms: C_28  and  O_29 
ROOT
HETATM    1  C   UNK N   1      31.533  41.645  59.348  0.00  0.00     0.144 C 
HETATM    2  C   UNK N   1      30.364  41.215  60.311  0.00  0.00     0.061 C 
HETATM    3  C   UNK N   1      29.074  40.578  59.668  0.00  0.00     0.068 C 
HETATM    4  C   UNK N   1      28.179  41.825  59.555  0.00  0.00     0.040 C 
HETATM    5  C   UNK N   1      28.286  42.395  60.965  0.00  0.00     0.015 C 
HETATM    6  C   UNK N   1      29.807  42.347  61.277  0.00  0.00    -0.005 C 
HETATM    7  C   UNK N   1      30.366  43.801  61.086  0.00  0.00     0.163 C 
HETATM    8  C   UNK N   1      31.834  43.983  61.394  0.00  0.00     0.008 C 
HETATM    9  C   UNK N   1      32.883  43.222  60.990  0.00  0.00    -0.083 C 
HETATM   10  C   UNK N   1      32.823  41.983  60.108  0.00  0.00     0.066 C 
HETATM   11  C   UNK N   1      34.261  43.610  61.473  0.00  0.00     0.043 C 
HETATM   12  C   UNK N   1      30.014  41.937  62.756  0.00  0.00     0.019 C 
ENDROOT
BRANCH   1  13
HETATM   13  O   UNK N   1      31.272  42.729  58.541  0.00  0.00    -0.311 OA
BRANCH  13  14
HETATM   14  C   UNK N   1      31.544  42.866  57.216  0.00  0.00     0.293 C 
HETATM   15  O   UNK N   1      32.626  43.276  56.830  0.00  0.00    -0.259 OA
BRANCH  14  16
HETATM   16  C   UNK N   1      30.488  42.517  56.247  0.00  0.00     0.039 A 
HETATM   17  C   UNK N   1      30.777  41.739  55.113  0.00  0.00     0.020 A 
HETATM   18  C   UNK N   1      29.756  41.395  54.224  0.00  0.00     0.037 A 
HETATM   19  C   UNK N   1      28.445  41.844  54.442  0.00  0.00     0.065 A 
HETATM   20  C   UNK N   1      28.162  42.645  55.553  0.00  0.00     0.037 A 
HETATM   21  C   UNK N   1      29.175  42.973  56.455  0.00  0.00     0.020 A 
BRANCH  19  22
HETATM   22  O   UNK N   1      27.452  41.510  53.594  0.00  0.00    -0.361 OA
HETATM   23  H   UNK N   1      27.584  40.864  52.886  0.00  0.00     0.217 HD
ENDBRANCH  19  22
ENDBRANCH  14  16
ENDBRANCH  13  14
ENDBRANCH   1  13
BRANCH   3  24
HETATM   24  O   UNK N   1      28.524  39.686  60.624  0.00  0.00    -0.389 OA
HETATM   25  H   UNK N   1      29.261  39.262  61.134  0.00  0.00     0.210 HD
ENDBRANCH   3  24
BRANCH   3  26
HETATM   26  C   UNK N   1      29.259  39.780  58.330  0.00  0.00     0.012 C 
HETATM   27  C   UNK N   1      29.891  38.392  58.563  0.00  0.00     0.012 C 
HETATM   28  C   UNK N   1      27.936  39.582  57.563  0.00  0.00     0.012 C 
ENDBRANCH   3  26
BRANCH   7  29
HETATM   29  O   UNK N   1      30.031  44.376  59.863  0.00  0.00    -0.312 OA
BRANCH  29  30
HETATM   30  C   UNK N   1      30.009  45.720  59.611  0.00  0.00     0.255 C 
HETATM   31  O   UNK N   1      29.588  46.511  60.443  0.00  0.00    -0.266 OA
HETATM   32  C   UNK N   1      30.490  46.241  58.293  0.00  0.00     0.126 C 
ENDBRANCH  29  30
ENDBRANCH   7  29
TORSDOF 8
ENDMDL
MODEL 6
REMARK VINA RESULT:      -5.2     17.486     20.050
REMARK  8 active torsions:
REMARK  status: ('A' for Active; 'I' for Inactive)
REMARK    1  A    between atoms: C_2  and  O_3 
REMARK    2  A    between atoms: C_2  and  C_25 
REMARK    3  A    between atoms: O_3  and  C_4 
REMARK    4  A    between atoms: C_6  and  O_7 
REMARK    5  A    between atoms: C_6  and  C_9 
REMARK    6  A    between atoms: C_15  and  O_16 
REMARK    7  A    between atoms: O_16  and  C_17 
REMARK    8  A    between atoms: C_28  and  O_29 
ROOT
HETATM    1  C   UNK N   1      31.476  44.477  58.221  0.00  0.00     0.144 C 
HETATM    2  C   UNK N   1      31.235  44.139  59.740  0.00  0.00     0.061 C 
HETATM    3  C   UNK N   1      31.758  42.754  60.280  0.00  0.00     0.068 C 
HETATM    4  C   UNK N   1      30.478  41.908  60.152  0.00  0.00     0.040 C 
HETATM    5  C   UNK N   1      29.459  42.808  60.840  0.00  0.00     0.015 C 
HETATM    6  C   UNK N   1      29.727  44.213  60.237  0.00  0.00    -0.005 C 
HETATM    7  C   UNK N   1      28.620  44.474  59.156  0.00  0.00     0.163 C 
HETATM    8  C   UNK N   1      28.672  45.824  58.479  0.00  0.00     0.008 C 
HETATM    9  C   UNK N   1      29.745  46.460  57.943  0.00  0.00    -0.083 C 
HETATM   10  C   UNK N   1      31.177  45.947  57.893  0.00  0.00     0.066 C 
HETATM   11  C   UNK N   1      29.526  47.831  57.350  0.00  0.00     0.043 C 
HETATM   12  C   UNK N   1      29.584  45.283  61.347  0.00  0.00     0.019 C 
ENDROOT
BRANCH   1  13
HETATM   13  O   UNK N   1      30.748  43.732  57.321  0.00  0.00    -0.311 OA
BRANCH  13  14
HETATM   14  C   UNK N   1      31.219  42.934  56.327  0.00  0.00     0.293 C 
HETATM   15  O   UNK N   1      32.334  43.095  55.858  0.00  0.00    -0.259 OA
BRANCH  14  16
HETATM   16  C   UNK N   1      30.341  41.865  55.813  0.00  0.00     0.039 A 
HETATM   17  C   UNK N   1      29.894  41.875  54.482  0.00  0.00     0.020 A 
HETATM   18  C   UNK N   1      29.087  40.836  54.008  0.00  0.00     0.037 A 
HETATM   19  C   UNK N   1      28.699  39.795  54.864  0.00  0.00     0.065 A 
HETATM   20  C   UNK N   1      29.119  39.799  56.198  0.00  0.00     0.037 A 
HETATM   21  C   UNK N   1      29.942  40.824  56.669  0.00  0.00     0.020 A 
BRANCH  19  22
HETATM   22  O   UNK N   1      27.929  38.784  54.414  0.00  0.00    -0.361 OA
HETATM   23  H   UNK N   1      28.148  37.859  54.594  0.00  0.00     0.217 HD
ENDBRANCH  19  22
ENDBRANCH  14  16
ENDBRANCH  13  14
ENDBRANCH   1  13
BRANCH   3  24
HETATM   24  O   UNK N   1      32.073  42.929  61.651  0.00  0.00    -0.389 OA
HETATM   25  H   UNK N   1      33.053  43.058  61.745  0.00  0.00     0.210 HD
ENDBRANCH   3  24
BRANCH   3  26
HETATM   26  C   UNK N   1      33.021  42.143  59.579  0.00  0.00     0.012 C 
HETATM   27  C   UNK N   1      34.302  42.947  59.884  0.00  0.00     0.012 C 
HETATM   28  C   UNK N   1      33.273  40.673  59.975  0.00  0.00     0.012 C 
ENDBRANCH   3  26
BRANCH   7  29
HETATM   29  O   UNK N   1      28.489  43.446  58.226  0.00  0.00    -0.312 OA
BRANCH  29  30
HETATM   30  C   UNK N   1      27.299  42.942  57.779  0.00  0.00     0.255 C 
HETATM   31  O   UNK N   1      26.570  42.299  58.521  0.00  0.00    -0.266 OA
HETATM   32  C   UNK N   1      26.881  43.159  56.360  0.00  0.00     0.126 C 
ENDBRANCH  29  30
ENDBRANCH   7  29
TORSDOF 8
ENDMDL
MODEL 7
REMARK VINA RESULT:      -5.1      1.997      3.752
REMARK  8 active torsions:
REMARK  status: ('A' for Active; 'I' for Inactive)
REMARK    1  A    between atoms: C_2  and  O_3 
REMARK    2  A    between atoms: C_2  and  C_25 
REMARK    3  A    between atoms: O_3  and  C_4 
REMARK    4  A    between atoms: C_6  and  O_7 
REMARK    5  A    between atoms: C_6  and  C_9 
REMARK    6  A    between atoms: C_15  and  O_16 
REMARK    7  A    between atoms: O_16  and  C_17 
REMARK    8  A    between atoms: C_28  and  O_29 
ROOT
HETATM    1  C   UNK N   1      30.670  53.367  40.381  0.00  0.00     0.144 C 
HETATM    2  C   UNK N   1      30.933  54.759  41.067  0.00  0.00     0.061 C 
HETATM    3  C   UNK N   1      31.103  54.790  42.634  0.00  0.00     0.068 C 
HETATM    4  C   UNK N   1      29.666  55.139  43.059  0.00  0.00     0.040 C 
HETATM    5  C   UNK N   1      29.377  56.341  42.168  0.00  0.00     0.015 C 
HETATM    6  C   UNK N   1      29.864  55.896  40.763  0.00  0.00    -0.005 C 
HETATM    7  C   UNK N   1      28.593  55.492  39.936  0.00  0.00     0.163 C 
HETATM    8  C   UNK N   1      28.848  55.073  38.507  0.00  0.00     0.008 C 
HETATM    9  C   UNK N   1      29.780  54.206  38.035  0.00  0.00    -0.083 C 
HETATM   10  C   UNK N   1      30.803  53.432  38.854  0.00  0.00     0.066 C 
HETATM   11  C   UNK N   1      29.844  53.987  36.541  0.00  0.00     0.043 C 
HETATM   12  C   UNK N   1      30.545  57.092  40.054  0.00  0.00     0.019 C 
ENDROOT
BRANCH   1  13
HETATM   13  O   UNK N   1      29.440  52.800  40.632  0.00  0.00    -0.311 OA
BRANCH  13  14
HETATM   14  C   UNK N   1      29.091  51.491  40.534  0.00  0.00     0.293 C 
HETATM   15  O   UNK N   1      29.857  50.603  40.867  0.00  0.00    -0.259 OA
BRANCH  14  16
HETATM   16  C   UNK N   1      27.755  51.162  39.999  0.00  0.00     0.039 A 
HETATM   17  C   UNK N   1      26.956  50.180  40.606  0.00  0.00     0.020 A 
HETATM   18  C   UNK N   1      25.682  49.906  40.101  0.00  0.00     0.037 A 
HETATM   19  C   UNK N   1      25.205  50.590  38.973  0.00  0.00     0.065 A 
HETATM   20  C   UNK N   1      26.012  51.546  38.349  0.00  0.00     0.037 A 
HETATM   21  C   UNK N   1      27.277  51.837  38.863  0.00  0.00     0.020 A 
BRANCH  19  22
HETATM   22  O   UNK N   1      23.974  50.339  38.484  0.00  0.00    -0.361 OA
HETATM   23  H   UNK N   1      23.563  49.467  38.565  0.00  0.00     0.217 HD
ENDBRANCH  19  22
ENDBRANCH  14  16
ENDBRANCH  13  14
ENDBRANCH   1  13
BRANCH   3  24
HETATM   24  O   UNK N   1      31.963  55.875  42.942  0.00  0.00    -0.389 OA
HETATM   25  H   UNK N   1      32.617  55.990  42.205  0.00  0.00     0.210 HD
ENDBRANCH   3  24
BRANCH   3  26
HETATM   26  C   UNK N   1      31.697  53.508  43.316  0.00  0.00     0.012 C 
HETATM   27  C   UNK N   1      33.239  53.512  43.320  0.00  0.00     0.012 C 
HETATM   28  C   UNK N   1      31.214  53.325  44.769  0.00  0.00     0.012 C 
ENDBRANCH   3  26
BRANCH   7  29
HETATM   29  O   UNK N   1      27.763  54.585  40.589  0.00  0.00    -0.312 OA
BRANCH  29  30
HETATM   30  C   UNK N   1      26.489  54.853  41.008  0.00  0.00     0.255 C 
HETATM   31  O   UNK N   1      25.853  54.032  41.656  0.00  0.00    -0.266 OA
HETATM   32  C   UNK N   1      25.847  56.159  40.662  0.00  0.00     0.126 C 
ENDBRANCH  29  30
ENDBRANCH   7  29
TORSDOF 8
ENDMDL
MODEL 8
REMARK VINA RESULT:      -5.1     17.120     20.386
REMARK  8 active torsions:
REMARK  status: ('A' for Active; 'I' for Inactive)
REMARK    1  A    between atoms: C_2  and  O_3 
REMARK    2  A    between atoms: C_2  and  C_25 
REMARK    3  A    between atoms: O_3  and  C_4 
REMARK    4  A    between atoms: C_6  and  O_7 
REMARK    5  A    between atoms: C_6  and  C_9 
REMARK    6  A    between atoms: C_15  and  O_16 
REMARK    7  A    between atoms: O_16  and  C_17 
REMARK    8  A    between atoms: C_28  and  O_29 
ROOT
HETATM    1  C   UNK N   1      31.010  43.944  58.545  0.00  0.00     0.144 C 
HETATM    2  C   UNK N   1      31.337  43.978  60.084  0.00  0.00     0.061 C 
HETATM    3  C   UNK N   1      31.509  42.601  60.832  0.00  0.00     0.068 C 
HETATM    4  C   UNK N   1      30.089  42.416  61.397  0.00  0.00     0.040 C 
HETATM    5  C   UNK N   1      29.856  43.770  62.059  0.00  0.00     0.015 C 
HETATM    6  C   UNK N   1      30.322  44.797  60.992  0.00  0.00    -0.005 C 
HETATM    7  C   UNK N   1      29.033  45.369  60.303  0.00  0.00     0.163 C 
HETATM    8  C   UNK N   1      29.268  46.434  59.258  0.00  0.00     0.008 C 
HETATM    9  C   UNK N   1      30.158  46.431  58.233  0.00  0.00    -0.083 C 
HETATM   10  C   UNK N   1      31.145  45.325  57.887  0.00  0.00     0.066 C 
HETATM   11  C   UNK N   1      30.212  47.650  57.343  0.00  0.00     0.043 C 
HETATM   12  C   UNK N   1      31.057  45.966  61.693  0.00  0.00     0.019 C 
ENDROOT
BRANCH   1  13
HETATM   13  O   UNK N   1      29.756  43.486  58.210  0.00  0.00    -0.311 OA
BRANCH  13  14
HETATM   14  C   UNK N   1      29.431  42.311  57.608  0.00  0.00     0.293 C 
HETATM   15  O   UNK N   1      29.119  41.329  58.261  0.00  0.00    -0.259 OA
BRANCH  14  16
HETATM   16  C   UNK N   1      29.475  42.245  56.135  0.00  0.00     0.039 A 
HETATM   17  C   UNK N   1      28.329  42.507  55.367  0.00  0.00     0.020 A 
HETATM   18  C   UNK N   1      28.400  42.469  53.971  0.00  0.00     0.037 A 
HETATM   19  C   UNK N   1      29.606  42.144  53.332  0.00  0.00     0.065 A 
HETATM   20  C   UNK N   1      30.740  41.852  54.097  0.00  0.00     0.037 A 
HETATM   21  C   UNK N   1      30.678  41.910  55.491  0.00  0.00     0.020 A 
BRANCH  19  22
HETATM   22  O   UNK N   1      29.687  42.113  51.987  0.00  0.00    -0.361 OA
HETATM   23  H   UNK N   1      30.222  41.453  51.525  0.00  0.00     0.217 HD
ENDBRANCH  19  22
ENDBRANCH  14  16
ENDBRANCH  13  14
ENDBRANCH   1  13
BRANCH   3  24
HETATM   24  O   UNK N   1      32.418  42.813  61.900  0.00  0.00    -0.389 OA
HETATM   25  H   UNK N   1      33.041  43.546  61.654  0.00  0.00     0.210 HD
ENDBRANCH   3  24
BRANCH   3  26
HETATM   26  C   UNK N   1      32.043  41.390  59.991  0.00  0.00     0.012 C 
HETATM   27  C   UNK N   1      33.584  41.344  59.950  0.00  0.00     0.012 C 
HETATM   28  C   UNK N   1      31.537  40.029  60.512  0.00  0.00     0.012 C 
ENDBRANCH   3  26
BRANCH   7  29
HETATM   29  O   UNK N   1      28.162  44.387  59.838  0.00  0.00    -0.312 OA
BRANCH  29  30
HETATM   30  C   UNK N   1      26.809  44.383  60.039  0.00  0.00     0.255 C 
HETATM   31  O   UNK N   1      26.068  43.723  59.324  0.00  0.00    -0.266 OA
HETATM   32  C   UNK N   1      26.214  45.207  61.136  0.00  0.00     0.126 C 
ENDBRANCH  29  30
ENDBRANCH   7  29
TORSDOF 8
ENDMDL
MODEL 9
REMARK VINA RESULT:      -5.0     17.591     20.776
REMARK  8 active torsions:
REMARK  status: ('A' for Active; 'I' for Inactive)
REMARK    1  A    between atoms: C_2  and  O_3 
REMARK    2  A    between atoms: C_2  and  C_25 
REMARK    3  A    between atoms: O_3  and  C_4 
REMARK    4  A    between atoms: C_6  and  O_7 
REMARK    5  A    between atoms: C_6  and  C_9 
REMARK    6  A    between atoms: C_15  and  O_16 
REMARK    7  A    between atoms: O_16  and  C_17 
REMARK    8  A    between atoms: C_28  and  O_29 
ROOT
HETATM    1  C   UNK N   1      31.134  44.336  59.003  0.00  0.00     0.144 C 
HETATM    2  C   UNK N   1      31.170  44.075  60.555  0.00  0.00     0.061 C 
HETATM    3  C   UNK N   1      32.315  43.153  61.123  0.00  0.00     0.068 C 
HETATM    4  C   UNK N   1      31.581  41.801  61.170  0.00  0.00     0.040 C 
HETATM    5  C   UNK N   1      30.300  42.185  61.900  0.00  0.00     0.015 C 
HETATM    6  C   UNK N   1      29.837  43.487  61.192  0.00  0.00    -0.005 C 
HETATM    7  C   UNK N   1      28.678  43.096  60.210  0.00  0.00     0.163 C 
HETATM    8  C   UNK N   1      28.047  44.241  59.452  0.00  0.00     0.008 C 
HETATM    9  C   UNK N   1      28.660  45.247  58.778  0.00  0.00    -0.083 C 
HETATM   10  C   UNK N   1      30.159  45.458  58.620  0.00  0.00     0.066 C 
HETATM   11  C   UNK N   1      27.785  46.294  58.129  0.00  0.00     0.043 C 
HETATM   12  C   UNK N   1      29.271  44.470  62.245  0.00  0.00     0.019 C 
ENDROOT
BRANCH   1  13
HETATM   13  O   UNK N   1      30.794  43.254  58.223  0.00  0.00    -0.311 OA
BRANCH  13  14
HETATM   14  C   UNK N   1      31.272  42.929  56.993  0.00  0.00     0.293 C 
HETATM   15  O   UNK N   1      32.463  42.999  56.737  0.00  0.00    -0.259 OA
BRANCH  14  16
HETATM   16  C   UNK N   1      30.311  42.497  55.961  0.00  0.00     0.039 A 
HETATM   17  C   UNK N   1      30.743  41.816  54.812  0.00  0.00     0.020 A 
HETATM   18  C   UNK N   1      29.812  41.388  53.861  0.00  0.00     0.037 A 
HETATM   19  C   UNK N   1      28.446  41.660  54.036  0.00  0.00     0.065 A 
HETATM   20  C   UNK N   1      28.018  42.365  55.164  0.00  0.00     0.037 A 
HETATM   21  C   UNK N   1      28.943  42.775  56.126  0.00  0.00     0.020 A 
BRANCH  19  22
HETATM   22  O   UNK N   1      27.540  41.244  53.129  0.00  0.00    -0.361 OA
HETATM   23  H   UNK N   1      27.072  41.867  52.555  0.00  0.00     0.217 HD
ENDBRANCH  19  22
ENDBRANCH  14  16
ENDBRANCH  13  14
ENDBRANCH   1  13
BRANCH   3  24
HETATM   24  O   UNK N   1      32.589  43.588  62.444  0.00  0.00    -0.389 OA
HETATM   25  H   UNK N   1      31.951  43.154  63.068  0.00  0.00     0.210 HD
ENDBRANCH   3  24
BRANCH   3  26
HETATM   26  C   UNK N   1      33.674  43.135  60.340  0.00  0.00     0.012 C 
HETATM   27  C   UNK N   1      34.861  43.569  61.225  0.00  0.00     0.012 C 
HETATM   28  C   UNK N   1      34.003  41.751  59.743  0.00  0.00     0.012 C 
ENDBRANCH   3  26
BRANCH   7  29
HETATM   29  O   UNK N   1      28.994  42.040  59.359  0.00  0.00    -0.312 OA
BRANCH  29  30
HETATM   30  C   UNK N   1      28.292  40.869  59.270  0.00  0.00     0.255 C 
HETATM   31  O   UNK N   1      28.769  39.817  59.671  0.00  0.00    -0.266 OA
HETATM   32  C   UNK N   1      26.925  40.862  58.662  0.00  0.00     0.126 C 
ENDBRANCH  29  30
ENDBRANCH   7  29
TORSDOF 8
ENDMDL
