MODEL 1
REMARK VINA RESULT:      -5.7      0.000      0.000
REMARK  8 active torsions:
REMARK  status: ('A' for Active; 'I' for Inactive)
REMARK    1  A    between atoms: C_2  and  O_3 
REMARK    2  A    between atoms: C_2  and  C_25 
REMARK    3  A    between atoms: O_3  and  C_4 
REMARK    4  A    between atoms: C_6  and  O_7 
REMARK    5  A    between atoms: C_6  and  C_9 
REMARK    6  A    between atoms: C_15  and  O_16 
REMARK    7  A    between atoms: O_16  and  C_17 
REMARK    8  A    between atoms: C_28  and  O_29 
ROOT
HETATM    1  C   UNK N   1      28.247  55.154  41.345  0.00  0.00     0.144 C 
HETATM    2  C   UNK N   1      28.924  55.289  39.921  0.00  0.00     0.061 C 
HETATM    3  C   UNK N   1      29.327  56.739  39.447  0.00  0.00     0.068 C 
HETATM    4  C   UNK N   1      30.718  56.868  40.072  0.00  0.00     0.040 C 
HETATM    5  C   UNK N   1      31.388  55.526  39.781  0.00  0.00     0.015 C 
HETATM    6  C   UNK N   1      30.244  54.462  39.720  0.00  0.00    -0.005 C 
HETATM    7  C   UNK N   1      30.504  53.273  40.697  0.00  0.00     0.163 C 
HETATM    8  C   UNK N   1      30.808  53.593  42.144  0.00  0.00     0.008 C 
HETATM    9  C   UNK N   1      30.214  54.491  42.967  0.00  0.00    -0.083 C 
HETATM   10  C   UNK N   1      29.056  55.408  42.622  0.00  0.00     0.066 C 
HETATM   11  C   UNK N   1      30.753  54.623  44.374  0.00  0.00     0.043 C 
HETATM   12  C   UNK N   1      30.235  53.834  38.287  0.00  0.00     0.019 C 
ENDROOT
BRANCH   1  13
HETATM   13  O   UNK N   1      27.628  53.923  41.502  0.00  0.00    -0.311 OA
BRANCH  13  14
HETATM   14  C   UNK N   1      26.393  53.613  41.019  0.00  0.00     0.293 C 
HETATM   15  O   UNK N   1      25.472  54.412  41.111  0.00  0.00    -0.259 OA
BRANCH  14  16
HETATM   16  C   UNK N   1      26.163  52.302  40.378  0.00  0.00     0.039 A 
HETATM   17  C   UNK N   1      26.330  52.144  38.993  0.00  0.00     0.020 A 
HETATM   18  C   UNK N   1      26.079  50.908  38.390  0.00  0.00     0.038 A 
HETATM   19  C   UNK N   1      25.650  49.817  39.156  0.00  0.00     0.068 A 
HETATM   20  C   UNK N   1      25.500  49.972  40.549  0.00  0.00     0.038 A 
HETATM   21  C   UNK N   1      25.761  51.202  41.152  0.00  0.00     0.020 A 
BRANCH  19  22
HETATM   22  O   UNK N   1      25.380  48.644  38.525  0.00  0.00    -0.356 OA
HETATM   23  C   UNK N   1      24.411  47.744  38.917  0.00  0.00     0.210 C 
ENDBRANCH  19  22
ENDBRANCH  14  16
ENDBRANCH  13  14
ENDBRANCH   1  13
BRANCH   3  24
HETATM   24  O   UNK N   1      29.506  56.769  38.047  0.00  0.00    -0.389 OA
HETATM   25  H   UNK N   1      28.728  56.325  37.620  0.00  0.00     0.210 HD
ENDBRANCH   3  24
BRANCH   3  26
HETATM   26  C   UNK N   1      28.352  57.906  39.843  0.00  0.00     0.012 C 
HETATM   27  C   UNK N   1      28.899  59.278  39.407  0.00  0.00     0.012 C 
HETATM   28  C   UNK N   1      26.943  57.738  39.235  0.00  0.00     0.012 C 
ENDBRANCH   3  26
BRANCH   7  29
HETATM   29  O   UNK N   1      29.540  52.275  40.598  0.00  0.00    -0.312 OA
BRANCH  29  30
HETATM   30  C   UNK N   1      29.826  50.937  40.587  0.00  0.00     0.255 C 
HETATM   31  O   UNK N   1      28.949  50.106  40.390  0.00  0.00    -0.266 OA
HETATM   32  C   UNK N   1      31.223  50.467  40.834  0.00  0.00     0.126 C 
ENDBRANCH  29  30
ENDBRANCH   7  29
TORSDOF 8
ENDMDL
MODEL 2
REMARK VINA RESULT:      -5.6     18.052     20.713
REMARK  8 active torsions:
REMARK  status: ('A' for Active; 'I' for Inactive)
REMARK    1  A    between atoms: C_2  and  O_3 
REMARK    2  A    between atoms: C_2  and  C_25 
REMARK    3  A    between atoms: O_3  and  C_4 
REMARK    4  A    between atoms: C_6  and  O_7 
REMARK    5  A    between atoms: C_6  and  C_9 
REMARK    6  A    between atoms: C_15  and  O_16 
REMARK    7  A    between atoms: O_16  and  C_17 
REMARK    8  A    between atoms: C_28  and  O_29 
ROOT
HETATM    1  C   UNK N   1      31.408  43.389  57.532  0.00  0.00     0.144 C 
HETATM    2  C   UNK N   1      30.910  42.564  58.787  0.00  0.00     0.061 C 
HETATM    3  C   UNK N   1      31.893  42.457  60.016  0.00  0.00     0.068 C 
HETATM    4  C   UNK N   1      31.543  43.739  60.776  0.00  0.00     0.040 C 
HETATM    5  C   UNK N   1      30.016  43.787  60.749  0.00  0.00     0.015 C 
HETATM    6  C   UNK N   1      29.571  43.064  59.436  0.00  0.00    -0.005 C 
HETATM    7  C   UNK N   1      28.642  43.966  58.564  0.00  0.00     0.163 C 
HETATM    8  C   UNK N   1      29.116  45.363  58.226  0.00  0.00     0.008 C 
HETATM    9  C   UNK N   1      30.343  45.779  57.830  0.00  0.00    -0.083 C 
HETATM   10  C   UNK N   1      31.567  44.912  57.610  0.00  0.00     0.066 C 
HETATM   11  C   UNK N   1      30.542  47.259  57.590  0.00  0.00     0.043 C 
HETATM   12  C   UNK N   1      28.704  41.824  59.829  0.00  0.00     0.019 C 
ENDROOT
BRANCH   1  13
HETATM   13  O   UNK N   1      30.639  43.125  56.409  0.00  0.00    -0.311 OA
BRANCH  13  14
HETATM   14  C   UNK N   1      31.011  42.291  55.397  0.00  0.00     0.293 C 
HETATM   15  O   UNK N   1      32.184  42.201  55.066  0.00  0.00    -0.259 OA
BRANCH  14  16
HETATM   16  C   UNK N   1      29.989  41.488  54.695  0.00  0.00     0.039 A 
HETATM   17  C   UNK N   1      29.432  41.937  53.488  0.00  0.00     0.020 A 
HETATM   18  C   UNK N   1      28.442  41.187  52.846  0.00  0.00     0.038 A 
HETATM   19  C   UNK N   1      27.987  39.985  53.403  0.00  0.00     0.068 A 
HETATM   20  C   UNK N   1      28.559  39.526  54.607  0.00  0.00     0.038 A 
HETATM   21  C   UNK N   1      29.554  40.270  55.241  0.00  0.00     0.020 A 
BRANCH  19  22
HETATM   22  O   UNK N   1      26.996  39.306  52.768  0.00  0.00    -0.356 OA
HETATM   23  C   UNK N   1      25.820  39.869  52.317  0.00  0.00     0.210 C 
ENDBRANCH  19  22
ENDBRANCH  14  16
ENDBRANCH  13  14
ENDBRANCH   1  13
BRANCH   3  24
HETATM   24  O   UNK N   1      31.525  41.378  60.850  0.00  0.00    -0.389 OA
HETATM   25  H   UNK N   1      31.478  41.703  61.785  0.00  0.00     0.210 HD
ENDBRANCH   3  24
BRANCH   3  26
HETATM   26  C   UNK N   1      33.424  42.323  59.687  0.00  0.00     0.012 C 
HETATM   27  C   UNK N   1      34.290  43.161  60.646  0.00  0.00     0.012 C 
HETATM   28  C   UNK N   1      33.921  40.862  59.747  0.00  0.00     0.012 C 
ENDBRANCH   3  26
BRANCH   7  29
HETATM   29  O   UNK N   1      28.168  43.312  57.431  0.00  0.00    -0.312 OA
BRANCH  29  30
HETATM   30  C   UNK N   1      26.869  43.372  57.003  0.00  0.00     0.255 C 
HETATM   31  O   UNK N   1      25.971  43.715  57.761  0.00  0.00    -0.266 OA
HETATM   32  C   UNK N   1      26.526  43.001  55.597  0.00  0.00     0.126 C 
ENDBRANCH  29  30
ENDBRANCH   7  29
TORSDOF 8
ENDMDL
MODEL 3
REMARK VINA RESULT:      -5.5      2.296      5.790
REMARK  8 active torsions:
REMARK  status: ('A' for Active; 'I' for Inactive)
REMARK    1  A    between atoms: C_2  and  O_3 
REMARK    2  A    between atoms: C_2  and  C_25 
REMARK    3  A    between atoms: O_3  and  C_4 
REMARK    4  A    between atoms: C_6  and  O_7 
REMARK    5  A    between atoms: C_6  and  C_9 
REMARK    6  A    between atoms: C_15  and  O_16 
REMARK    7  A    between atoms: O_16  and  C_17 
REMARK    8  A    between atoms: C_28  and  O_29 
ROOT
HETATM    1  C   UNK N   1      28.438  55.579  40.582  0.00  0.00     0.144 C 
HETATM    2  C   UNK N   1      27.103  54.738  40.702  0.00  0.00     0.061 C 
HETATM    3  C   UNK N   1      25.755  55.465  40.323  0.00  0.00     0.068 C 
HETATM    4  C   UNK N   1      25.717  55.226  38.811  0.00  0.00     0.040 C 
HETATM    5  C   UNK N   1      26.113  53.759  38.652  0.00  0.00     0.015 C 
HETATM    6  C   UNK N   1      27.057  53.420  39.850  0.00  0.00    -0.005 C 
HETATM    7  C   UNK N   1      28.418  52.827  39.368  0.00  0.00     0.163 C 
HETATM    8  C   UNK N   1      29.199  53.592  38.322  0.00  0.00     0.008 C 
HETATM    9  C   UNK N   1      29.440  54.923  38.236  0.00  0.00    -0.083 C 
HETATM   10  C   UNK N   1      28.981  55.992  39.209  0.00  0.00     0.066 C 
HETATM   11  C   UNK N   1      30.234  55.420  37.050  0.00  0.00     0.043 C 
HETATM   12  C   UNK N   1      26.385  52.291  40.699  0.00  0.00     0.019 C 
ENDROOT
BRANCH   1  13
HETATM   13  O   UNK N   1      29.485  54.976  41.261  0.00  0.00    -0.311 OA
BRANCH  13  14
HETATM   14  C   UNK N   1      30.192  55.562  42.268  0.00  0.00     0.293 C 
HETATM   15  O   UNK N   1      30.003  56.734  42.559  0.00  0.00    -0.259 OA
BRANCH  14  16
HETATM   16  C   UNK N   1      31.195  54.775  43.015  0.00  0.00     0.039 A 
HETATM   17  C   UNK N   1      31.038  53.390  43.182  0.00  0.00     0.020 A 
HETATM   18  C   UNK N   1      31.975  52.658  43.918  0.00  0.00     0.038 A 
HETATM   19  C   UNK N   1      33.074  53.297  44.504  0.00  0.00     0.068 A 
HETATM   20  C   UNK N   1      33.241  54.685  44.321  0.00  0.00     0.038 A 
HETATM   21  C   UNK N   1      32.312  55.413  43.578  0.00  0.00     0.020 A 
BRANCH  19  22
HETATM   22  O   UNK N   1      33.941  52.556  45.243  0.00  0.00    -0.356 OA
HETATM   23  C   UNK N   1      34.334  51.269  44.939  0.00  0.00     0.210 C 
ENDBRANCH  19  22
ENDBRANCH  14  16
ENDBRANCH  13  14
ENDBRANCH   1  13
BRANCH   3  24
HETATM   24  O   UNK N   1      24.651  54.775  40.870  0.00  0.00    -0.389 OA
HETATM   25  H   UNK N   1      23.820  55.240  40.594  0.00  0.00     0.210 HD
ENDBRANCH   3  24
BRANCH   3  26
HETATM   26  C   UNK N   1      25.634  56.980  40.720  0.00  0.00     0.012 C 
HETATM   27  C   UNK N   1      25.687  57.900  39.486  0.00  0.00     0.012 C 
HETATM   28  C   UNK N   1      24.333  57.292  41.492  0.00  0.00     0.012 C 
ENDBRANCH   3  26
BRANCH   7  29
HETATM   29  O   UNK N   1      29.240  52.442  40.422  0.00  0.00    -0.312 OA
BRANCH  29  30
HETATM   30  C   UNK N   1      29.907  51.247  40.472  0.00  0.00     0.255 C 
HETATM   31  O   UNK N   1      29.298  50.185  40.485  0.00  0.00    -0.266 OA
HETATM   32  C   UNK N   1      31.399  51.225  40.528  0.00  0.00     0.126 C 
ENDBRANCH  29  30
ENDBRANCH   7  29
TORSDOF 8
ENDMDL
MODEL 4
REMARK VINA RESULT:      -5.3     17.864     20.387
REMARK  8 active torsions:
REMARK  status: ('A' for Active; 'I' for Inactive)
REMARK    1  A    between atoms: C_2  and  O_3 
REMARK    2  A    between atoms: C_2  and  C_25 
REMARK    3  A    between atoms: O_3  and  C_4 
REMARK    4  A    between atoms: C_6  and  O_7 
REMARK    5  A    between atoms: C_6  and  C_9 
REMARK    6  A    between atoms: C_15  and  O_16 
REMARK    7  A    between atoms: O_16  and  C_17 
REMARK    8  A    between atoms: C_28  and  O_29 
ROOT
HETATM    1  C   UNK N   1      29.592  42.487  56.738  0.00  0.00     0.144 C 
HETATM    2  C   UNK N   1      30.339  42.487  58.133  0.00  0.00     0.061 C 
HETATM    3  C   UNK N   1      30.305  43.825  58.970  0.00  0.00     0.068 C 
HETATM    4  C   UNK N   1      28.985  43.656  59.726  0.00  0.00     0.040 C 
HETATM    5  C   UNK N   1      29.008  42.206  60.206  0.00  0.00     0.015 C 
HETATM    6  C   UNK N   1      29.850  41.405  59.161  0.00  0.00    -0.005 C 
HETATM    7  C   UNK N   1      29.063  40.181  58.596  0.00  0.00     0.163 C 
HETATM    8  C   UNK N   1      27.677  40.421  58.039  0.00  0.00     0.008 C 
HETATM    9  C   UNK N   1      27.237  41.417  57.233  0.00  0.00    -0.083 C 
HETATM   10  C   UNK N   1      28.063  42.558  56.670  0.00  0.00     0.066 C 
HETATM   11  C   UNK N   1      25.773  41.424  56.854  0.00  0.00     0.043 C 
HETATM   12  C   UNK N   1      31.095  40.802  59.892  0.00  0.00     0.019 C 
ENDROOT
BRANCH   1  13
HETATM   13  O   UNK N   1      29.979  41.411  55.952  0.00  0.00    -0.311 OA
BRANCH  13  14
HETATM   14  C   UNK N   1      30.373  41.508  54.652  0.00  0.00     0.293 C 
HETATM   15  O   UNK N   1      31.552  41.668  54.371  0.00  0.00    -0.259 OA
BRANCH  14  16
HETATM   16  C   UNK N   1      29.370  41.417  53.572  0.00  0.00     0.039 A 
HETATM   17  C   UNK N   1      28.299  40.514  53.665  0.00  0.00     0.020 A 
HETATM   18  C   UNK N   1      27.372  40.411  52.623  0.00  0.00     0.038 A 
HETATM   19  C   UNK N   1      27.504  41.199  51.473  0.00  0.00     0.068 A 
HETATM   20  C   UNK N   1      28.569  42.118  51.389  0.00  0.00     0.038 A 
HETATM   21  C   UNK N   1      29.488  42.227  52.432  0.00  0.00     0.020 A 
BRANCH  19  22
HETATM   22  O   UNK N   1      26.603  41.041  50.468  0.00  0.00    -0.356 OA
HETATM   23  C   UNK N   1      25.595  41.933  50.167  0.00  0.00     0.210 C 
ENDBRANCH  19  22
ENDBRANCH  14  16
ENDBRANCH  13  14
ENDBRANCH   1  13
BRANCH   3  24
HETATM   24  O   UNK N   1      31.331  43.826  59.940  0.00  0.00    -0.389 OA
HETATM   25  H   UNK N   1      31.992  43.125  59.701  0.00  0.00     0.210 HD
ENDBRANCH   3  24
BRANCH   3  26
HETATM   26  C   UNK N   1      30.395  45.167  58.158  0.00  0.00     0.012 C 
HETATM   27  C   UNK N   1      30.205  46.397  59.065  0.00  0.00     0.012 C 
HETATM   28  C   UNK N   1      31.739  45.326  57.414  0.00  0.00     0.012 C 
ENDBRANCH   3  26
BRANCH   7  29
HETATM   29  O   UNK N   1      29.824  39.407  57.726  0.00  0.00    -0.312 OA
BRANCH  29  30
HETATM   30  C   UNK N   1      29.485  38.139  57.338  0.00  0.00     0.255 C 
HETATM   31  O   UNK N   1      29.258  37.266  58.165  0.00  0.00    -0.266 OA
HETATM   32  C   UNK N   1      29.402  37.797  55.886  0.00  0.00     0.126 C 
ENDBRANCH  29  30
ENDBRANCH   7  29
TORSDOF 8
ENDMDL
MODEL 5
REMARK VINA RESULT:      -5.2      2.112      5.704
REMARK  8 active torsions:
REMARK  status: ('A' for Active; 'I' for Inactive)
REMARK    1  A    between atoms: C_2  and  O_3 
REMARK    2  A    between atoms: C_2  and  C_25 
REMARK    3  A    between atoms: O_3  and  C_4 
REMARK    4  A    between atoms: C_6  and  O_7 
REMARK    5  A    between atoms: C_6  and  C_9 
REMARK    6  A    between atoms: C_15  and  O_16 
REMARK    7  A    between atoms: O_16  and  C_17 
REMARK    8  A    between atoms: C_28  and  O_29 
ROOT
HETATM    1  C   UNK N   1      29.529  52.846  40.094  0.00  0.00     0.144 C 
HETATM    2  C   UNK N   1      28.512  53.638  41.013  0.00  0.00     0.061 C 
HETATM    3  C   UNK N   1      29.072  54.887  41.798  0.00  0.00     0.068 C 
HETATM    4  C   UNK N   1      28.909  55.985  40.744  0.00  0.00     0.040 C 
HETATM    5  C   UNK N   1      27.517  55.743  40.162  0.00  0.00     0.015 C 
HETATM    6  C   UNK N   1      27.245  54.209  40.282  0.00  0.00    -0.005 C 
HETATM    7  C   UNK N   1      26.864  53.577  38.906  0.00  0.00     0.163 C 
HETATM    8  C   UNK N   1      27.779  53.829  37.727  0.00  0.00     0.008 C 
HETATM    9  C   UNK N   1      29.132  53.797  37.671  0.00  0.00    -0.083 C 
HETATM   10  C   UNK N   1      30.079  53.477  38.811  0.00  0.00     0.066 C 
HETATM   11  C   UNK N   1      29.790  54.126  36.350  0.00  0.00     0.043 C 
HETATM   12  C   UNK N   1      25.995  54.002  41.199  0.00  0.00     0.019 C 
ENDROOT
BRANCH   1  13
HETATM   13  O   UNK N   1      29.035  51.597  39.746  0.00  0.00    -0.311 OA
BRANCH  13  14
HETATM   14  C   UNK N   1      29.169  50.474  40.506  0.00  0.00     0.293 C 
HETATM   15  O   UNK N   1      28.280  49.636  40.538  0.00  0.00    -0.259 OA
BRANCH  14  16
HETATM   16  C   UNK N   1      30.399  50.267  41.297  0.00  0.00     0.039 A 
HETATM   17  C   UNK N   1      31.176  51.359  41.711  0.00  0.00     0.020 A 
HETATM   18  C   UNK N   1      32.357  51.152  42.432  0.00  0.00     0.038 A 
HETATM   19  C   UNK N   1      32.782  49.854  42.741  0.00  0.00     0.068 A 
HETATM   20  C   UNK N   1      31.992  48.758  42.340  0.00  0.00     0.038 A 
HETATM   21  C   UNK N   1      30.809  48.966  41.630  0.00  0.00     0.020 A 
BRANCH  19  22
HETATM   22  O   UNK N   1      33.954  49.695  43.410  0.00  0.00    -0.356 OA
HETATM   23  C   UNK N   1      34.999  50.595  43.392  0.00  0.00     0.210 C 
ENDBRANCH  19  22
ENDBRANCH  14  16
ENDBRANCH  13  14
ENDBRANCH   1  13
BRANCH   3  24
HETATM   24  O   UNK N   1      28.215  55.221  42.869  0.00  0.00    -0.389 OA
HETATM   25  H   UNK N   1      28.549  54.777  43.691  0.00  0.00     0.210 HD
ENDBRANCH   3  24
BRANCH   3  26
HETATM   26  C   UNK N   1      30.536  54.770  42.358  0.00  0.00     0.012 C 
HETATM   27  C   UNK N   1      31.493  55.756  41.662  0.00  0.00     0.012 C 
HETATM   28  C   UNK N   1      30.614  55.022  43.880  0.00  0.00     0.012 C 
ENDBRANCH   3  26
BRANCH   7  29
HETATM   29  O   UNK N   1      26.537  52.229  39.006  0.00  0.00    -0.312 OA
BRANCH  29  30
HETATM   30  C   UNK N   1      25.878  51.530  38.031  0.00  0.00     0.255 C 
HETATM   31  O   UNK N   1      26.442  50.648  37.395  0.00  0.00    -0.266 OA
HETATM   32  C   UNK N   1      24.453  51.848  37.714  0.00  0.00     0.126 C 
ENDBRANCH  29  30
ENDBRANCH   7  29
TORSDOF 8
ENDMDL
MODEL 6
REMARK VINA RESULT:      -5.1     19.677     22.915
REMARK  8 active torsions:
REMARK  status: ('A' for Active; 'I' for Inactive)
REMARK    1  A    between atoms: C_2  and  O_3 
REMARK    2  A    between atoms: C_2  and  C_25 
REMARK    3  A    between atoms: O_3  and  C_4 
REMARK    4  A    between atoms: C_6  and  O_7 
REMARK    5  A    between atoms: C_6  and  C_9 
REMARK    6  A    between atoms: C_15  and  O_16 
REMARK    7  A    between atoms: O_16  and  C_17 
REMARK    8  A    between atoms: C_28  and  O_29 
ROOT
HETATM    1  C   UNK N   1      31.560  43.677  58.601  0.00  0.00     0.144 C 
HETATM    2  C   UNK N   1      30.246  43.812  59.473  0.00  0.00     0.061 C 
HETATM    3  C   UNK N   1      29.429  45.156  59.344  0.00  0.00     0.068 C 
HETATM    4  C   UNK N   1      28.542  44.837  58.138  0.00  0.00     0.040 C 
HETATM    5  C   UNK N   1      28.047  43.415  58.400  0.00  0.00     0.015 C 
HETATM    6  C   UNK N   1      29.160  42.704  59.235  0.00  0.00    -0.005 C 
HETATM    7  C   UNK N   1      29.626  41.372  58.566  0.00  0.00     0.163 C 
HETATM    8  C   UNK N   1      30.045  41.414  57.112  0.00  0.00     0.008 C 
HETATM    9  C   UNK N   1      30.816  42.322  56.468  0.00  0.00    -0.083 C 
HETATM   10  C   UNK N   1      31.475  43.545  57.076  0.00  0.00     0.066 C 
HETATM   11  C   UNK N   1      31.047  42.128  54.986  0.00  0.00     0.043 C 
HETATM   12  C   UNK N   1      28.549  42.288  60.613  0.00  0.00     0.019 C 
ENDROOT
BRANCH   1  13
HETATM   13  O   UNK N   1      32.365  42.640  59.048  0.00  0.00    -0.311 OA
BRANCH  13  14
HETATM   14  C   UNK N   1      33.712  42.731  59.227  0.00  0.00     0.293 C 
HETATM   15  O   UNK N   1      34.482  42.303  58.379  0.00  0.00    -0.259 OA
BRANCH  14  16
HETATM   16  C   UNK N   1      34.249  43.353  60.454  0.00  0.00     0.039 A 
HETATM   17  C   UNK N   1      33.472  43.420  61.621  0.00  0.00     0.020 A 
HETATM   18  C   UNK N   1      33.976  44.040  62.769  0.00  0.00     0.038 A 
HETATM   19  C   UNK N   1      35.255  44.608  62.766  0.00  0.00     0.068 A 
HETATM   20  C   UNK N   1      36.042  44.524  61.600  0.00  0.00     0.038 A 
HETATM   21  C   UNK N   1      35.543  43.897  60.458  0.00  0.00     0.020 A 
BRANCH  19  22
HETATM   22  O   UNK N   1      35.692  45.234  63.891  0.00  0.00    -0.356 OA
HETATM   23  C   UNK N   1      36.648  46.229  63.916  0.00  0.00     0.210 C 
ENDBRANCH  19  22
ENDBRANCH  14  16
ENDBRANCH  13  14
ENDBRANCH   1  13
BRANCH   3  24
HETATM   24  O   UNK N   1      28.567  45.317  60.450  0.00  0.00    -0.389 OA
HETATM   25  H   UNK N   1      29.039  45.846  61.144  0.00  0.00     0.210 HD
ENDBRANCH   3  24
BRANCH   3  26
HETATM   26  C   UNK N   1      30.264  46.476  59.175  0.00  0.00     0.012 C 
HETATM   27  C   UNK N   1      30.230  46.992  57.724  0.00  0.00     0.012 C 
HETATM   28  C   UNK N   1      29.775  47.613  60.098  0.00  0.00     0.012 C 
ENDBRANCH   3  26
BRANCH   7  29
HETATM   29  O   UNK N   1      30.557  40.681  59.334  0.00  0.00    -0.312 OA
BRANCH  29  30
HETATM   30  C   UNK N   1      30.486  39.339  59.594  0.00  0.00     0.255 C 
HETATM   31  O   UNK N   1      31.472  38.715  59.962  0.00  0.00    -0.266 OA
HETATM   32  C   UNK N   1      29.195  38.609  59.414  0.00  0.00     0.126 C 
ENDBRANCH  29  30
ENDBRANCH   7  29
TORSDOF 8
ENDMDL
MODEL 7
REMARK VINA RESULT:      -5.1      2.018      5.325
REMARK  8 active torsions:
REMARK  status: ('A' for Active; 'I' for Inactive)
REMARK    1  A    between atoms: C_2  and  O_3 
REMARK    2  A    between atoms: C_2  and  C_25 
REMARK    3  A    between atoms: O_3  and  C_4 
REMARK    4  A    between atoms: C_6  and  O_7 
REMARK    5  A    between atoms: C_6  and  C_9 
REMARK    6  A    between atoms: C_15  and  O_16 
REMARK    7  A    between atoms: O_16  and  C_17 
REMARK    8  A    between atoms: C_28  and  O_29 
ROOT
HETATM    1  C   UNK N   1      27.944  55.123  38.696  0.00  0.00     0.144 C 
HETATM    2  C   UNK N   1      27.689  55.800  40.104  0.00  0.00     0.061 C 
HETATM    3  C   UNK N   1      27.338  57.338  40.112  0.00  0.00     0.068 C 
HETATM    4  C   UNK N   1      25.822  57.286  39.912  0.00  0.00     0.040 C 
HETATM    5  C   UNK N   1      25.355  56.174  40.850  0.00  0.00     0.015 C 
HETATM    6  C   UNK N   1      26.540  55.161  40.961  0.00  0.00    -0.005 C 
HETATM    7  C   UNK N   1      26.097  53.707  40.602  0.00  0.00     0.163 C 
HETATM    8  C   UNK N   1      25.376  53.486  39.291  0.00  0.00     0.008 C 
HETATM    9  C   UNK N   1      25.650  53.993  38.065  0.00  0.00    -0.083 C 
HETATM   10  C   UNK N   1      26.793  54.924  37.704  0.00  0.00     0.066 C 
HETATM   11  C   UNK N   1      24.729  53.622  36.925  0.00  0.00     0.043 C 
HETATM   12  C   UNK N   1      26.996  55.102  42.457  0.00  0.00     0.019 C 
ENDROOT
BRANCH   1  13
HETATM   13  O   UNK N   1      28.577  53.896  38.826  0.00  0.00    -0.311 OA
BRANCH  13  14
HETATM   14  C   UNK N   1      29.922  53.733  38.973  0.00  0.00     0.293 C 
HETATM   15  O   UNK N   1      30.685  54.016  38.061  0.00  0.00    -0.259 OA
BRANCH  14  16
HETATM   16  C   UNK N   1      30.463  53.209  40.244  0.00  0.00     0.039 A 
HETATM   17  C   UNK N   1      30.530  54.026  41.383  0.00  0.00     0.020 A 
HETATM   18  C   UNK N   1      31.073  53.533  42.573  0.00  0.00     0.038 A 
HETATM   19  C   UNK N   1      31.564  52.224  42.642  0.00  0.00     0.068 A 
HETATM   20  C   UNK N   1      31.481  51.398  41.503  0.00  0.00     0.038 A 
HETATM   21  C   UNK N   1      30.929  51.887  40.318  0.00  0.00     0.020 A 
BRANCH  19  22
HETATM   22  O   UNK N   1      32.120  51.796  43.806  0.00  0.00    -0.356 OA
HETATM   23  C   UNK N   1      32.651  50.540  44.010  0.00  0.00     0.210 C 
ENDBRANCH  19  22
ENDBRANCH  14  16
ENDBRANCH  13  14
ENDBRANCH   1  13
BRANCH   3  24
HETATM   24  O   UNK N   1      27.560  57.887  41.394  0.00  0.00    -0.389 OA
HETATM   25  H   UNK N   1      27.063  57.345  42.060  0.00  0.00     0.210 HD
ENDBRANCH   3  24
BRANCH   3  26
HETATM   26  C   UNK N   1      28.079  58.237  39.058  0.00  0.00     0.012 C 
HETATM   27  C   UNK N   1      27.561  59.687  39.080  0.00  0.00     0.012 C 
HETATM   28  C   UNK N   1      29.608  58.272  39.273  0.00  0.00     0.012 C 
ENDBRANCH   3  26
BRANCH   7  29
HETATM   29  O   UNK N   1      27.116  52.776  40.775  0.00  0.00    -0.312 OA
BRANCH  29  30
HETATM   30  C   UNK N   1      26.965  51.432  40.566  0.00  0.00     0.255 C 
HETATM   31  O   UNK N   1      27.668  50.836  39.760  0.00  0.00    -0.266 OA
HETATM   32  C   UNK N   1      25.918  50.671  41.312  0.00  0.00     0.126 C 
ENDBRANCH  29  30
ENDBRANCH   7  29
TORSDOF 8
ENDMDL
MODEL 8
REMARK VINA RESULT:      -4.9     17.985     20.894
REMARK  8 active torsions:
REMARK  status: ('A' for Active; 'I' for Inactive)
REMARK    1  A    between atoms: C_2  and  O_3 
REMARK    2  A    between atoms: C_2  and  C_25 
REMARK    3  A    between atoms: O_3  and  C_4 
REMARK    4  A    between atoms: C_6  and  O_7 
REMARK    5  A    between atoms: C_6  and  C_9 
REMARK    6  A    between atoms: C_15  and  O_16 
REMARK    7  A    between atoms: O_16  and  C_17 
REMARK    8  A    between atoms: C_28  and  O_29 
ROOT
HETATM    1  C   UNK N   1      29.893  41.579  55.170  0.00  0.00     0.144 C 
HETATM    2  C   UNK N   1      28.489  42.285  55.356  0.00  0.00     0.061 C 
HETATM    3  C   UNK N   1      27.619  42.513  54.059  0.00  0.00     0.068 C 
HETATM    4  C   UNK N   1      26.885  41.172  53.968  0.00  0.00     0.040 C 
HETATM    5  C   UNK N   1      26.441  40.887  55.402  0.00  0.00     0.015 C 
HETATM    6  C   UNK N   1      27.496  41.565  56.336  0.00  0.00    -0.005 C 
HETATM    7  C   UNK N   1      28.102  40.552  57.358  0.00  0.00     0.163 C 
HETATM    8  C   UNK N   1      28.671  39.255  56.825  0.00  0.00     0.008 C 
HETATM    9  C   UNK N   1      29.457  39.045  55.741  0.00  0.00    -0.083 C 
HETATM   10  C   UNK N   1      29.980  40.099  54.783  0.00  0.00     0.066 C 
HETATM   11  C   UNK N   1      29.854  37.621  55.423  0.00  0.00     0.043 C 
HETATM   12  C   UNK N   1      26.764  42.644  57.200  0.00  0.00     0.019 C 
ENDROOT
BRANCH   1  13
HETATM   13  O   UNK N   1      30.701  41.749  56.285  0.00  0.00    -0.311 OA
BRANCH  13  14
HETATM   14  C   UNK N   1      31.428  42.871  56.548  0.00  0.00     0.293 C 
HETATM   15  O   UNK N   1      32.369  43.183  55.833  0.00  0.00    -0.259 OA
BRANCH  14  16
HETATM   16  C   UNK N   1      31.075  43.719  57.705  0.00  0.00     0.039 A 
HETATM   17  C   UNK N   1      30.194  44.801  57.558  0.00  0.00     0.020 A 
HETATM   18  C   UNK N   1      29.891  45.618  58.652  0.00  0.00     0.038 A 
HETATM   19  C   UNK N   1      30.469  45.373  59.903  0.00  0.00     0.068 A 
HETATM   20  C   UNK N   1      31.340  44.275  60.055  0.00  0.00     0.038 A 
HETATM   21  C   UNK N   1      31.634  43.455  58.966  0.00  0.00     0.020 A 
BRANCH  19  22
HETATM   22  O   UNK N   1      30.179  46.213  60.931  0.00  0.00    -0.356 OA
HETATM   23  C   UNK N   1      29.942  45.815  62.230  0.00  0.00     0.210 C 
ENDBRANCH  19  22
ENDBRANCH  14  16
ENDBRANCH  13  14
ENDBRANCH   1  13
BRANCH   3  24
HETATM   24  O   UNK N   1      26.636  43.499  54.292  0.00  0.00    -0.389 OA
HETATM   25  H   UNK N   1      26.325  43.419  55.231  0.00  0.00     0.210 HD
ENDBRANCH   3  24
BRANCH   3  26
HETATM   26  C   UNK N   1      28.395  42.892  52.747  0.00  0.00     0.012 C 
HETATM   27  C   UNK N   1      28.556  41.681  51.809  0.00  0.00     0.012 C 
HETATM   28  C   UNK N   1      27.705  44.022  51.952  0.00  0.00     0.012 C 
ENDBRANCH   3  26
BRANCH   7  29
HETATM   29  O   UNK N   1      28.982  41.152  58.253  0.00  0.00    -0.312 OA
BRANCH  29  30
HETATM   30  C   UNK N   1      29.210  40.693  59.522  0.00  0.00     0.255 C 
HETATM   31  O   UNK N   1      30.334  40.369  59.883  0.00  0.00    -0.266 OA
HETATM   32  C   UNK N   1      28.077  40.564  60.487  0.00  0.00     0.126 C 
ENDBRANCH  29  30
ENDBRANCH   7  29
TORSDOF 8
ENDMDL
MODEL 9
REMARK VINA RESULT:      -4.9     18.266     20.782
REMARK  8 active torsions:
REMARK  status: ('A' for Active; 'I' for Inactive)
REMARK    1  A    between atoms: C_2  and  O_3 
REMARK    2  A    between atoms: C_2  and  C_25 
REMARK    3  A    between atoms: O_3  and  C_4 
REMARK    4  A    between atoms: C_6  and  O_7 
REMARK    5  A    between atoms: C_6  and  C_9 
REMARK    6  A    between atoms: C_15  and  O_16 
REMARK    7  A    between atoms: O_16  and  C_17 
REMARK    8  A    between atoms: C_28  and  O_29 
ROOT
HETATM    1  C   UNK N   1      28.879  42.856  59.201  0.00  0.00     0.144 C 
HETATM    2  C   UNK N   1      29.199  44.201  58.431  0.00  0.00     0.061 C 
HETATM    3  C   UNK N   1      28.091  45.324  58.448  0.00  0.00     0.068 C 
HETATM    4  C   UNK N   1      28.432  46.043  59.755  0.00  0.00     0.040 C 
HETATM    5  C   UNK N   1      29.954  46.175  59.726  0.00  0.00     0.015 C 
HETATM    6  C   UNK N   1      30.490  44.959  58.904  0.00  0.00    -0.005 C 
HETATM    7  C   UNK N   1      31.552  44.140  59.703  0.00  0.00     0.163 C 
HETATM    8  C   UNK N   1      31.193  43.677  61.098  0.00  0.00     0.008 C 
HETATM    9  C   UNK N   1      30.039  43.131  61.550  0.00  0.00    -0.083 C 
HETATM   10  C   UNK N   1      28.797  42.832  60.731  0.00  0.00     0.066 C 
HETATM   11  C   UNK N   1      29.947  42.789  63.020  0.00  0.00     0.043 C 
HETATM   12  C   UNK N   1      31.243  45.510  57.649  0.00  0.00     0.019 C 
ENDROOT
BRANCH   1  13
HETATM   13  O   UNK N   1      29.743  41.837  58.831  0.00  0.00    -0.311 OA
BRANCH  13  14
HETATM   14  C   UNK N   1      29.465  40.893  57.889  0.00  0.00     0.293 C 
HETATM   15  O   UNK N   1      29.190  39.749  58.218  0.00  0.00    -0.259 OA
BRANCH  14  16
HETATM   16  C   UNK N   1      29.495  41.254  56.456  0.00  0.00     0.039 A 
HETATM   17  C   UNK N   1      28.335  41.167  55.672  0.00  0.00     0.020 A 
HETATM   18  C   UNK N   1      28.379  41.479  54.310  0.00  0.00     0.038 A 
HETATM   19  C   UNK N   1      29.581  41.875  53.710  0.00  0.00     0.068 A 
HETATM   20  C   UNK N   1      30.742  41.980  54.502  0.00  0.00     0.038 A 
HETATM   21  C   UNK N   1      30.695  41.678  55.863  0.00  0.00     0.020 A 
BRANCH  19  22
HETATM   22  O   UNK N   1      29.590  42.133  52.376  0.00  0.00    -0.356 OA
HETATM   23  C   UNK N   1      28.505  42.588  51.655  0.00  0.00     0.210 C 
ENDBRANCH  19  22
ENDBRANCH  14  16
ENDBRANCH  13  14
ENDBRANCH   1  13
BRANCH   3  24
HETATM   24  O   UNK N   1      28.312  46.250  57.405  0.00  0.00    -0.389 OA
HETATM   25  H   UNK N   1      27.506  46.273  56.827  0.00  0.00     0.210 HD
ENDBRANCH   3  24
BRANCH   3  26
HETATM   26  C   UNK N   1      26.597  44.842  58.369  0.00  0.00     0.012 C 
HETATM   27  C   UNK N   1      25.613  45.979  58.701  0.00  0.00     0.012 C 
HETATM   28  C   UNK N   1      26.225  44.278  56.981  0.00  0.00     0.012 C 
ENDBRANCH   3  26
BRANCH   7  29
HETATM   29  O   UNK N   1      32.103  43.103  58.959  0.00  0.00    -0.312 OA
BRANCH  29  30
HETATM   30  C   UNK N   1      33.388  42.656  59.108  0.00  0.00     0.255 C 
HETATM   31  O   UNK N   1      34.332  43.283  58.644  0.00  0.00    -0.266 OA
HETATM   32  C   UNK N   1      33.658  41.376  59.830  0.00  0.00     0.126 C 
ENDBRANCH  29  30
ENDBRANCH   7  29
TORSDOF 8
ENDMDL
