MODEL 1
REMARK VINA RESULT:      -6.0      0.000      0.000
REMARK  8 active torsions:
REMARK  status: ('A' for Active; 'I' for Inactive)
REMARK    1  A    between atoms: C_2  and  O_3 
REMARK    2  A    between atoms: C_2  and  C_25 
REMARK    3  A    between atoms: O_3  and  C_4 
REMARK    4  A    between atoms: C_5  and  O_6 
REMARK    5  A    between atoms: C_9  and  O_10 
REMARK    6  A    between atoms: C_13  and  O_14 
REMARK    7  A    between atoms: C_13  and  C_16 
REMARK    8  A    between atoms: C_28  and  O_29 
ROOT
HETATM    1  C   UNK N   1      31.245  53.090  43.013  0.00  0.00     0.167 C 
HETATM    2  C   UNK N   1      31.135  54.531  43.601  0.00  0.00     0.083 C 
HETATM    3  C   UNK N   1      29.669  55.042  43.542  0.00  0.00     0.072 C 
HETATM    4  C   UNK N   1      28.973  55.275  42.197  0.00  0.00     0.129 C 
HETATM    5  C   UNK N   1      28.933  54.027  41.265  0.00  0.00     0.057 C 
HETATM    6  C   UNK N   1      27.870  54.092  40.097  0.00  0.00     0.067 C 
HETATM    7  C   UNK N   1      28.504  53.230  38.960  0.00  0.00     0.039 C 
HETATM    8  C   UNK N   1      29.745  52.605  39.567  0.00  0.00     0.012 C 
HETATM    9  C   UNK N   1      30.271  53.655  40.567  0.00  0.00    -0.033 C 
HETATM   10  C   UNK N   1      31.355  52.988  41.477  0.00  0.00     0.045 C 
HETATM   11  C   UNK N   1      30.915  54.855  39.805  0.00  0.00     0.016 C 
HETATM   12  C   UNK N   1      31.514  54.502  45.109  0.00  0.00     0.049 C 
ENDROOT
BRANCH   1  13
HETATM   13  O   UNK N   1      32.376  52.462  43.518  0.00  0.00    -0.309 OA
BRANCH  13  14
HETATM   14  C   UNK N   1      32.418  51.176  43.973  0.00  0.00     0.293 C 
HETATM   15  O   UNK N   1      31.545  50.748  44.714  0.00  0.00    -0.259 OA
BRANCH  14  16
HETATM   16  C   UNK N   1      33.576  50.326  43.628  0.00  0.00     0.039 A 
HETATM   17  C   UNK N   1      34.853  50.892  43.454  0.00  0.00     0.020 A 
HETATM   18  C   UNK N   1      35.940  50.082  43.113  0.00  0.00     0.037 A 
HETATM   19  C   UNK N   1      35.766  48.700  42.955  0.00  0.00     0.065 A 
HETATM   20  C   UNK N   1      34.500  48.134  43.132  0.00  0.00     0.037 A 
HETATM   21  C   UNK N   1      33.409  48.942  43.461  0.00  0.00     0.020 A 
BRANCH  19  22
HETATM   22  O   UNK N   1      36.808  47.908  42.632  0.00  0.00    -0.361 OA
HETATM   23  H   UNK N   1      37.714  48.130  42.893  0.00  0.00     0.217 HD
ENDBRANCH  19  22
ENDBRANCH  14  16
ENDBRANCH  13  14
ENDBRANCH   1  13
BRANCH   2  24
HETATM   24  O   UNK N   1      32.023  55.391  42.930  0.00  0.00    -0.388 OA
HETATM   25  H   UNK N   1      32.505  55.926  43.614  0.00  0.00     0.210 HD
ENDBRANCH   2  24
BRANCH   4  26
HETATM   26  O   UNK N   1      27.658  55.666  42.515  0.00  0.00    -0.395 OA
HETATM   27  H   UNK N   1      27.109  54.845  42.620  0.00  0.00     0.210 HD
ENDBRANCH   4  26
BRANCH   6  28
HETATM   28  O   UNK N   1      27.783  55.435  39.659  0.00  0.00    -0.389 OA
HETATM   29  H   UNK N   1      27.406  55.995  40.386  0.00  0.00     0.210 HD
ENDBRANCH   6  28
BRANCH   6  30
HETATM   30  C   UNK N   1      26.433  53.598  40.547  0.00  0.00     0.012 C 
HETATM   31  C   UNK N   1      25.327  54.055  39.574  0.00  0.00     0.012 C 
HETATM   32  C   UNK N   1      26.304  52.068  40.730  0.00  0.00     0.012 C 
ENDBRANCH   6  30
TORSDOF 8
ENDMDL
MODEL 2
REMARK VINA RESULT:      -5.9      8.475     14.133
REMARK  8 active torsions:
REMARK  status: ('A' for Active; 'I' for Inactive)
REMARK    1  A    between atoms: C_2  and  O_3 
REMARK    2  A    between atoms: C_2  and  C_25 
REMARK    3  A    between atoms: O_3  and  C_4 
REMARK    4  A    between atoms: C_5  and  O_6 
REMARK    5  A    between atoms: C_9  and  O_10 
REMARK    6  A    between atoms: C_13  and  O_14 
REMARK    7  A    between atoms: C_13  and  C_16 
REMARK    8  A    between atoms: C_28  and  O_29 
ROOT
HETATM    1  C   UNK N   1      39.534  47.391  47.369  0.00  0.00     0.167 C 
HETATM    2  C   UNK N   1      38.964  46.065  46.778  0.00  0.00     0.083 C 
HETATM    3  C   UNK N   1      38.759  45.003  47.895  0.00  0.00     0.072 C 
HETATM    4  C   UNK N   1      39.956  44.432  48.663  0.00  0.00     0.129 C 
HETATM    5  C   UNK N   1      40.840  45.502  49.371  0.00  0.00     0.057 C 
HETATM    6  C   UNK N   1      41.790  44.947  50.505  0.00  0.00     0.067 C 
HETATM    7  C   UNK N   1      43.009  45.924  50.489  0.00  0.00     0.039 C 
HETATM    8  C   UNK N   1      42.631  47.029  49.524  0.00  0.00     0.012 C 
HETATM    9  C   UNK N   1      41.767  46.340  48.447  0.00  0.00    -0.033 C 
HETATM   10  C   UNK N   1      41.061  47.439  47.585  0.00  0.00     0.045 C 
HETATM   11  C   UNK N   1      42.658  45.458  47.518  0.00  0.00     0.016 C 
HETATM   12  C   UNK N   1      37.553  46.331  46.182  0.00  0.00     0.049 C 
ENDROOT
BRANCH   1  13
HETATM   13  O   UNK N   1      39.237  48.449  46.521  0.00  0.00    -0.309 OA
BRANCH  13  14
HETATM   14  C   UNK N   1      40.007  48.844  45.466  0.00  0.00     0.293 C 
HETATM   15  O   UNK N   1      41.223  48.920  45.576  0.00  0.00    -0.259 OA
BRANCH  14  16
HETATM   16  C   UNK N   1      39.351  49.262  44.210  0.00  0.00     0.039 A 
HETATM   17  C   UNK N   1      39.871  50.327  43.450  0.00  0.00     0.020 A 
HETATM   18  C   UNK N   1      39.235  50.725  42.271  0.00  0.00     0.037 A 
HETATM   19  C   UNK N   1      38.082  50.057  41.833  0.00  0.00     0.065 A 
HETATM   20  C   UNK N   1      37.566  48.996  42.583  0.00  0.00     0.037 A 
HETATM   21  C   UNK N   1      38.192  48.603  43.768  0.00  0.00     0.020 A 
BRANCH  19  22
HETATM   22  O   UNK N   1      37.463  50.429  40.694  0.00  0.00    -0.361 OA
HETATM   23  H   UNK N   1      37.942  50.499  39.856  0.00  0.00     0.217 HD
ENDBRANCH  19  22
ENDBRANCH  14  16
ENDBRANCH  13  14
ENDBRANCH   1  13
BRANCH   2  24
HETATM   24  O   UNK N   1      39.805  45.598  45.751  0.00  0.00    -0.388 OA
HETATM   25  H   UNK N   1      39.473  44.707  45.466  0.00  0.00     0.210 HD
ENDBRANCH   2  24
BRANCH   4  26
HETATM   26  O   UNK N   1      39.406  43.565  49.626  0.00  0.00    -0.395 OA
HETATM   27  H   UNK N   1      38.422  43.699  49.636  0.00  0.00     0.210 HD
ENDBRANCH   4  26
BRANCH   6  28
HETATM   28  O   UNK N   1      42.230  43.660  50.116  0.00  0.00    -0.389 OA
HETATM   29  H   UNK N   1      43.050  43.425  50.623  0.00  0.00     0.210 HD
ENDBRANCH   6  28
BRANCH   6  30
HETATM   30  C   UNK N   1      41.071  44.845  51.914  0.00  0.00     0.012 C 
HETATM   31  C   UNK N   1      40.819  43.384  52.337  0.00  0.00     0.012 C 
HETATM   32  C   UNK N   1      41.815  45.554  53.071  0.00  0.00     0.012 C 
ENDBRANCH   6  30
TORSDOF 8
ENDMDL
MODEL 3
REMARK VINA RESULT:      -5.7     14.524     17.633
REMARK  8 active torsions:
REMARK  status: ('A' for Active; 'I' for Inactive)
REMARK    1  A    between atoms: C_2  and  O_3 
REMARK    2  A    between atoms: C_2  and  C_25 
REMARK    3  A    between atoms: O_3  and  C_4 
REMARK    4  A    between atoms: C_5  and  O_6 
REMARK    5  A    between atoms: C_9  and  O_10 
REMARK    6  A    between atoms: C_13  and  O_14 
REMARK    7  A    between atoms: C_13  and  C_16 
REMARK    8  A    between atoms: C_28  and  O_29 
ROOT
HETATM    1  C   UNK N   1      29.832  43.931  57.667  0.00  0.00     0.167 C 
HETATM    2  C   UNK N   1      31.069  42.982  57.617  0.00  0.00     0.083 C 
HETATM    3  C   UNK N   1      31.444  42.638  56.149  0.00  0.00     0.072 C 
HETATM    4  C   UNK N   1      30.486  41.834  55.263  0.00  0.00     0.129 C 
HETATM    5  C   UNK N   1      29.067  42.459  55.112  0.00  0.00     0.057 C 
HETATM    6  C   UNK N   1      28.220  41.921  53.891  0.00  0.00     0.067 C 
HETATM    7  C   UNK N   1      26.739  42.053  54.371  0.00  0.00     0.039 C 
HETATM    8  C   UNK N   1      26.804  42.785  55.696  0.00  0.00     0.012 C 
HETATM    9  C   UNK N   1      28.127  42.322  56.342  0.00  0.00    -0.033 C 
HETATM   10  C   UNK N   1      28.450  43.253  57.557  0.00  0.00     0.045 C 
HETATM   11  C   UNK N   1      27.999  40.851  56.848  0.00  0.00     0.016 C 
HETATM   12  C   UNK N   1      32.305  43.717  58.209  0.00  0.00     0.049 C 
ENDROOT
BRANCH   1  13
HETATM   13  O   UNK N   1      29.821  44.625  58.870  0.00  0.00    -0.309 OA
BRANCH  13  14
HETATM   14  C   UNK N   1      28.979  45.657  59.168  0.00  0.00     0.293 C 
HETATM   15  O   UNK N   1      28.198  45.574  60.105  0.00  0.00    -0.259 OA
BRANCH  14  16
HETATM   16  C   UNK N   1      28.962  46.849  58.295  0.00  0.00     0.039 A 
HETATM   17  C   UNK N   1      30.163  47.468  57.903  0.00  0.00     0.020 A 
HETATM   18  C   UNK N   1      30.136  48.604  57.089  0.00  0.00     0.037 A 
HETATM   19  C   UNK N   1      28.910  49.125  56.649  0.00  0.00     0.065 A 
HETATM   20  C   UNK N   1      27.715  48.509  57.033  0.00  0.00     0.037 A 
HETATM   21  C   UNK N   1      27.738  47.381  57.855  0.00  0.00     0.020 A 
BRANCH  19  22
HETATM   22  O   UNK N   1      28.872  50.217  55.859  0.00  0.00    -0.361 OA
HETATM   23  H   UNK N   1      28.290  50.265  55.088  0.00  0.00     0.217 HD
ENDBRANCH  19  22
ENDBRANCH  14  16
ENDBRANCH  13  14
ENDBRANCH   1  13
BRANCH   2  24
HETATM   24  O   UNK N   1      30.820  41.830  58.385  0.00  0.00    -0.388 OA
HETATM   25  H   UNK N   1      29.842  41.776  58.546  0.00  0.00     0.210 HD
ENDBRANCH   2  24
BRANCH   4  26
HETATM   26  O   UNK N   1      31.106  41.768  54.001  0.00  0.00    -0.395 OA
HETATM   27  H   UNK N   1      30.686  41.028  53.489  0.00  0.00     0.210 HD
ENDBRANCH   4  26
BRANCH   6  28
HETATM   28  O   UNK N   1      28.525  40.551  53.718  0.00  0.00    -0.389 OA
HETATM   29  H   UNK N   1      28.433  40.081  54.587  0.00  0.00     0.210 HD
ENDBRANCH   6  28
BRANCH   6  30
HETATM   30  C   UNK N   1      28.526  42.696  52.542  0.00  0.00     0.012 C 
HETATM   31  C   UNK N   1      28.732  41.737  51.353  0.00  0.00     0.012 C 
HETATM   32  C   UNK N   1      27.453  43.734  52.137  0.00  0.00     0.012 C 
ENDBRANCH   6  30
TORSDOF 8
ENDMDL
MODEL 4
REMARK VINA RESULT:      -5.5      2.616      4.349
REMARK  8 active torsions:
REMARK  status: ('A' for Active; 'I' for Inactive)
REMARK    1  A    between atoms: C_2  and  O_3 
REMARK    2  A    between atoms: C_2  and  C_25 
REMARK    3  A    between atoms: O_3  and  C_4 
REMARK    4  A    between atoms: C_5  and  O_6 
REMARK    5  A    between atoms: C_9  and  O_10 
REMARK    6  A    between atoms: C_13  and  O_14 
REMARK    7  A    between atoms: C_13  and  C_16 
REMARK    8  A    between atoms: C_28  and  O_29 
ROOT
HETATM    1  C   UNK N   1      28.139  54.962  42.020  0.00  0.00     0.167 C 
HETATM    2  C   UNK N   1      27.302  56.094  41.347  0.00  0.00     0.083 C 
HETATM    3  C   UNK N   1      25.905  55.566  40.913  0.00  0.00     0.072 C 
HETATM    4  C   UNK N   1      25.775  54.491  39.829  0.00  0.00     0.129 C 
HETATM    5  C   UNK N   1      26.556  53.176  40.126  0.00  0.00     0.057 C 
HETATM    6  C   UNK N   1      26.103  51.918  39.283  0.00  0.00     0.067 C 
HETATM    7  C   UNK N   1      27.400  51.056  39.164  0.00  0.00     0.039 C 
HETATM    8  C   UNK N   1      28.425  51.738  40.047  0.00  0.00     0.012 C 
HETATM    9  C   UNK N   1      28.098  53.243  39.947  0.00  0.00    -0.033 C 
HETATM   10  C   UNK N   1      28.884  54.007  41.064  0.00  0.00     0.045 C 
HETATM   11  C   UNK N   1      28.525  53.800  38.553  0.00  0.00     0.016 C 
HETATM   12  C   UNK N   1      27.026  57.218  42.385  0.00  0.00     0.049 C 
ENDROOT
BRANCH   1  13
HETATM   13  O   UNK N   1      29.113  55.521  42.835  0.00  0.00    -0.309 OA
BRANCH  13  14
HETATM   14  C   UNK N   1      30.443  55.582  42.534  0.00  0.00     0.293 C 
HETATM   15  O   UNK N   1      30.838  56.248  41.587  0.00  0.00    -0.259 OA
BRANCH  14  16
HETATM   16  C   UNK N   1      31.398  54.766  43.312  0.00  0.00     0.039 A 
HETATM   17  C   UNK N   1      32.347  55.378  44.150  0.00  0.00     0.020 A 
HETATM   18  C   UNK N   1      33.256  54.599  44.872  0.00  0.00     0.037 A 
HETATM   19  C   UNK N   1      33.217  53.200  44.771  0.00  0.00     0.065 A 
HETATM   20  C   UNK N   1      32.272  52.588  43.943  0.00  0.00     0.037 A 
HETATM   21  C   UNK N   1      31.370  53.365  43.212  0.00  0.00     0.020 A 
BRANCH  19  22
HETATM   22  O   UNK N   1      34.086  52.438  45.466  0.00  0.00    -0.361 OA
HETATM   23  H   UNK N   1      34.974  52.752  45.686  0.00  0.00     0.217 HD
ENDBRANCH  19  22
ENDBRANCH  14  16
ENDBRANCH  13  14
ENDBRANCH   1  13
BRANCH   2  24
HETATM   24  O   UNK N   1      28.019  56.643  40.268  0.00  0.00    -0.388 OA
HETATM   25  H   UNK N   1      28.275  55.899  39.661  0.00  0.00     0.210 HD
ENDBRANCH   2  24
BRANCH   4  26
HETATM   26  O   UNK N   1      24.399  54.210  39.741  0.00  0.00    -0.395 OA
HETATM   27  H   UNK N   1      24.288  53.361  39.236  0.00  0.00     0.210 HD
ENDBRANCH   4  26
BRANCH   6  28
HETATM   28  O   UNK N   1      25.732  52.367  37.994  0.00  0.00    -0.389 OA
HETATM   29  H   UNK N   1      26.401  53.025  37.669  0.00  0.00     0.210 HD
ENDBRANCH   6  28
BRANCH   6  30
HETATM   30  C   UNK N   1      24.882  51.148  39.936  0.00  0.00     0.012 C 
HETATM   31  C   UNK N   1      24.055  50.372  38.891  0.00  0.00     0.012 C 
HETATM   32  C   UNK N   1      25.269  50.162  41.064  0.00  0.00     0.012 C 
ENDBRANCH   6  30
TORSDOF 8
ENDMDL
MODEL 5
REMARK VINA RESULT:      -5.5      2.694      4.759
REMARK  8 active torsions:
REMARK  status: ('A' for Active; 'I' for Inactive)
REMARK    1  A    between atoms: C_2  and  O_3 
REMARK    2  A    between atoms: C_2  and  C_25 
REMARK    3  A    between atoms: O_3  and  C_4 
REMARK    4  A    between atoms: C_5  and  O_6 
REMARK    5  A    between atoms: C_9  and  O_10 
REMARK    6  A    between atoms: C_13  and  O_14 
REMARK    7  A    between atoms: C_13  and  C_16 
REMARK    8  A    between atoms: C_28  and  O_29 
ROOT
HETATM    1  C   UNK N   1      28.182  53.246  40.314  0.00  0.00     0.167 C 
HETATM    2  C   UNK N   1      26.673  52.855  40.270  0.00  0.00     0.083 C 
HETATM    3  C   UNK N   1      25.842  53.934  39.521  0.00  0.00     0.072 C 
HETATM    4  C   UNK N   1      25.708  55.353  40.086  0.00  0.00     0.129 C 
HETATM    5  C   UNK N   1      27.064  56.080  40.334  0.00  0.00     0.057 C 
HETATM    6  C   UNK N   1      26.967  57.650  40.487  0.00  0.00     0.067 C 
HETATM    7  C   UNK N   1      28.158  58.012  41.431  0.00  0.00     0.039 C 
HETATM    8  C   UNK N   1      28.937  56.725  41.615  0.00  0.00     0.012 C 
HETATM    9  C   UNK N   1      27.874  55.607  41.573  0.00  0.00    -0.033 C 
HETATM   10  C   UNK N   1      28.598  54.227  41.431  0.00  0.00     0.045 C 
HETATM   11  C   UNK N   1      27.033  55.608  42.887  0.00  0.00     0.016 C 
HETATM   12  C   UNK N   1      26.504  51.545  39.448  0.00  0.00     0.049 C 
ENDROOT
BRANCH   1  13
HETATM   13  O   UNK N   1      28.957  52.109  40.498  0.00  0.00    -0.309 OA
BRANCH  13  14
HETATM   14  C   UNK N   1      30.315  52.062  40.377  0.00  0.00     0.293 C 
HETATM   15  O   UNK N   1      30.883  52.673  39.483  0.00  0.00    -0.259 OA
BRANCH  14  16
HETATM   16  C   UNK N   1      31.091  51.194  41.288  0.00  0.00     0.039 A 
HETATM   17  C   UNK N   1      31.077  49.796  41.130  0.00  0.00     0.020 A 
HETATM   18  C   UNK N   1      31.803  48.982  42.005  0.00  0.00     0.037 A 
HETATM   19  C   UNK N   1      32.557  49.558  43.038  0.00  0.00     0.065 A 
HETATM   20  C   UNK N   1      32.577  50.947  43.194  0.00  0.00     0.037 A 
HETATM   21  C   UNK N   1      31.844  51.762  42.328  0.00  0.00     0.020 A 
BRANCH  19  22
HETATM   22  O   UNK N   1      33.265  48.783  43.885  0.00  0.00    -0.361 OA
HETATM   23  H   UNK N   1      34.210  48.620  43.755  0.00  0.00     0.217 HD
ENDBRANCH  19  22
ENDBRANCH  14  16
ENDBRANCH  13  14
ENDBRANCH   1  13
BRANCH   2  24
HETATM   24  O   UNK N   1      26.197  52.632  41.575  0.00  0.00    -0.388 OA
HETATM   25  H   UNK N   1      26.683  51.850  41.947  0.00  0.00     0.210 HD
ENDBRANCH   2  24
BRANCH   4  26
HETATM   26  O   UNK N   1      24.959  56.068  39.134  0.00  0.00    -0.395 OA
HETATM   27  H   UNK N   1      24.029  55.718  39.146  0.00  0.00     0.210 HD
ENDBRANCH   4  26
BRANCH   6  28
HETATM   28  O   UNK N   1      25.752  57.951  41.146  0.00  0.00    -0.389 OA
HETATM   29  H   UNK N   1      25.126  57.188  41.048  0.00  0.00     0.210 HD
ENDBRANCH   6  28
BRANCH   6  30
HETATM   30  C   UNK N   1      27.004  58.406  39.094  0.00  0.00     0.012 C 
HETATM   31  C   UNK N   1      27.603  59.822  39.214  0.00  0.00     0.012 C 
HETATM   32  C   UNK N   1      27.766  57.659  37.974  0.00  0.00     0.012 C 
ENDBRANCH   6  30
TORSDOF 8
ENDMDL
MODEL 6
REMARK VINA RESULT:      -5.5     15.665     19.082
REMARK  8 active torsions:
REMARK  status: ('A' for Active; 'I' for Inactive)
REMARK    1  A    between atoms: C_2  and  O_3 
REMARK    2  A    between atoms: C_2  and  C_25 
REMARK    3  A    between atoms: O_3  and  C_4 
REMARK    4  A    between atoms: C_5  and  O_6 
REMARK    5  A    between atoms: C_9  and  O_10 
REMARK    6  A    between atoms: C_13  and  O_14 
REMARK    7  A    between atoms: C_13  and  C_16 
REMARK    8  A    between atoms: C_28  and  O_29 
ROOT
HETATM    1  C   UNK N   1      30.004  46.860  59.736  0.00  0.00     0.167 C 
HETATM    2  C   UNK N   1      29.027  46.204  60.760  0.00  0.00     0.083 C 
HETATM    3  C   UNK N   1      29.712  45.020  61.500  0.00  0.00     0.072 C 
HETATM    4  C   UNK N   1      30.143  43.763  60.736  0.00  0.00     0.129 C 
HETATM    5  C   UNK N   1      31.116  44.029  59.549  0.00  0.00     0.057 C 
HETATM    6  C   UNK N   1      31.912  42.765  59.034  0.00  0.00     0.067 C 
HETATM    7  C   UNK N   1      32.153  43.061  57.520  0.00  0.00     0.039 C 
HETATM    8  C   UNK N   1      31.667  44.479  57.300  0.00  0.00     0.012 C 
HETATM    9  C   UNK N   1      30.482  44.649  58.273  0.00  0.00    -0.033 C 
HETATM   10  C   UNK N   1      30.113  46.167  58.361  0.00  0.00     0.045 C 
HETATM   11  C   UNK N   1      29.241  43.853  57.762  0.00  0.00     0.016 C 
HETATM   12  C   UNK N   1      28.665  47.239  61.863  0.00  0.00     0.049 C 
ENDROOT
BRANCH   1  13
HETATM   13  O   UNK N   1      29.605  48.163  59.475  0.00  0.00    -0.309 OA
BRANCH  13  14
HETATM   14  C   UNK N   1      28.699  48.526  58.521  0.00  0.00     0.293 C 
HETATM   15  O   UNK N   1      27.533  48.168  58.600  0.00  0.00    -0.259 OA
BRANCH  14  16
HETATM   16  C   UNK N   1      29.160  49.289  57.342  0.00  0.00     0.039 A 
HETATM   17  C   UNK N   1      30.515  49.270  56.962  0.00  0.00     0.020 A 
HETATM   18  C   UNK N   1      30.944  50.006  55.853  0.00  0.00     0.037 A 
HETATM   19  C   UNK N   1      30.023  50.758  55.109  0.00  0.00     0.065 A 
HETATM   20  C   UNK N   1      28.676  50.774  55.481  0.00  0.00     0.037 A 
HETATM   21  C   UNK N   1      28.246  50.049  56.594  0.00  0.00     0.020 A 
BRANCH  19  22
HETATM   22  O   UNK N   1      30.425  51.468  54.035  0.00  0.00    -0.361 OA
HETATM   23  H   UNK N   1      29.829  52.079  53.579  0.00  0.00     0.217 HD
ENDBRANCH  19  22
ENDBRANCH  14  16
ENDBRANCH  13  14
ENDBRANCH   1  13
BRANCH   2  24
HETATM   24  O   UNK N   1      27.845  45.808  60.109  0.00  0.00    -0.388 OA
HETATM   25  H   UNK N   1      27.077  46.183  60.615  0.00  0.00     0.210 HD
ENDBRANCH   2  24
BRANCH   4  26
HETATM   26  O   UNK N   1      30.777  42.943  61.689  0.00  0.00    -0.395 OA
HETATM   27  H   UNK N   1      30.253  42.986  62.532  0.00  0.00     0.210 HD
ENDBRANCH   4  26
BRANCH   6  28
HETATM   28  O   UNK N   1      31.065  41.638  59.151  0.00  0.00    -0.389 OA
HETATM   29  H   UNK N   1      30.873  41.468  60.110  0.00  0.00     0.210 HD
ENDBRANCH   6  28
BRANCH   6  30
HETATM   30  C   UNK N   1      33.244  42.502  59.854  0.00  0.00     0.012 C 
HETATM   31  C   UNK N   1      33.545  40.997  60.010  0.00  0.00     0.012 C 
HETATM   32  C   UNK N   1      34.505  43.182  59.271  0.00  0.00     0.012 C 
ENDBRANCH   6  30
TORSDOF 8
ENDMDL
MODEL 7
REMARK VINA RESULT:      -5.4     17.634     20.189
REMARK  8 active torsions:
REMARK  status: ('A' for Active; 'I' for Inactive)
REMARK    1  A    between atoms: C_2  and  O_3 
REMARK    2  A    between atoms: C_2  and  C_25 
REMARK    3  A    between atoms: O_3  and  C_4 
REMARK    4  A    between atoms: C_5  and  O_6 
REMARK    5  A    between atoms: C_9  and  O_10 
REMARK    6  A    between atoms: C_13  and  O_14 
REMARK    7  A    between atoms: C_13  and  C_16 
REMARK    8  A    between atoms: C_28  and  O_29 
ROOT
HETATM    1  C   UNK N   1      31.665  43.852  60.849  0.00  0.00     0.167 C 
HETATM    2  C   UNK N   1      32.066  43.229  59.476  0.00  0.00     0.083 C 
HETATM    3  C   UNK N   1      32.177  44.326  58.381  0.00  0.00     0.072 C 
HETATM    4  C   UNK N   1      30.942  45.118  57.936  0.00  0.00     0.129 C 
HETATM    5  C   UNK N   1      30.202  45.862  59.088  0.00  0.00     0.057 C 
HETATM    6  C   UNK N   1      29.223  47.013  58.626  0.00  0.00     0.067 C 
HETATM    7  C   UNK N   1      28.124  47.042  59.735  0.00  0.00     0.039 C 
HETATM    8  C   UNK N   1      28.600  46.081  60.806  0.00  0.00     0.012 C 
HETATM    9  C   UNK N   1      29.354  44.974  60.040  0.00  0.00    -0.033 C 
HETATM   10  C   UNK N   1      30.159  44.108  61.065  0.00  0.00     0.045 C 
HETATM   11  C   UNK N   1      28.346  44.057  59.279  0.00  0.00     0.016 C 
HETATM   12  C   UNK N   1      33.484  42.600  59.590  0.00  0.00     0.049 C 
ENDROOT
BRANCH   1  13
HETATM   13  O   UNK N   1      32.060  43.010  61.879  0.00  0.00    -0.309 OA
BRANCH  13  14
HETATM   14  C   UNK N   1      32.559  43.426  63.080  0.00  0.00     0.293 C 
HETATM   15  O   UNK N   1      32.154  42.939  64.126  0.00  0.00    -0.259 OA
BRANCH  14  16
HETATM   16  C   UNK N   1      33.538  44.533  63.110  0.00  0.00     0.039 A 
HETATM   17  C   UNK N   1      33.151  45.819  63.528  0.00  0.00     0.020 A 
HETATM   18  C   UNK N   1      34.080  46.864  63.539  0.00  0.00     0.037 A 
HETATM   19  C   UNK N   1      35.405  46.631  63.145  0.00  0.00     0.065 A 
HETATM   20  C   UNK N   1      35.793  45.352  62.733  0.00  0.00     0.037 A 
HETATM   21  C   UNK N   1      34.865  44.309  62.710  0.00  0.00     0.020 A 
BRANCH  19  22
HETATM   22  O   UNK N   1      36.311  47.630  63.156  0.00  0.00    -0.361 OA
HETATM   23  H   UNK N   1      37.255  47.457  63.277  0.00  0.00     0.217 HD
ENDBRANCH  19  22
ENDBRANCH  14  16
ENDBRANCH  13  14
ENDBRANCH   1  13
BRANCH   2  24
HETATM   24  O   UNK N   1      31.153  42.218  59.123  0.00  0.00    -0.388 OA
HETATM   25  H   UNK N   1      30.521  42.100  59.880  0.00  0.00     0.210 HD
ENDBRANCH   2  24
BRANCH   4  26
HETATM   26  O   UNK N   1      31.413  46.055  56.998  0.00  0.00    -0.395 OA
HETATM   27  H   UNK N   1      30.641  46.600  56.691  0.00  0.00     0.210 HD
ENDBRANCH   4  26
BRANCH   6  28
HETATM   28  O   UNK N   1      28.631  46.619  57.404  0.00  0.00    -0.389 OA
HETATM   29  H   UNK N   1      28.232  45.716  57.507  0.00  0.00     0.210 HD
ENDBRANCH   6  28
BRANCH   6  30
HETATM   30  C   UNK N   1      29.960  48.402  58.422  0.00  0.00     0.012 C 
HETATM   31  C   UNK N   1      29.740  48.977  57.009  0.00  0.00     0.012 C 
HETATM   32  C   UNK N   1      29.574  49.495  59.447  0.00  0.00     0.012 C 
ENDBRANCH   6  30
TORSDOF 8
ENDMDL
MODEL 8
REMARK VINA RESULT:      -5.4     15.031     17.904
REMARK  8 active torsions:
REMARK  status: ('A' for Active; 'I' for Inactive)
REMARK    1  A    between atoms: C_2  and  O_3 
REMARK    2  A    between atoms: C_2  and  C_25 
REMARK    3  A    between atoms: O_3  and  C_4 
REMARK    4  A    between atoms: C_5  and  O_6 
REMARK    5  A    between atoms: C_9  and  O_10 
REMARK    6  A    between atoms: C_13  and  O_14 
REMARK    7  A    between atoms: C_13  and  C_16 
REMARK    8  A    between atoms: C_28  and  O_29 
ROOT
HETATM    1  C   UNK N   1      29.486  42.586  56.768  0.00  0.00     0.167 C 
HETATM    2  C   UNK N   1      28.537  42.007  57.863  0.00  0.00     0.083 C 
HETATM    3  C   UNK N   1      27.433  43.034  58.239  0.00  0.00     0.072 C 
HETATM    4  C   UNK N   1      27.795  44.364  58.910  0.00  0.00     0.129 C 
HETATM    5  C   UNK N   1      28.811  45.235  58.112  0.00  0.00     0.057 C 
HETATM    6  C   UNK N   1      28.866  46.758  58.531  0.00  0.00     0.067 C 
HETATM    7  C   UNK N   1      30.337  47.182  58.221  0.00  0.00     0.039 C 
HETATM    8  C   UNK N   1      30.962  45.997  57.514  0.00  0.00     0.012 C 
HETATM    9  C   UNK N   1      30.289  44.759  58.143  0.00  0.00    -0.033 C 
HETATM   10  C   UNK N   1      30.621  43.504  57.268  0.00  0.00     0.045 C 
HETATM   11  C   UNK N   1      30.825  44.526  59.590  0.00  0.00     0.016 C 
HETATM   12  C   UNK N   1      27.788  40.770  57.292  0.00  0.00     0.049 C 
ENDROOT
BRANCH   1  13
HETATM   13  O   UNK N   1      30.107  41.548  56.088  0.00  0.00    -0.309 OA
BRANCH  13  14
HETATM   14  C   UNK N   1      30.488  41.589  54.778  0.00  0.00     0.293 C 
HETATM   15  O   UNK N   1      31.650  41.820  54.474  0.00  0.00    -0.259 OA
BRANCH  14  16
HETATM   16  C   UNK N   1      29.465  41.436  53.724  0.00  0.00     0.039 A 
HETATM   17  C   UNK N   1      28.458  40.459  53.839  0.00  0.00     0.020 A 
HETATM   18  C   UNK N   1      27.503  40.312  52.830  0.00  0.00     0.037 A 
HETATM   19  C   UNK N   1      27.537  41.145  51.702  0.00  0.00     0.065 A 
HETATM   20  C   UNK N   1      28.533  42.119  51.586  0.00  0.00     0.037 A 
HETATM   21  C   UNK N   1      29.495  42.261  52.588  0.00  0.00     0.020 A 
BRANCH  19  22
HETATM   22  O   UNK N   1      26.617  41.015  50.724  0.00  0.00    -0.361 OA
HETATM   23  H   UNK N   1      25.963  41.705  50.547  0.00  0.00     0.217 HD
ENDBRANCH  19  22
ENDBRANCH  14  16
ENDBRANCH  13  14
ENDBRANCH   1  13
BRANCH   2  24
HETATM   24  O   UNK N   1      29.288  41.603  58.981  0.00  0.00    -0.388 OA
HETATM   25  H   UNK N   1      30.250  41.712  58.760  0.00  0.00     0.210 HD
ENDBRANCH   2  24
BRANCH   4  26
HETATM   26  O   UNK N   1      26.580  45.062  59.043  0.00  0.00    -0.395 OA
HETATM   27  H   UNK N   1      25.899  44.431  59.397  0.00  0.00     0.210 HD
ENDBRANCH   4  26
BRANCH   6  28
HETATM   28  O   UNK N   1      28.653  46.835  59.928  0.00  0.00    -0.389 OA
HETATM   29  H   UNK N   1      27.687  46.976  60.106  0.00  0.00     0.210 HD
ENDBRANCH   6  28
BRANCH   6  30
HETATM   30  C   UNK N   1      27.777  47.640  57.790  0.00  0.00     0.012 C 
HETATM   31  C   UNK N   1      26.868  48.398  58.778  0.00  0.00     0.012 C 
HETATM   32  C   UNK N   1      28.352  48.667  56.787  0.00  0.00     0.012 C 
ENDBRANCH   6  30
TORSDOF 8
ENDMDL
MODEL 9
REMARK VINA RESULT:      -5.3      2.639      4.754
REMARK  8 active torsions:
REMARK  status: ('A' for Active; 'I' for Inactive)
REMARK    1  A    between atoms: C_2  and  O_3 
REMARK    2  A    between atoms: C_2  and  C_25 
REMARK    3  A    between atoms: O_3  and  C_4 
REMARK    4  A    between atoms: C_5  and  O_6 
REMARK    5  A    between atoms: C_9  and  O_10 
REMARK    6  A    between atoms: C_13  and  O_14 
REMARK    7  A    between atoms: C_13  and  C_16 
REMARK    8  A    between atoms: C_28  and  O_29 
ROOT
HETATM    1  C   UNK N   1      29.372  54.244  40.809  0.00  0.00     0.167 C 
HETATM    2  C   UNK N   1      29.455  53.046  39.812  0.00  0.00     0.083 C 
HETATM    3  C   UNK N   1      29.529  53.552  38.344  0.00  0.00     0.072 C 
HETATM    4  C   UNK N   1      28.355  54.311  37.715  0.00  0.00     0.129 C 
HETATM    5  C   UNK N   1      27.922  55.590  38.493  0.00  0.00     0.057 C 
HETATM    6  C   UNK N   1      27.043  56.613  37.669  0.00  0.00     0.067 C 
HETATM    7  C   UNK N   1      26.154  57.305  38.751  0.00  0.00     0.039 C 
HETATM    8  C   UNK N   1      26.668  56.799  40.084  0.00  0.00     0.012 C 
HETATM    9  C   UNK N   1      27.131  55.353  39.809  0.00  0.00    -0.033 C 
HETATM   10  C   UNK N   1      27.970  54.849  41.030  0.00  0.00     0.045 C 
HETATM   11  C   UNK N   1      25.898  54.415  39.617  0.00  0.00     0.016 C 
HETATM   12  C   UNK N   1      30.775  52.262  40.057  0.00  0.00     0.049 C 
ENDROOT
BRANCH   1  13
HETATM   13  O   UNK N   1      29.815  53.842  42.061  0.00  0.00    -0.309 OA
BRANCH  13  14
HETATM   14  C   UNK N   1      30.730  54.514  42.819  0.00  0.00     0.293 C 
HETATM   15  O   UNK N   1      30.749  55.737  42.834  0.00  0.00    -0.259 OA
BRANCH  14  16
HETATM   16  C   UNK N   1      31.756  53.750  43.558  0.00  0.00     0.039 A 
HETATM   17  C   UNK N   1      32.642  54.403  44.435  0.00  0.00     0.020 A 
HETATM   18  C   UNK N   1      33.619  53.674  45.119  0.00  0.00     0.037 A 
HETATM   19  C   UNK N   1      33.714  52.286  44.942  0.00  0.00     0.065 A 
HETATM   20  C   UNK N   1      32.832  51.634  44.075  0.00  0.00     0.037 A 
HETATM   21  C   UNK N   1      31.862  52.361  43.382  0.00  0.00     0.020 A 
BRANCH  19  22
HETATM   22  O   UNK N   1      34.649  51.572  45.600  0.00  0.00    -0.361 OA
HETATM   23  H   UNK N   1      34.579  51.396  46.549  0.00  0.00     0.217 HD
ENDBRANCH  19  22
ENDBRANCH  14  16
ENDBRANCH  13  14
ENDBRANCH   1  13
BRANCH   2  24
HETATM   24  O   UNK N   1      28.369  52.176  40.017  0.00  0.00    -0.388 OA
HETATM   25  H   UNK N   1      27.672  52.392  39.343  0.00  0.00     0.210 HD
ENDBRANCH   2  24
BRANCH   4  26
HETATM   26  O   UNK N   1      28.786  54.670  36.424  0.00  0.00    -0.395 OA
HETATM   27  H   UNK N   1      28.504  53.955  35.795  0.00  0.00     0.210 HD
ENDBRANCH   4  26
BRANCH   6  28
HETATM   28  O   UNK N   1      26.209  55.872  36.799  0.00  0.00    -0.389 OA
HETATM   29  H   UNK N   1      25.473  56.452  36.473  0.00  0.00     0.210 HD
ENDBRANCH   6  28
BRANCH   6  30
HETATM   30  C   UNK N   1      27.915  57.625  36.816  0.00  0.00     0.012 C 
HETATM   31  C   UNK N   1      27.152  58.926  36.493  0.00  0.00     0.012 C 
HETATM   32  C   UNK N   1      29.267  58.014  37.461  0.00  0.00     0.012 C 
ENDBRANCH   6  30
TORSDOF 8
ENDMDL
