MODEL 1
REMARK VINA RESULT:      -5.9      0.000      0.000
REMARK  8 active torsions:
REMARK  status: ('A' for Active; 'I' for Inactive)
REMARK    1  A    between atoms: C_2  and  O_3 
REMARK    2  A    between atoms: C_2  and  C_23 
REMARK    3  A    between atoms: O_3  and  C_4 
REMARK    4  A    between atoms: C_6  and  O_7 
REMARK    5  A    between atoms: C_6  and  C_9 
REMARK    6  A    between atoms: C_17  and  O_18 
REMARK    7  A    between atoms: C_25  and  O_26 
REMARK    8  A    between atoms: C_28  and  O_29 
ROOT
HETATM    1  C   UNK N   1      29.642  55.870  40.316  0.00  0.00     0.143 C 
HETATM    2  C   UNK N   1      29.351  54.858  39.173  0.00  0.00     0.062 C 
HETATM    3  C   UNK N   1      28.709  53.478  39.553  0.00  0.00     0.068 C 
HETATM    4  C   UNK N   1      28.333  52.959  38.153  0.00  0.00     0.040 C 
HETATM    5  C   UNK N   1      27.661  54.165  37.533  0.00  0.00     0.016 C 
HETATM    6  C   UNK N   1      28.561  55.373  37.908  0.00  0.00    -0.018 C 
HETATM    7  C   UNK N   1      27.647  56.585  38.046  0.00  0.00    -0.018 C 
HETATM    8  C   UNK N   1      27.880  57.766  38.650  0.00  0.00     0.007 C 
HETATM    9  C   UNK N   1      29.062  58.230  39.491  0.00  0.00     0.074 C 
HETATM   10  C   UNK N   1      30.177  57.199  39.763  0.00  0.00     0.074 C 
HETATM   11  C   UNK N   1      29.702  59.468  38.835  0.00  0.00     0.050 C 
HETATM   12  C   UNK N   1      29.529  55.640  36.724  0.00  0.00     0.020 C 
ENDROOT
BRANCH   1  13
HETATM   13  O   UNK N   1      30.628  55.353  41.133  0.00  0.00    -0.311 OA
BRANCH  13  14
HETATM   14  C   UNK N   1      30.734  55.569  42.470  0.00  0.00     0.293 C 
HETATM   15  O   UNK N   1      30.025  56.393  43.029  0.00  0.00    -0.259 OA
BRANCH  14  16
HETATM   16  C   UNK N   1      31.618  54.693  43.260  0.00  0.00     0.042 A 
HETATM   17  C   UNK N   1      31.426  53.305  43.246  0.00  0.00     0.057 A 
HETATM   18  C   UNK N   1      32.301  52.456  43.953  0.00  0.00     0.102 A 
HETATM   19  C   UNK N   1      33.350  53.022  44.705  0.00  0.00     0.099 A 
HETATM   20  C   UNK N   1      33.524  54.410  44.729  0.00  0.00     0.040 A 
HETATM   21  C   UNK N   1      32.675  55.241  44.000  0.00  0.00     0.020 A 
BRANCH  18  22
HETATM   22  O   UNK N   1      32.170  51.102  43.909  0.00  0.00    -0.353 OA
HETATM   23  C   UNK N   1      32.177  50.344  42.754  0.00  0.00     0.210 C 
ENDBRANCH  18  22
BRANCH  19  24
HETATM   24  O   UNK N   1      34.207  52.245  45.401  0.00  0.00    -0.358 OA
HETATM   25  H   UNK N   1      34.670  51.497  44.998  0.00  0.00     0.218 HD
ENDBRANCH  19  24
ENDBRANCH  14  16
ENDBRANCH  13  14
ENDBRANCH   1  13
BRANCH   3  26
HETATM   26  O   UNK N   1      27.514  53.699  40.270  0.00  0.00    -0.389 OA
HETATM   27  H   UNK N   1      27.403  54.676  40.396  0.00  0.00     0.210 HD
ENDBRANCH   3  26
BRANCH   3  28
HETATM   28  C   UNK N   1      29.604  52.442  40.345  0.00  0.00     0.012 C 
HETATM   29  C   UNK N   1      28.957  51.043  40.375  0.00  0.00     0.012 C 
HETATM   30  C   UNK N   1      31.052  52.307  39.832  0.00  0.00     0.012 C 
ENDBRANCH   3  28
BRANCH   9  31
HETATM   31  O   UNK N   1      28.550  58.594  40.756  0.00  0.00    -0.386 OA
HETATM   32  H   UNK N   1      28.246  59.539  40.723  0.00  0.00     0.211 HD
ENDBRANCH   9  31
TORSDOF 8
ENDMDL
MODEL 2
REMARK VINA RESULT:      -5.7      0.885      1.906
REMARK  8 active torsions:
REMARK  status: ('A' for Active; 'I' for Inactive)
REMARK    1  A    between atoms: C_2  and  O_3 
REMARK    2  A    between atoms: C_2  and  C_23 
REMARK    3  A    between atoms: O_3  and  C_4 
REMARK    4  A    between atoms: C_6  and  O_7 
REMARK    5  A    between atoms: C_6  and  C_9 
REMARK    6  A    between atoms: C_17  and  O_18 
REMARK    7  A    between atoms: C_25  and  O_26 
REMARK    8  A    between atoms: C_28  and  O_29 
ROOT
HETATM    1  C   UNK N   1      29.458  56.159  40.202  0.00  0.00     0.143 C 
HETATM    2  C   UNK N   1      29.259  55.159  39.029  0.00  0.00     0.062 C 
HETATM    3  C   UNK N   1      28.601  53.771  39.345  0.00  0.00     0.068 C 
HETATM    4  C   UNK N   1      28.332  53.267  37.915  0.00  0.00     0.040 C 
HETATM    5  C   UNK N   1      27.699  54.476  37.261  0.00  0.00     0.016 C 
HETATM    6  C   UNK N   1      28.561  55.685  37.715  0.00  0.00    -0.018 C 
HETATM    7  C   UNK N   1      27.631  56.889  37.800  0.00  0.00    -0.018 C 
HETATM    8  C   UNK N   1      27.811  58.065  38.433  0.00  0.00     0.007 C 
HETATM    9  C   UNK N   1      28.925  58.525  39.364  0.00  0.00     0.074 C 
HETATM   10  C   UNK N   1      30.023  57.498  39.705  0.00  0.00     0.074 C 
HETATM   11  C   UNK N   1      29.603  59.775  38.771  0.00  0.00     0.050 C 
HETATM   12  C   UNK N   1      29.612  55.971  36.609  0.00  0.00     0.020 C 
ENDROOT
BRANCH   1  13
HETATM   13  O   UNK N   1      30.385  55.638  41.084  0.00  0.00    -0.311 OA
BRANCH  13  14
HETATM   14  C   UNK N   1      30.147  55.336  42.386  0.00  0.00     0.293 C 
HETATM   15  O   UNK N   1      29.043  55.515  42.878  0.00  0.00    -0.259 OA
BRANCH  14  16
HETATM   16  C   UNK N   1      31.203  54.657  43.159  0.00  0.00     0.042 A 
HETATM   17  C   UNK N   1      32.296  55.386  43.646  0.00  0.00     0.057 A 
HETATM   18  C   UNK N   1      33.281  54.755  44.433  0.00  0.00     0.102 A 
HETATM   19  C   UNK N   1      33.173  53.374  44.693  0.00  0.00     0.099 A 
HETATM   20  C   UNK N   1      32.088  52.650  44.187  0.00  0.00     0.040 A 
HETATM   21  C   UNK N   1      31.101  53.287  43.438  0.00  0.00     0.020 A 
BRANCH  18  22
HETATM   22  O   UNK N   1      34.321  55.453  44.965  0.00  0.00    -0.353 OA
HETATM   23  C   UNK N   1      34.196  56.517  45.838  0.00  0.00     0.210 C 
ENDBRANCH  18  22
BRANCH  19  24
HETATM   24  O   UNK N   1      34.097  52.731  45.437  0.00  0.00    -0.358 OA
HETATM   25  H   UNK N   1      34.890  52.335  45.049  0.00  0.00     0.218 HD
ENDBRANCH  19  24
ENDBRANCH  14  16
ENDBRANCH  13  14
ENDBRANCH   1  13
BRANCH   3  26
HETATM   26  O   UNK N   1      27.354  53.976  39.975  0.00  0.00    -0.389 OA
HETATM   27  H   UNK N   1      27.083  53.127  40.410  0.00  0.00     0.210 HD
ENDBRANCH   3  26
BRANCH   3  28
HETATM   28  C   UNK N   1      29.442  52.730  40.189  0.00  0.00     0.012 C 
HETATM   29  C   UNK N   1      28.790  51.334  40.176  0.00  0.00     0.012 C 
HETATM   30  C   UNK N   1      30.918  52.592  39.766  0.00  0.00     0.012 C 
ENDBRANCH   3  28
BRANCH   9  31
HETATM   31  O   UNK N   1      28.319  58.871  40.592  0.00  0.00    -0.386 OA
HETATM   32  H   UNK N   1      28.707  58.311  41.314  0.00  0.00     0.211 HD
ENDBRANCH   9  31
TORSDOF 8
ENDMDL
MODEL 3
REMARK VINA RESULT:      -5.6      2.173      4.575
REMARK  8 active torsions:
REMARK  status: ('A' for Active; 'I' for Inactive)
REMARK    1  A    between atoms: C_2  and  O_3 
REMARK    2  A    between atoms: C_2  and  C_23 
REMARK    3  A    between atoms: O_3  and  C_4 
REMARK    4  A    between atoms: C_6  and  O_7 
REMARK    5  A    between atoms: C_6  and  C_9 
REMARK    6  A    between atoms: C_17  and  O_18 
REMARK    7  A    between atoms: C_25  and  O_26 
REMARK    8  A    between atoms: C_28  and  O_29 
ROOT
HETATM    1  C   UNK N   1      28.034  52.524  40.059  0.00  0.00     0.143 C 
HETATM    2  C   UNK N   1      27.516  53.590  39.054  0.00  0.00     0.062 C 
HETATM    3  C   UNK N   1      28.552  54.260  38.087  0.00  0.00     0.068 C 
HETATM    4  C   UNK N   1      27.594  54.976  37.117  0.00  0.00     0.040 C 
HETATM    5  C   UNK N   1      26.586  53.893  36.803  0.00  0.00     0.016 C 
HETATM    6  C   UNK N   1      26.262  53.227  38.167  0.00  0.00    -0.018 C 
HETATM    7  C   UNK N   1      25.951  51.762  37.887  0.00  0.00    -0.018 C 
HETATM    8  C   UNK N   1      25.924  50.716  38.736  0.00  0.00     0.007 C 
HETATM    9  C   UNK N   1      26.312  50.627  40.205  0.00  0.00     0.074 C 
HETATM   10  C   UNK N   1      26.880  51.902  40.860  0.00  0.00     0.074 C 
HETATM   11  C   UNK N   1      25.096  50.165  41.029  0.00  0.00     0.050 C 
HETATM   12  C   UNK N   1      24.976  53.887  38.733  0.00  0.00     0.020 C 
ENDROOT
BRANCH   1  13
HETATM   13  O   UNK N   1      28.868  53.137  40.973  0.00  0.00    -0.311 OA
BRANCH  13  14
HETATM   14  C   UNK N   1      30.122  52.724  41.294  0.00  0.00     0.293 C 
HETATM   15  O   UNK N   1      30.682  51.857  40.638  0.00  0.00    -0.259 OA
BRANCH  14  16
HETATM   16  C   UNK N   1      30.850  53.436  42.359  0.00  0.00     0.042 A 
HETATM   17  C   UNK N   1      31.740  52.740  43.189  0.00  0.00     0.057 A 
HETATM   18  C   UNK N   1      32.482  53.424  44.172  0.00  0.00     0.102 A 
HETATM   19  C   UNK N   1      32.292  54.811  44.337  0.00  0.00     0.099 A 
HETATM   20  C   UNK N   1      31.388  55.495  43.517  0.00  0.00     0.040 A 
HETATM   21  C   UNK N   1      30.683  54.818  42.524  0.00  0.00     0.020 A 
BRANCH  18  22
HETATM   22  O   UNK N   1      33.394  52.780  44.952  0.00  0.00    -0.353 OA
HETATM   23  C   UNK N   1      33.981  51.568  44.645  0.00  0.00     0.210 C 
ENDBRANCH  18  22
BRANCH  19  24
HETATM   24  O   UNK N   1      32.979  55.502  45.271  0.00  0.00    -0.358 OA
HETATM   25  H   UNK N   1      32.597  55.732  46.130  0.00  0.00     0.218 HD
ENDBRANCH  19  24
ENDBRANCH  14  16
ENDBRANCH  13  14
ENDBRANCH   1  13
BRANCH   3  26
HETATM   26  O   UNK N   1      29.235  53.258  37.364  0.00  0.00    -0.389 OA
HETATM   27  H   UNK N   1      28.921  53.286  36.424  0.00  0.00     0.210 HD
ENDBRANCH   3  26
BRANCH   3  28
HETATM   28  C   UNK N   1      29.610  55.256  38.714  0.00  0.00     0.012 C 
HETATM   29  C   UNK N   1      31.043  54.699  38.608  0.00  0.00     0.012 C 
HETATM   30  C   UNK N   1      29.588  56.682  38.127  0.00  0.00     0.012 C 
ENDBRANCH   3  28
BRANCH   9  31
HETATM   31  O   UNK N   1      27.330  49.652  40.303  0.00  0.00    -0.386 OA
HETATM   32  H   UNK N   1      27.524  49.480  41.262  0.00  0.00     0.211 HD
ENDBRANCH   9  31
TORSDOF 8
ENDMDL
MODEL 4
REMARK VINA RESULT:      -5.4     16.777     20.255
REMARK  8 active torsions:
REMARK  status: ('A' for Active; 'I' for Inactive)
REMARK    1  A    between atoms: C_2  and  O_3 
REMARK    2  A    between atoms: C_2  and  C_23 
REMARK    3  A    between atoms: O_3  and  C_4 
REMARK    4  A    between atoms: C_6  and  O_7 
REMARK    5  A    between atoms: C_6  and  C_9 
REMARK    6  A    between atoms: C_17  and  O_18 
REMARK    7  A    between atoms: C_25  and  O_26 
REMARK    8  A    between atoms: C_28  and  O_29 
ROOT
HETATM    1  C   UNK N   1      29.012  40.186  54.262  0.00  0.00     0.143 C 
HETATM    2  C   UNK N   1      27.504  40.173  53.885  0.00  0.00     0.062 C 
HETATM    3  C   UNK N   1      27.050  40.985  52.622  0.00  0.00     0.068 C 
HETATM    4  C   UNK N   1      25.613  40.456  52.462  0.00  0.00     0.040 C 
HETATM    5  C   UNK N   1      25.803  38.961  52.594  0.00  0.00     0.016 C 
HETATM    6  C   UNK N   1      26.775  38.776  53.792  0.00  0.00    -0.018 C 
HETATM    7  C   UNK N   1      27.599  37.526  53.509  0.00  0.00    -0.018 C 
HETATM    8  C   UNK N   1      28.760  37.126  54.062  0.00  0.00     0.007 C 
HETATM    9  C   UNK N   1      29.685  37.836  55.041  0.00  0.00     0.074 C 
HETATM   10  C   UNK N   1      29.297  39.268  55.460  0.00  0.00     0.074 C 
HETATM   11  C   UNK N   1      29.832  36.985  56.317  0.00  0.00     0.050 C 
HETATM   12  C   UNK N   1      25.927  38.511  55.065  0.00  0.00     0.020 C 
ENDROOT
BRANCH   1  13
HETATM   13  O   UNK N   1      29.367  41.465  54.647  0.00  0.00    -0.311 OA
BRANCH  13  14
HETATM   14  C   UNK N   1      30.609  41.851  55.038  0.00  0.00     0.293 C 
HETATM   15  O   UNK N   1      31.572  41.697  54.302  0.00  0.00    -0.259 OA
BRANCH  14  16
HETATM   16  C   UNK N   1      30.753  42.589  56.306  0.00  0.00     0.042 A 
HETATM   17  C   UNK N   1      32.022  42.773  56.871  0.00  0.00     0.057 A 
HETATM   18  C   UNK N   1      32.174  43.524  58.053  0.00  0.00     0.102 A 
HETATM   19  C   UNK N   1      31.031  44.058  58.681  0.00  0.00     0.099 A 
HETATM   20  C   UNK N   1      29.766  43.855  58.121  0.00  0.00     0.040 A 
HETATM   21  C   UNK N   1      29.627  43.139  56.933  0.00  0.00     0.020 A 
BRANCH  18  22
HETATM   22  O   UNK N   1      33.402  43.765  58.590  0.00  0.00    -0.353 OA
HETATM   23  C   UNK N   1      34.117  42.868  59.361  0.00  0.00     0.210 C 
ENDBRANCH  18  22
BRANCH  19  24
HETATM   24  O   UNK N   1      31.133  44.780  59.818  0.00  0.00    -0.358 OA
HETATM   25  H   UNK N   1      31.111  45.747  59.820  0.00  0.00     0.218 HD
ENDBRANCH  19  24
ENDBRANCH  14  16
ENDBRANCH  13  14
ENDBRANCH   1  13
BRANCH   3  26
HETATM   26  O   UNK N   1      27.796  40.563  51.501  0.00  0.00    -0.389 OA
HETATM   27  H   UNK N   1      27.359  39.758  51.122  0.00  0.00     0.210 HD
ENDBRANCH   3  26
BRANCH   3  28
HETATM   28  C   UNK N   1      27.092  42.564  52.706  0.00  0.00     0.012 C 
HETATM   29  C   UNK N   1      28.271  43.141  51.899  0.00  0.00     0.012 C 
HETATM   30  C   UNK N   1      25.795  43.273  52.268  0.00  0.00     0.012 C 
ENDBRANCH   3  28
BRANCH   9  31
HETATM   31  O   UNK N   1      30.947  37.942  54.413  0.00  0.00    -0.386 OA
HETATM   32  H   UNK N   1      30.828  37.859  53.431  0.00  0.00     0.211 HD
ENDBRANCH   9  31
TORSDOF 8
ENDMDL
MODEL 5
REMARK VINA RESULT:      -5.3      1.984      6.908
REMARK  8 active torsions:
REMARK  status: ('A' for Active; 'I' for Inactive)
REMARK    1  A    between atoms: C_2  and  O_3 
REMARK    2  A    between atoms: C_2  and  C_23 
REMARK    3  A    between atoms: O_3  and  C_4 
REMARK    4  A    between atoms: C_6  and  O_7 
REMARK    5  A    between atoms: C_6  and  C_9 
REMARK    6  A    between atoms: C_17  and  O_18 
REMARK    7  A    between atoms: C_25  and  O_26 
REMARK    8  A    between atoms: C_28  and  O_29 
ROOT
HETATM    1  C   UNK N   1      31.792  52.669  42.963  0.00  0.00     0.143 C 
HETATM    2  C   UNK N   1      31.217  51.323  42.439  0.00  0.00     0.062 C 
HETATM    3  C   UNK N   1      30.732  51.257  40.949  0.00  0.00     0.068 C 
HETATM    4  C   UNK N   1      30.546  49.737  40.791  0.00  0.00     0.040 C 
HETATM    5  C   UNK N   1      31.829  49.193  41.383  0.00  0.00     0.016 C 
HETATM    6  C   UNK N   1      32.058  50.011  42.683  0.00  0.00    -0.018 C 
HETATM    7  C   UNK N   1      33.565  50.122  42.880  0.00  0.00    -0.018 C 
HETATM    8  C   UNK N   1      34.265  50.973  43.655  0.00  0.00     0.007 C 
HETATM    9  C   UNK N   1      33.803  52.169  44.477  0.00  0.00     0.074 C 
HETATM   10  C   UNK N   1      32.306  52.533  44.404  0.00  0.00     0.074 C 
HETATM   11  C   UNK N   1      34.172  51.947  45.955  0.00  0.00     0.050 C 
HETATM   12  C   UNK N   1      31.480  49.198  43.872  0.00  0.00     0.020 C 
ENDROOT
BRANCH   1  13
HETATM   13  O   UNK N   1      30.781  53.609  42.988  0.00  0.00    -0.311 OA
BRANCH  13  14
HETATM   14  C   UNK N   1      30.920  54.922  42.669  0.00  0.00     0.293 C 
HETATM   15  O   UNK N   1      32.023  55.450  42.661  0.00  0.00    -0.259 OA
BRANCH  14  16
HETATM   16  C   UNK N   1      29.738  55.664  42.195  0.00  0.00     0.042 A 
HETATM   17  C   UNK N   1      29.897  56.881  41.519  0.00  0.00     0.057 A 
HETATM   18  C   UNK N   1      28.776  57.568  41.013  0.00  0.00     0.102 A 
HETATM   19  C   UNK N   1      27.489  57.036  41.228  0.00  0.00     0.099 A 
HETATM   20  C   UNK N   1      27.337  55.830  41.920  0.00  0.00     0.040 A 
HETATM   21  C   UNK N   1      28.453  55.139  42.387  0.00  0.00     0.020 A 
BRANCH  18  22
HETATM   22  O   UNK N   1      28.909  58.723  40.304  0.00  0.00    -0.353 OA
HETATM   23  C   UNK N   1      29.259  58.795  38.969  0.00  0.00     0.210 C 
ENDBRANCH  18  22
BRANCH  19  24
HETATM   24  O   UNK N   1      26.388  57.666  40.764  0.00  0.00    -0.358 OA
HETATM   25  H   UNK N   1      25.999  57.461  39.903  0.00  0.00     0.218 HD
ENDBRANCH  19  24
ENDBRANCH  14  16
ENDBRANCH  13  14
ENDBRANCH   1  13
BRANCH   3  26
HETATM   26  O   UNK N   1      31.782  51.658  40.096  0.00  0.00    -0.389 OA
HETATM   27  H   UNK N   1      32.639  51.527  40.576  0.00  0.00     0.210 HD
ENDBRANCH   3  26
BRANCH   3  28
HETATM   28  C   UNK N   1      29.420  52.054  40.564  0.00  0.00     0.012 C 
HETATM   29  C   UNK N   1      29.693  53.089  39.455  0.00  0.00     0.012 C 
HETATM   30  C   UNK N   1      28.226  51.175  40.140  0.00  0.00     0.012 C 
ENDBRANCH   3  28
BRANCH   9  31
HETATM   31  O   UNK N   1      34.503  53.297  43.993  0.00  0.00    -0.386 OA
HETATM   32  H   UNK N   1      34.505  53.276  43.000  0.00  0.00     0.211 HD
ENDBRANCH   9  31
TORSDOF 8
ENDMDL
MODEL 6
REMARK VINA RESULT:      -5.3     17.076     21.590
REMARK  8 active torsions:
REMARK  status: ('A' for Active; 'I' for Inactive)
REMARK    1  A    between atoms: C_2  and  O_3 
REMARK    2  A    between atoms: C_2  and  C_23 
REMARK    3  A    between atoms: O_3  and  C_4 
REMARK    4  A    between atoms: C_6  and  O_7 
REMARK    5  A    between atoms: C_6  and  C_9 
REMARK    6  A    between atoms: C_17  and  O_18 
REMARK    7  A    between atoms: C_25  and  O_26 
REMARK    8  A    between atoms: C_28  and  O_29 
ROOT
HETATM    1  C   UNK N   1      31.220  42.941  58.625  0.00  0.00     0.143 C 
HETATM    2  C   UNK N   1      30.151  42.060  59.330  0.00  0.00     0.062 C 
HETATM    3  C   UNK N   1      29.089  41.329  58.436  0.00  0.00     0.068 C 
HETATM    4  C   UNK N   1      28.467  40.380  59.477  0.00  0.00     0.040 C 
HETATM    5  C   UNK N   1      29.690  39.792  60.148  0.00  0.00     0.016 C 
HETATM    6  C   UNK N   1      30.644  40.994  60.383  0.00  0.00    -0.018 C 
HETATM    7  C   UNK N   1      32.068  40.459  60.286  0.00  0.00    -0.018 C 
HETATM    8  C   UNK N   1      33.222  41.129  60.101  0.00  0.00     0.007 C 
HETATM    9  C   UNK N   1      33.473  42.602  59.805  0.00  0.00     0.074 C 
HETATM   10  C   UNK N   1      32.234  43.503  59.632  0.00  0.00     0.074 C 
HETATM   11  C   UNK N   1      34.354  43.204  60.916  0.00  0.00     0.050 C 
HETATM   12  C   UNK N   1      30.426  41.508  61.832  0.00  0.00     0.020 C 
ENDROOT
BRANCH   1  13
HETATM   13  O   UNK N   1      30.594  44.026  58.042  0.00  0.00    -0.311 OA
BRANCH  13  14
HETATM   14  C   UNK N   1      31.208  45.177  57.663  0.00  0.00     0.293 C 
HETATM   15  O   UNK N   1      32.150  45.156  56.885  0.00  0.00    -0.259 OA
BRANCH  14  16
HETATM   16  C   UNK N   1      30.630  46.462  58.094  0.00  0.00     0.042 A 
HETATM   17  C   UNK N   1      30.671  47.573  57.241  0.00  0.00     0.057 A 
HETATM   18  C   UNK N   1      30.070  48.789  57.624  0.00  0.00     0.102 A 
HETATM   19  C   UNK N   1      29.460  48.887  58.890  0.00  0.00     0.099 A 
HETATM   20  C   UNK N   1      29.440  47.779  59.744  0.00  0.00     0.040 A 
HETATM   21  C   UNK N   1      30.006  46.570  59.345  0.00  0.00     0.020 A 
BRANCH  18  22
HETATM   22  O   UNK N   1      30.047  49.865  56.790  0.00  0.00    -0.353 OA
HETATM   23  C   UNK N   1      30.959  50.101  55.778  0.00  0.00     0.210 C 
ENDBRANCH  18  22
BRANCH  19  24
HETATM   24  O   UNK N   1      28.878  50.035  59.297  0.00  0.00    -0.358 OA
HETATM   25  H   UNK N   1      28.057  50.366  58.906  0.00  0.00     0.218 HD
ENDBRANCH  19  24
ENDBRANCH  14  16
ENDBRANCH  13  14
ENDBRANCH   1  13
BRANCH   3  26
HETATM   26  O   UNK N   1      29.752  40.542  57.471  0.00  0.00    -0.389 OA
HETATM   27  H   UNK N   1      29.165  40.468  56.675  0.00  0.00     0.210 HD
ENDBRANCH   3  26
BRANCH   3  28
HETATM   28  C   UNK N   1      27.994  42.215  57.717  0.00  0.00     0.012 C 
HETATM   29  C   UNK N   1      28.240  42.296  56.198  0.00  0.00     0.012 C 
HETATM   30  C   UNK N   1      26.537  41.773  57.961  0.00  0.00     0.012 C 
ENDBRANCH   3  28
BRANCH   9  31
HETATM   31  O   UNK N   1      34.173  42.662  58.580  0.00  0.00    -0.386 OA
HETATM   32  H   UNK N   1      33.936  43.505  58.112  0.00  0.00     0.211 HD
ENDBRANCH   9  31
TORSDOF 8
ENDMDL
MODEL 7
REMARK VINA RESULT:      -5.2      1.809      2.680
REMARK  8 active torsions:
REMARK  status: ('A' for Active; 'I' for Inactive)
REMARK    1  A    between atoms: C_2  and  O_3 
REMARK    2  A    between atoms: C_2  and  C_23 
REMARK    3  A    between atoms: O_3  and  C_4 
REMARK    4  A    between atoms: C_6  and  O_7 
REMARK    5  A    between atoms: C_6  and  C_9 
REMARK    6  A    between atoms: C_17  and  O_18 
REMARK    7  A    between atoms: C_25  and  O_26 
REMARK    8  A    between atoms: C_28  and  O_29 
ROOT
HETATM    1  C   UNK N   1      28.327  55.660  40.550  0.00  0.00     0.143 C 
HETATM    2  C   UNK N   1      27.156  55.047  39.732  0.00  0.00     0.062 C 
HETATM    3  C   UNK N   1      26.426  53.788  40.316  0.00  0.00     0.068 C 
HETATM    4  C   UNK N   1      25.205  53.724  39.380  0.00  0.00     0.040 C 
HETATM    5  C   UNK N   1      24.730  55.160  39.372  0.00  0.00     0.016 C 
HETATM    6  C   UNK N   1      26.017  56.016  39.226  0.00  0.00    -0.018 C 
HETATM    7  C   UNK N   1      25.771  57.323  39.970  0.00  0.00    -0.018 C 
HETATM    8  C   UNK N   1      26.658  58.241  40.402  0.00  0.00     0.007 C 
HETATM    9  C   UNK N   1      28.180  58.217  40.407  0.00  0.00     0.074 C 
HETATM   10  C   UNK N   1      28.864  56.937  39.887  0.00  0.00     0.074 C 
HETATM   11  C   UNK N   1      28.713  59.411  39.593  0.00  0.00     0.050 C 
HETATM   12  C   UNK N   1      26.207  56.352  37.722  0.00  0.00     0.020 C 
ENDROOT
BRANCH   1  13
HETATM   13  O   UNK N   1      29.373  54.757  40.580  0.00  0.00    -0.311 OA
BRANCH  13  14
HETATM   14  C   UNK N   1      30.313  54.676  41.558  0.00  0.00     0.293 C 
HETATM   15  O   UNK N   1      30.560  55.639  42.269  0.00  0.00    -0.259 OA
BRANCH  14  16
HETATM   16  C   UNK N   1      30.929  53.368  41.838  0.00  0.00     0.042 A 
HETATM   17  C   UNK N   1      31.608  53.155  43.046  0.00  0.00     0.057 A 
HETATM   18  C   UNK N   1      32.152  51.890  43.346  0.00  0.00     0.102 A 
HETATM   19  C   UNK N   1      32.038  50.851  42.402  0.00  0.00     0.099 A 
HETATM   20  C   UNK N   1      31.375  51.076  41.191  0.00  0.00     0.040 A 
HETATM   21  C   UNK N   1      30.810  52.320  40.915  0.00  0.00     0.020 A 
BRANCH  18  22
HETATM   22  O   UNK N   1      32.765  51.644  44.536  0.00  0.00    -0.353 OA
HETATM   23  C   UNK N   1      33.804  52.390  45.060  0.00  0.00     0.210 C 
ENDBRANCH  18  22
BRANCH  19  24
HETATM   24  O   UNK N   1      32.549  49.626  42.648  0.00  0.00    -0.358 OA
HETATM   25  H   UNK N   1      31.993  48.836  42.707  0.00  0.00     0.218 HD
ENDBRANCH  19  24
ENDBRANCH  14  16
ENDBRANCH  13  14
ENDBRANCH   1  13
BRANCH   3  26
HETATM   26  O   UNK N   1      25.961  54.076  41.617  0.00  0.00    -0.389 OA
HETATM   27  H   UNK N   1      25.874  55.060  41.705  0.00  0.00     0.210 HD
ENDBRANCH   3  26
BRANCH   3  28
HETATM   28  C   UNK N   1      27.221  52.421  40.343  0.00  0.00     0.012 C 
HETATM   29  C   UNK N   1      26.346  51.268  40.871  0.00  0.00     0.012 C 
HETATM   30  C   UNK N   1      27.835  51.999  38.992  0.00  0.00     0.012 C 
ENDBRANCH   3  28
BRANCH   9  31
HETATM   31  O   UNK N   1      28.590  58.360  41.752  0.00  0.00    -0.386 OA
HETATM   32  H   UNK N   1      28.097  59.117  42.163  0.00  0.00     0.211 HD
ENDBRANCH   9  31
TORSDOF 8
ENDMDL
MODEL 8
REMARK VINA RESULT:      -5.2      1.984      4.353
REMARK  8 active torsions:
REMARK  status: ('A' for Active; 'I' for Inactive)
REMARK    1  A    between atoms: C_2  and  O_3 
REMARK    2  A    between atoms: C_2  and  C_23 
REMARK    3  A    between atoms: O_3  and  C_4 
REMARK    4  A    between atoms: C_6  and  O_7 
REMARK    5  A    between atoms: C_6  and  C_9 
REMARK    6  A    between atoms: C_17  and  O_18 
REMARK    7  A    between atoms: C_25  and  O_26 
REMARK    8  A    between atoms: C_28  and  O_29 
ROOT
HETATM    1  C   UNK N   1      28.523  53.641  40.268  0.00  0.00     0.143 C 
HETATM    2  C   UNK N   1      27.981  55.089  40.430  0.00  0.00     0.062 C 
HETATM    3  C   UNK N   1      28.911  56.278  40.006  0.00  0.00     0.068 C 
HETATM    4  C   UNK N   1      27.901  57.439  40.044  0.00  0.00     0.040 C 
HETATM    5  C   UNK N   1      26.719  56.862  39.295  0.00  0.00     0.016 C 
HETATM    6  C   UNK N   1      26.555  55.418  39.841  0.00  0.00    -0.018 C 
HETATM    7  C   UNK N   1      26.010  54.569  38.699  0.00  0.00    -0.018 C 
HETATM    8  C   UNK N   1      25.994  53.228  38.562  0.00  0.00     0.007 C 
HETATM    9  C   UNK N   1      26.619  52.141  39.425  0.00  0.00     0.074 C 
HETATM   10  C   UNK N   1      27.455  52.600  40.637  0.00  0.00     0.074 C 
HETATM   11  C   UNK N   1      25.516  51.194  39.934  0.00  0.00     0.050 C 
HETATM   12  C   UNK N   1      25.485  55.446  40.966  0.00  0.00     0.020 C 
ENDROOT
BRANCH   1  13
HETATM   13  O   UNK N   1      29.577  53.456  41.140  0.00  0.00    -0.311 OA
BRANCH  13  14
HETATM   14  C   UNK N   1      30.537  52.502  41.022  0.00  0.00     0.293 C 
HETATM   15  O   UNK N   1      30.696  51.902  39.969  0.00  0.00    -0.259 OA
BRANCH  14  16
HETATM   16  C   UNK N   1      31.476  52.302  42.141  0.00  0.00     0.042 A 
HETATM   17  C   UNK N   1      31.645  53.305  43.104  0.00  0.00     0.057 A 
HETATM   18  C   UNK N   1      32.498  53.098  44.207  0.00  0.00     0.102 A 
HETATM   19  C   UNK N   1      33.208  51.886  44.310  0.00  0.00     0.099 A 
HETATM   20  C   UNK N   1      33.048  50.896  43.334  0.00  0.00     0.040 A 
HETATM   21  C   UNK N   1      32.177  51.094  42.265  0.00  0.00     0.020 A 
BRANCH  18  22
HETATM   22  O   UNK N   1      32.635  54.035  45.186  0.00  0.00    -0.353 OA
HETATM   23  C   UNK N   1      33.034  55.342  44.980  0.00  0.00     0.210 C 
ENDBRANCH  18  22
BRANCH  19  24
HETATM   24  O   UNK N   1      34.039  51.650  45.348  0.00  0.00    -0.358 OA
HETATM   25  H   UNK N   1      34.990  51.819  45.297  0.00  0.00     0.218 HD
ENDBRANCH  19  24
ENDBRANCH  14  16
ENDBRANCH  13  14
ENDBRANCH   1  13
BRANCH   3  26
HETATM   26  O   UNK N   1      29.319  56.100  38.666  0.00  0.00    -0.389 OA
HETATM   27  H   UNK N   1      29.228  55.139  38.440  0.00  0.00     0.210 HD
ENDBRANCH   3  26
BRANCH   3  28
HETATM   28  C   UNK N   1      30.184  56.574  40.898  0.00  0.00     0.012 C 
HETATM   29  C   UNK N   1      29.922  56.246  42.381  0.00  0.00     0.012 C 
HETATM   30  C   UNK N   1      31.472  55.855  40.451  0.00  0.00     0.012 C 
ENDBRANCH   3  28
BRANCH   9  31
HETATM   31  O   UNK N   1      27.501  51.413  38.596  0.00  0.00    -0.386 OA
HETATM   32  H   UNK N   1      27.015  51.124  37.780  0.00  0.00     0.211 HD
ENDBRANCH   9  31
TORSDOF 8
ENDMDL
MODEL 9
REMARK VINA RESULT:      -5.2      1.840      4.297
REMARK  8 active torsions:
REMARK  status: ('A' for Active; 'I' for Inactive)
REMARK    1  A    between atoms: C_2  and  O_3 
REMARK    2  A    between atoms: C_2  and  C_23 
REMARK    3  A    between atoms: O_3  and  C_4 
REMARK    4  A    between atoms: C_6  and  O_7 
REMARK    5  A    between atoms: C_6  and  C_9 
REMARK    6  A    between atoms: C_17  and  O_18 
REMARK    7  A    between atoms: C_25  and  O_26 
REMARK    8  A    between atoms: C_28  and  O_29 
ROOT
HETATM    1  C   UNK N   1      30.014  53.874  39.475  0.00  0.00     0.143 C 
HETATM    2  C   UNK N   1      29.179  54.568  40.587  0.00  0.00     0.062 C 
HETATM    3  C   UNK N   1      29.943  55.404  41.672  0.00  0.00     0.068 C 
HETATM    4  C   UNK N   1      28.758  56.123  42.344  0.00  0.00     0.040 C 
HETATM    5  C   UNK N   1      27.973  56.630  41.153  0.00  0.00     0.016 C 
HETATM    6  C   UNK N   1      27.943  55.446  40.149  0.00  0.00    -0.018 C 
HETATM    7  C   UNK N   1      27.920  56.049  38.750  0.00  0.00    -0.018 C 
HETATM    8  C   UNK N   1      28.204  55.472  37.566  0.00  0.00     0.007 C 
HETATM    9  C   UNK N   1      28.756  54.088  37.248  0.00  0.00     0.074 C 
HETATM   10  C   UNK N   1      29.108  53.182  38.445  0.00  0.00     0.074 C 
HETATM   11  C   UNK N   1      27.759  53.333  36.351  0.00  0.00     0.050 C 
HETATM   12  C   UNK N   1      26.614  54.671  40.356  0.00  0.00     0.020 C 
ENDROOT
BRANCH   1  13
HETATM   13  O   UNK N   1      30.792  52.887  40.048  0.00  0.00    -0.311 OA
BRANCH  13  14
HETATM   14  C   UNK N   1      30.336  51.689  40.498  0.00  0.00     0.293 C 
HETATM   15  O   UNK N   1      29.264  51.244  40.114  0.00  0.00    -0.259 OA
BRANCH  14  16
HETATM   16  C   UNK N   1      31.219  50.870  41.347  0.00  0.00     0.042 A 
HETATM   17  C   UNK N   1      32.207  51.482  42.129  0.00  0.00     0.057 A 
HETATM   18  C   UNK N   1      33.018  50.712  42.986  0.00  0.00     0.102 A 
HETATM   19  C   UNK N   1      32.850  49.314  43.019  0.00  0.00     0.099 A 
HETATM   20  C   UNK N   1      31.873  48.707  42.222  0.00  0.00     0.040 A 
HETATM   21  C   UNK N   1      31.052  49.479  41.402  0.00  0.00     0.020 A 
BRANCH  18  22
HETATM   22  O   UNK N   1      33.946  51.290  43.798  0.00  0.00    -0.353 OA
HETATM   23  C   UNK N   1      33.662  52.180  44.816  0.00  0.00     0.210 C 
ENDBRANCH  18  22
BRANCH  19  24
HETATM   24  O   UNK N   1      33.610  48.539  43.823  0.00  0.00    -0.358 OA
HETATM   25  H   UNK N   1      33.273  47.727  44.227  0.00  0.00     0.218 HD
ENDBRANCH  19  24
ENDBRANCH  14  16
ENDBRANCH  13  14
ENDBRANCH   1  13
BRANCH   3  26
HETATM   26  O   UNK N   1      30.741  56.379  41.037  0.00  0.00    -0.389 OA
HETATM   27  H   UNK N   1      30.421  56.482  40.104  0.00  0.00     0.210 HD
ENDBRANCH   3  26
BRANCH   3  28
HETATM   28  C   UNK N   1      30.827  54.617  42.722  0.00  0.00     0.012 C 
HETATM   29  C   UNK N   1      32.234  55.231  42.849  0.00  0.00     0.012 C 
HETATM   30  C   UNK N   1      30.210  54.494  44.130  0.00  0.00     0.012 C 
ENDBRANCH   3  28
BRANCH   9  31
HETATM   31  O   UNK N   1      29.961  54.279  36.536  0.00  0.00    -0.386 OA
HETATM   32  H   UNK N   1      29.756  54.690  35.656  0.00  0.00     0.211 HD
ENDBRANCH   9  31
TORSDOF 8
ENDMDL
