MODEL 1
REMARK VINA RESULT:      -6.2      0.000      0.000
REMARK  8 active torsions:
REMARK  status: ('A' for Active; 'I' for Inactive)
REMARK    1  A    between atoms: C_2  and  O_3 
REMARK    2  A    between atoms: C_2  and  C_23 
REMARK    3  A    between atoms: O_3  and  C_4 
REMARK    4  A    between atoms: C_6  and  O_7 
REMARK    5  A    between atoms: C_6  and  C_9 
REMARK    6  A    between atoms: C_16  and  O_17 
REMARK    7  A    between atoms: C_25  and  O_26 
REMARK    8  A    between atoms: C_28  and  O_29 
ROOT
HETATM    1  C   UNK N   1      30.830  52.323  42.011  0.00  0.00     0.163 C 
HETATM    2  C   UNK N   1      31.086  53.855  41.934  0.00  0.00     0.062 C 
HETATM    3  C   UNK N   1      29.906  54.709  41.326  0.00  0.00     0.068 C 
HETATM    4  C   UNK N   1      30.172  56.093  41.940  0.00  0.00     0.039 C 
HETATM    5  C   UNK N   1      30.449  55.735  43.390  0.00  0.00     0.012 C 
HETATM    6  C   UNK N   1      31.447  54.558  43.300  0.00  0.00    -0.032 C 
HETATM    7  C   UNK N   1      31.270  53.660  44.564  0.00  0.00     0.046 C 
HETATM    8  C   UNK N   1      32.337  52.568  44.794  0.00  0.00     0.147 C 
HETATM    9  C   UNK N   1      32.651  51.590  43.665  0.00  0.00    -0.057 C 
HETATM   10  C   UNK N   1      32.020  51.521  42.471  0.00  0.00     0.011 C 
HETATM   11  C   UNK N   1      33.769  50.602  43.923  0.00  0.00     0.046 C 
HETATM   12  C   UNK N   1      32.882  55.153  43.221  0.00  0.00     0.016 C 
ENDROOT
BRANCH   1  13
HETATM   13  O   UNK N   1      30.516  51.835  40.754  0.00  0.00    -0.308 OA
BRANCH  13  14
HETATM   14  C   UNK N   1      29.653  50.812  40.509  0.00  0.00     0.294 C 
HETATM   15  O   UNK N   1      30.028  49.650  40.575  0.00  0.00    -0.259 OA
BRANCH  14  16
HETATM   16  C   UNK N   1      28.247  51.117  40.169  0.00  0.00     0.042 A 
HETATM   17  C   UNK N   1      27.202  50.441  40.818  0.00  0.00     0.057 A 
HETATM   18  C   UNK N   1      25.859  50.754  40.530  0.00  0.00     0.102 A 
HETATM   19  C   UNK N   1      25.573  51.740  39.564  0.00  0.00     0.099 A 
HETATM   20  C   UNK N   1      26.619  52.397  38.906  0.00  0.00     0.040 A 
HETATM   21  C   UNK N   1      27.945  52.095  39.210  0.00  0.00     0.020 A 
BRANCH  18  22
HETATM   22  O   UNK N   1      24.830  50.137  41.174  0.00  0.00    -0.353 OA
HETATM   23  C   UNK N   1      24.079  49.099  40.659  0.00  0.00     0.210 C 
ENDBRANCH  18  22
BRANCH  19  24
HETATM   24  O   UNK N   1      24.300  52.073  39.264  0.00  0.00    -0.358 OA
HETATM   25  H   UNK N   1      24.011  52.249  38.358  0.00  0.00     0.218 HD
ENDBRANCH  19  24
ENDBRANCH  14  16
ENDBRANCH  13  14
ENDBRANCH   1  13
BRANCH   3  26
HETATM   26  O   UNK N   1      28.675  54.262  41.862  0.00  0.00    -0.389 OA
HETATM   27  H   UNK N   1      28.203  55.036  42.262  0.00  0.00     0.210 HD
ENDBRANCH   3  26
BRANCH   3  28
HETATM   28  C   UNK N   1      29.802  54.753  39.748  0.00  0.00     0.012 C 
HETATM   29  C   UNK N   1      29.090  56.034  39.268  0.00  0.00     0.012 C 
HETATM   30  C   UNK N   1      31.150  54.644  39.005  0.00  0.00     0.012 C 
ENDBRANCH   3  28
BRANCH   8  31
HETATM   31  O   UNK N   1      33.532  53.201  45.183  0.00  0.00    -0.391 OA
HETATM   32  H   UNK N   1      34.179  52.494  45.446  0.00  0.00     0.210 HD
ENDBRANCH   8  31
TORSDOF 8
ENDMDL
MODEL 2
REMARK VINA RESULT:      -6.0     18.005     21.530
REMARK  8 active torsions:
REMARK  status: ('A' for Active; 'I' for Inactive)
REMARK    1  A    between atoms: C_2  and  O_3 
REMARK    2  A    between atoms: C_2  and  C_23 
REMARK    3  A    between atoms: O_3  and  C_4 
REMARK    4  A    between atoms: C_6  and  O_7 
REMARK    5  A    between atoms: C_6  and  C_9 
REMARK    6  A    between atoms: C_16  and  O_17 
REMARK    7  A    between atoms: C_25  and  O_26 
REMARK    8  A    between atoms: C_28  and  O_29 
ROOT
HETATM    1  C   UNK N   1      48.719  57.161  40.653  0.00  0.00     0.163 C 
HETATM    2  C   UNK N   1      49.475  56.703  39.373  0.00  0.00     0.062 C 
HETATM    3  C   UNK N   1      50.550  55.568  39.591  0.00  0.00     0.068 C 
HETATM    4  C   UNK N   1      50.630  54.940  38.191  0.00  0.00     0.039 C 
HETATM    5  C   UNK N   1      49.161  54.812  37.829  0.00  0.00     0.012 C 
HETATM    6  C   UNK N   1      48.567  56.194  38.187  0.00  0.00    -0.032 C 
HETATM    7  C   UNK N   1      47.061  56.005  38.552  0.00  0.00     0.046 C 
HETATM    8  C   UNK N   1      46.219  57.291  38.702  0.00  0.00     0.147 C 
HETATM    9  C   UNK N   1      46.709  58.392  39.637  0.00  0.00    -0.057 C 
HETATM   10  C   UNK N   1      47.797  58.333  40.439  0.00  0.00     0.011 C 
HETATM   11  C   UNK N   1      45.885  59.662  39.671  0.00  0.00     0.046 C 
HETATM   12  C   UNK N   1      48.742  57.125  36.954  0.00  0.00     0.016 C 
ENDROOT
BRANCH   1  13
HETATM   13  O   UNK N   1      49.627  57.572  41.613  0.00  0.00    -0.308 OA
BRANCH  13  14
HETATM   14  C   UNK N   1      49.324  57.814  42.918  0.00  0.00     0.294 C 
HETATM   15  O   UNK N   1      48.712  58.823  43.239  0.00  0.00    -0.259 OA
BRANCH  14  16
HETATM   16  C   UNK N   1      49.737  56.839  43.949  0.00  0.00     0.042 A 
HETATM   17  C   UNK N   1      50.498  57.257  45.052  0.00  0.00     0.057 A 
HETATM   18  C   UNK N   1      50.861  56.342  46.060  0.00  0.00     0.102 A 
HETATM   19  C   UNK N   1      50.471  54.994  45.940  0.00  0.00     0.099 A 
HETATM   20  C   UNK N   1      49.729  54.578  44.829  0.00  0.00     0.040 A 
HETATM   21  C   UNK N   1      49.357  55.493  43.844  0.00  0.00     0.020 A 
BRANCH  18  22
HETATM   22  O   UNK N   1      51.567  56.735  47.156  0.00  0.00    -0.353 OA
HETATM   23  C   UNK N   1      52.882  57.155  47.144  0.00  0.00     0.210 C 
ENDBRANCH  18  22
BRANCH  19  24
HETATM   24  O   UNK N   1      50.793  54.088  46.887  0.00  0.00    -0.358 OA
HETATM   25  H   UNK N   1      51.602  54.154  47.412  0.00  0.00     0.218 HD
ENDBRANCH  19  24
ENDBRANCH  14  16
ENDBRANCH  13  14
ENDBRANCH   1  13
BRANCH   3  26
HETATM   26  O   UNK N   1      50.020  54.574  40.447  0.00  0.00    -0.389 OA
HETATM   27  H   UNK N   1      50.766  54.143  40.936  0.00  0.00     0.210 HD
ENDBRANCH   3  26
BRANCH   3  28
HETATM   28  C   UNK N   1      51.964  56.024  40.136  0.00  0.00     0.012 C 
HETATM   29  C   UNK N   1      52.301  55.330  41.471  0.00  0.00     0.012 C 
HETATM   30  C   UNK N   1      53.139  55.795  39.163  0.00  0.00     0.012 C 
ENDBRANCH   3  28
BRANCH   8  31
HETATM   31  O   UNK N   1      46.032  57.842  37.421  0.00  0.00    -0.391 OA
HETATM   32  H   UNK N   1      46.812  57.587  36.862  0.00  0.00     0.210 HD
ENDBRANCH   8  31
TORSDOF 8
ENDMDL
MODEL 3
REMARK VINA RESULT:      -6.0      2.003      4.073
REMARK  8 active torsions:
REMARK  status: ('A' for Active; 'I' for Inactive)
REMARK    1  A    between atoms: C_2  and  O_3 
REMARK    2  A    between atoms: C_2  and  C_23 
REMARK    3  A    between atoms: O_3  and  C_4 
REMARK    4  A    between atoms: C_6  and  O_7 
REMARK    5  A    between atoms: C_6  and  C_9 
REMARK    6  A    between atoms: C_16  and  O_17 
REMARK    7  A    between atoms: C_25  and  O_26 
REMARK    8  A    between atoms: C_28  and  O_29 
ROOT
HETATM    1  C   UNK N   1      31.232  52.037  42.640  0.00  0.00     0.163 C 
HETATM    2  C   UNK N   1      32.620  52.237  43.313  0.00  0.00     0.062 C 
HETATM    3  C   UNK N   1      32.699  53.409  44.366  0.00  0.00     0.068 C 
HETATM    4  C   UNK N   1      33.880  52.964  45.243  0.00  0.00     0.039 C 
HETATM    5  C   UNK N   1      33.560  51.496  45.463  0.00  0.00     0.012 C 
HETATM    6  C   UNK N   1      33.211  50.974  44.051  0.00  0.00    -0.032 C 
HETATM    7  C   UNK N   1      32.218  49.778  44.197  0.00  0.00     0.046 C 
HETATM    8  C   UNK N   1      31.933  48.954  42.923  0.00  0.00     0.147 C 
HETATM    9  C   UNK N   1      31.484  49.679  41.657  0.00  0.00    -0.057 C 
HETATM   10  C   UNK N   1      31.221  51.001  41.545  0.00  0.00     0.011 C 
HETATM   11  C   UNK N   1      31.308  48.825  40.419  0.00  0.00     0.046 C 
HETATM   12  C   UNK N   1      34.534  50.533  43.362  0.00  0.00     0.016 C 
ENDROOT
BRANCH   1  13
HETATM   13  O   UNK N   1      30.827  53.216  42.039  0.00  0.00    -0.308 OA
BRANCH  13  14
HETATM   14  C   UNK N   1      30.359  53.321  40.766  0.00  0.00     0.294 C 
HETATM   15  O   UNK N   1      31.129  53.488  39.831  0.00  0.00    -0.259 OA
BRANCH  14  16
HETATM   16  C   UNK N   1      28.905  53.223  40.518  0.00  0.00     0.042 A 
HETATM   17  C   UNK N   1      28.014  54.061  41.207  0.00  0.00     0.057 A 
HETATM   18  C   UNK N   1      26.630  54.003  40.948  0.00  0.00     0.102 A 
HETATM   19  C   UNK N   1      26.145  53.076  40.004  0.00  0.00     0.099 A 
HETATM   20  C   UNK N   1      27.035  52.229  39.335  0.00  0.00     0.040 A 
HETATM   21  C   UNK N   1      28.405  52.306  39.583  0.00  0.00     0.020 A 
BRANCH  18  22
HETATM   22  O   UNK N   1      25.753  54.832  41.578  0.00  0.00    -0.353 OA
HETATM   23  C   UNK N   1      25.775  56.211  41.508  0.00  0.00     0.210 C 
ENDBRANCH  18  22
BRANCH  19  24
HETATM   24  O   UNK N   1      24.828  52.993  39.723  0.00  0.00    -0.358 OA
HETATM   25  H   UNK N   1      24.258  53.774  39.675  0.00  0.00     0.218 HD
ENDBRANCH  19  24
ENDBRANCH  14  16
ENDBRANCH  13  14
ENDBRANCH   1  13
BRANCH   3  26
HETATM   26  O   UNK N   1      31.552  53.378  45.194  0.00  0.00    -0.389 OA
HETATM   27  H   UNK N   1      31.636  52.620  45.827  0.00  0.00     0.210 HD
ENDBRANCH   3  26
BRANCH   3  28
HETATM   28  C   UNK N   1      32.885  54.871  43.790  0.00  0.00     0.012 C 
HETATM   29  C   UNK N   1      31.553  55.647  43.788  0.00  0.00     0.012 C 
HETATM   30  C   UNK N   1      33.941  55.727  44.521  0.00  0.00     0.012 C 
ENDBRANCH   3  28
BRANCH   8  31
HETATM   31  O   UNK N   1      33.084  48.203  42.623  0.00  0.00    -0.391 OA
HETATM   32  H   UNK N   1      33.508  47.938  43.482  0.00  0.00     0.210 HD
ENDBRANCH   8  31
TORSDOF 8
ENDMDL
MODEL 4
REMARK VINA RESULT:      -5.9      1.892      4.031
REMARK  8 active torsions:
REMARK  status: ('A' for Active; 'I' for Inactive)
REMARK    1  A    between atoms: C_2  and  O_3 
REMARK    2  A    between atoms: C_2  and  C_23 
REMARK    3  A    between atoms: O_3  and  C_4 
REMARK    4  A    between atoms: C_6  and  O_7 
REMARK    5  A    between atoms: C_6  and  C_9 
REMARK    6  A    between atoms: C_16  and  O_17 
REMARK    7  A    between atoms: C_25  and  O_26 
REMARK    8  A    between atoms: C_28  and  O_29 
ROOT
HETATM    1  C   UNK N   1      31.250  52.172  42.558  0.00  0.00     0.163 C 
HETATM    2  C   UNK N   1      32.613  52.304  43.295  0.00  0.00     0.062 C 
HETATM    3  C   UNK N   1      32.694  53.458  44.368  0.00  0.00     0.068 C 
HETATM    4  C   UNK N   1      33.815  52.951  45.290  0.00  0.00     0.039 C 
HETATM    5  C   UNK N   1      33.424  51.496  45.474  0.00  0.00     0.012 C 
HETATM    6  C   UNK N   1      33.116  51.007  44.040  0.00  0.00    -0.032 C 
HETATM    7  C   UNK N   1      32.068  49.854  44.124  0.00  0.00     0.046 C 
HETATM    8  C   UNK N   1      31.807  49.059  42.827  0.00  0.00     0.147 C 
HETATM    9  C   UNK N   1      31.446  49.818  41.553  0.00  0.00    -0.057 C 
HETATM   10  C   UNK N   1      31.244  51.151  41.449  0.00  0.00     0.011 C 
HETATM   11  C   UNK N   1      31.290  48.988  40.296  0.00  0.00     0.046 C 
HETATM   12  C   UNK N   1      34.449  50.519  43.404  0.00  0.00     0.016 C 
ENDROOT
BRANCH   1  13
HETATM   13  O   UNK N   1      30.922  53.375  41.958  0.00  0.00    -0.308 OA
BRANCH  13  14
HETATM   14  C   UNK N   1      29.678  53.716  41.525  0.00  0.00     0.294 C 
HETATM   15  O   UNK N   1      28.924  54.361  42.240  0.00  0.00    -0.259 OA
BRANCH  14  16
HETATM   16  C   UNK N   1      29.245  53.306  40.173  0.00  0.00     0.042 A 
HETATM   17  C   UNK N   1      28.174  52.412  40.015  0.00  0.00     0.057 A 
HETATM   18  C   UNK N   1      27.728  52.047  38.730  0.00  0.00     0.102 A 
HETATM   19  C   UNK N   1      28.384  52.572  37.598  0.00  0.00     0.099 A 
HETATM   20  C   UNK N   1      29.463  53.448  37.760  0.00  0.00     0.040 A 
HETATM   21  C   UNK N   1      29.887  53.819  39.036  0.00  0.00     0.020 A 
BRANCH  18  22
HETATM   22  O   UNK N   1      26.668  51.211  38.554  0.00  0.00    -0.353 OA
HETATM   23  C   UNK N   1      26.009  50.542  39.567  0.00  0.00     0.210 C 
ENDBRANCH  18  22
BRANCH  19  24
HETATM   24  O   UNK N   1      27.983  52.253  36.350  0.00  0.00    -0.358 OA
HETATM   25  H   UNK N   1      28.600  52.199  35.606  0.00  0.00     0.218 HD
ENDBRANCH  19  24
ENDBRANCH  14  16
ENDBRANCH  13  14
ENDBRANCH   1  13
BRANCH   3  26
HETATM   26  O   UNK N   1      31.511  53.465  45.144  0.00  0.00    -0.389 OA
HETATM   27  H   UNK N   1      31.727  53.801  46.051  0.00  0.00     0.210 HD
ENDBRANCH   3  26
BRANCH   3  28
HETATM   28  C   UNK N   1      32.968  54.918  43.822  0.00  0.00     0.012 C 
HETATM   29  C   UNK N   1      31.683  55.771  43.833  0.00  0.00     0.012 C 
HETATM   30  C   UNK N   1      34.070  55.695  44.573  0.00  0.00     0.012 C 
ENDBRANCH   3  28
BRANCH   8  31
HETATM   31  O   UNK N   1      32.938  48.262  42.567  0.00  0.00    -0.391 OA
HETATM   32  H   UNK N   1      32.698  47.319  42.768  0.00  0.00     0.210 HD
ENDBRANCH   8  31
TORSDOF 8
ENDMDL
MODEL 5
REMARK VINA RESULT:      -5.8      1.895      6.554
REMARK  8 active torsions:
REMARK  status: ('A' for Active; 'I' for Inactive)
REMARK    1  A    between atoms: C_2  and  O_3 
REMARK    2  A    between atoms: C_2  and  C_23 
REMARK    3  A    between atoms: O_3  and  C_4 
REMARK    4  A    between atoms: C_6  and  O_7 
REMARK    5  A    between atoms: C_6  and  C_9 
REMARK    6  A    between atoms: C_16  and  O_17 
REMARK    7  A    between atoms: C_25  and  O_26 
REMARK    8  A    between atoms: C_28  and  O_29 
ROOT
HETATM    1  C   UNK N   1      28.144  52.838  40.056  0.00  0.00     0.163 C 
HETATM    2  C   UNK N   1      27.569  54.281  40.138  0.00  0.00     0.062 C 
HETATM    3  C   UNK N   1      28.595  55.438  39.821  0.00  0.00     0.068 C 
HETATM    4  C   UNK N   1      27.658  56.573  39.377  0.00  0.00     0.039 C 
HETATM    5  C   UNK N   1      26.716  55.843  38.438  0.00  0.00     0.012 C 
HETATM    6  C   UNK N   1      26.317  54.572  39.222  0.00  0.00    -0.032 C 
HETATM    7  C   UNK N   1      25.981  53.443  38.198  0.00  0.00     0.046 C 
HETATM    8  C   UNK N   1      25.324  52.166  38.766  0.00  0.00     0.147 C 
HETATM    9  C   UNK N   1      25.993  51.444  39.932  0.00  0.00    -0.057 C 
HETATM   10  C   UNK N   1      27.181  51.764  40.492  0.00  0.00     0.011 C 
HETATM   11  C   UNK N   1      25.251  50.252  40.499  0.00  0.00     0.046 C 
HETATM   12  C   UNK N   1      25.088  54.921  40.108  0.00  0.00     0.016 C 
ENDROOT
BRANCH   1  13
HETATM   13  O   UNK N   1      29.238  52.720  40.896  0.00  0.00    -0.308 OA
BRANCH  13  14
HETATM   14  C   UNK N   1      30.473  52.298  40.512  0.00  0.00     0.294 C 
HETATM   15  O   UNK N   1      30.967  52.686  39.463  0.00  0.00    -0.259 OA
BRANCH  14  16
HETATM   16  C   UNK N   1      31.222  51.366  41.381  0.00  0.00     0.042 A 
HETATM   17  C   UNK N   1      32.019  51.862  42.425  0.00  0.00     0.057 A 
HETATM   18  C   UNK N   1      32.704  50.980  43.284  0.00  0.00     0.102 A 
HETATM   19  C   UNK N   1      32.600  49.590  43.071  0.00  0.00     0.099 A 
HETATM   20  C   UNK N   1      31.820  49.102  42.016  0.00  0.00     0.040 A 
HETATM   21  C   UNK N   1      31.130  49.981  41.182  0.00  0.00     0.020 A 
BRANCH  18  22
HETATM   22  O   UNK N   1      33.452  51.438  44.326  0.00  0.00    -0.353 OA
HETATM   23  C   UNK N   1      33.546  52.760  44.714  0.00  0.00     0.210 C 
ENDBRANCH  18  22
BRANCH  19  24
HETATM   24  O   UNK N   1      33.235  48.713  43.875  0.00  0.00    -0.358 OA
HETATM   25  H   UNK N   1      34.032  48.239  43.598  0.00  0.00     0.218 HD
ENDBRANCH  19  24
ENDBRANCH  14  16
ENDBRANCH  13  14
ENDBRANCH   1  13
BRANCH   3  26
HETATM   26  O   UNK N   1      29.365  55.088  38.686  0.00  0.00    -0.389 OA
HETATM   27  H   UNK N   1      28.859  55.332  37.870  0.00  0.00     0.210 HD
ENDBRANCH   3  26
BRANCH   3  28
HETATM   28  C   UNK N   1      29.563  55.870  40.994  0.00  0.00     0.012 C 
HETATM   29  C   UNK N   1      31.001  56.094  40.482  0.00  0.00     0.012 C 
HETATM   30  C   UNK N   1      29.124  57.133  41.766  0.00  0.00     0.012 C 
ENDBRANCH   3  28
BRANCH   8  31
HETATM   31  O   UNK N   1      24.003  52.482  39.134  0.00  0.00    -0.391 OA
HETATM   32  H   UNK N   1      23.901  52.285  40.102  0.00  0.00     0.210 HD
ENDBRANCH   8  31
TORSDOF 8
ENDMDL
MODEL 6
REMARK VINA RESULT:      -5.7      2.573      4.658
REMARK  8 active torsions:
REMARK  status: ('A' for Active; 'I' for Inactive)
REMARK    1  A    between atoms: C_2  and  O_3 
REMARK    2  A    between atoms: C_2  and  C_23 
REMARK    3  A    between atoms: O_3  and  C_4 
REMARK    4  A    between atoms: C_6  and  O_7 
REMARK    5  A    between atoms: C_6  and  C_9 
REMARK    6  A    between atoms: C_16  and  O_17 
REMARK    7  A    between atoms: C_25  and  O_26 
REMARK    8  A    between atoms: C_28  and  O_29 
ROOT
HETATM    1  C   UNK N   1      31.445  52.411  42.849  0.00  0.00     0.163 C 
HETATM    2  C   UNK N   1      32.834  52.419  43.549  0.00  0.00     0.062 C 
HETATM    3  C   UNK N   1      33.012  53.495  44.690  0.00  0.00     0.068 C 
HETATM    4  C   UNK N   1      34.126  52.867  45.542  0.00  0.00     0.039 C 
HETATM    5  C   UNK N   1      33.656  51.428  45.647  0.00  0.00     0.012 C 
HETATM    6  C   UNK N   1      33.281  51.050  44.196  0.00  0.00    -0.032 C 
HETATM    7  C   UNK N   1      32.170  49.955  44.240  0.00  0.00     0.046 C 
HETATM    8  C   UNK N   1      31.827  49.261  42.904  0.00  0.00     0.147 C 
HETATM    9  C   UNK N   1      31.476  50.120  41.693  0.00  0.00    -0.057 C 
HETATM   10  C   UNK N   1      31.349  51.466  41.679  0.00  0.00     0.011 C 
HETATM   11  C   UNK N   1      31.237  49.382  40.392  0.00  0.00     0.046 C 
HETATM   12  C   UNK N   1      34.565  50.530  43.489  0.00  0.00     0.016 C 
ENDROOT
BRANCH   1  13
HETATM   13  O   UNK N   1      31.172  53.667  42.336  0.00  0.00    -0.308 OA
BRANCH  13  14
HETATM   14  C   UNK N   1      30.036  54.377  42.578  0.00  0.00     0.294 C 
HETATM   15  O   UNK N   1      29.900  54.999  43.621  0.00  0.00    -0.259 OA
BRANCH  14  16
HETATM   16  C   UNK N   1      28.965  54.398  41.559  0.00  0.00     0.042 A 
HETATM   17  C   UNK N   1      29.240  54.010  40.238  0.00  0.00     0.057 A 
HETATM   18  C   UNK N   1      28.216  53.988  39.271  0.00  0.00     0.102 A 
HETATM   19  C   UNK N   1      26.913  54.381  39.637  0.00  0.00     0.099 A 
HETATM   20  C   UNK N   1      26.649  54.786  40.950  0.00  0.00     0.040 A 
HETATM   21  C   UNK N   1      27.664  54.787  41.907  0.00  0.00     0.020 A 
BRANCH  18  22
HETATM   22  O   UNK N   1      28.452  53.579  37.993  0.00  0.00    -0.353 OA
HETATM   23  C   UNK N   1      29.578  53.889  37.257  0.00  0.00     0.210 C 
ENDBRANCH  18  22
BRANCH  19  24
HETATM   24  O   UNK N   1      25.904  54.367  38.742  0.00  0.00    -0.358 OA
HETATM   25  H   UNK N   1      25.055  53.941  38.925  0.00  0.00     0.218 HD
ENDBRANCH  19  24
ENDBRANCH  14  16
ENDBRANCH  13  14
ENDBRANCH   1  13
BRANCH   3  26
HETATM   26  O   UNK N   1      31.853  53.519  45.501  0.00  0.00    -0.389 OA
HETATM   27  H   UNK N   1      31.061  53.350  44.930  0.00  0.00     0.210 HD
ENDBRANCH   3  26
BRANCH   3  28
HETATM   28  C   UNK N   1      33.355  54.969  44.228  0.00  0.00     0.012 C 
HETATM   29  C   UNK N   1      33.589  55.896  45.438  0.00  0.00     0.012 C 
HETATM   30  C   UNK N   1      34.572  55.087  43.287  0.00  0.00     0.012 C 
ENDBRANCH   3  28
BRANCH   8  31
HETATM   31  O   UNK N   1      32.902  48.420  42.560  0.00  0.00    -0.391 OA
HETATM   32  H   UNK N   1      32.528  47.535  42.309  0.00  0.00     0.210 HD
ENDBRANCH   8  31
TORSDOF 8
ENDMDL
MODEL 7
REMARK VINA RESULT:      -5.6     18.103     21.043
REMARK  8 active torsions:
REMARK  status: ('A' for Active; 'I' for Inactive)
REMARK    1  A    between atoms: C_2  and  O_3 
REMARK    2  A    between atoms: C_2  and  C_23 
REMARK    3  A    between atoms: O_3  and  C_4 
REMARK    4  A    between atoms: C_6  and  O_7 
REMARK    5  A    between atoms: C_6  and  C_9 
REMARK    6  A    between atoms: C_16  and  O_17 
REMARK    7  A    between atoms: C_25  and  O_26 
REMARK    8  A    between atoms: C_28  and  O_29 
ROOT
HETATM    1  C   UNK N   1      49.381  57.370  40.647  0.00  0.00     0.163 C 
HETATM    2  C   UNK N   1      49.876  56.856  39.265  0.00  0.00     0.062 C 
HETATM    3  C   UNK N   1      51.025  55.775  39.317  0.00  0.00     0.068 C 
HETATM    4  C   UNK N   1      50.842  55.060  37.969  0.00  0.00     0.039 C 
HETATM    5  C   UNK N   1      49.338  54.859  37.931  0.00  0.00     0.012 C 
HETATM    6  C   UNK N   1      48.767  56.240  38.327  0.00  0.00    -0.032 C 
HETATM    7  C   UNK N   1      47.380  56.025  39.009  0.00  0.00     0.046 C 
HETATM    8  C   UNK N   1      46.528  57.288  39.260  0.00  0.00     0.147 C 
HETATM    9  C   UNK N   1      47.149  58.464  40.008  0.00  0.00    -0.057 C 
HETATM   10  C   UNK N   1      48.381  58.495  40.565  0.00  0.00     0.011 C 
HETATM   11  C   UNK N   1      46.291  59.705  40.142  0.00  0.00     0.046 C 
HETATM   12  C   UNK N   1      48.639  57.095  37.034  0.00  0.00     0.016 C 
ENDROOT
BRANCH   1  13
HETATM   13  O   UNK N   1      50.448  57.874  41.371  0.00  0.00    -0.308 OA
BRANCH  13  14
HETATM   14  C   UNK N   1      50.831  57.435  42.601  0.00  0.00     0.294 C 
HETATM   15  O   UNK N   1      52.012  57.428  42.920  0.00  0.00    -0.259 OA
BRANCH  14  16
HETATM   16  C   UNK N   1      49.803  56.974  43.557  0.00  0.00     0.042 A 
HETATM   17  C   UNK N   1      49.229  57.876  44.466  0.00  0.00     0.057 A 
HETATM   18  C   UNK N   1      48.219  57.454  45.353  0.00  0.00     0.102 A 
HETATM   19  C   UNK N   1      47.806  56.107  45.336  0.00  0.00     0.099 A 
HETATM   20  C   UNK N   1      48.396  55.207  44.442  0.00  0.00     0.040 A 
HETATM   21  C   UNK N   1      49.381  55.636  43.553  0.00  0.00     0.020 A 
BRANCH  18  22
HETATM   22  O   UNK N   1      47.622  58.322  46.217  0.00  0.00    -0.353 OA
HETATM   23  C   UNK N   1      46.707  59.291  45.860  0.00  0.00     0.210 C 
ENDBRANCH  18  22
BRANCH  19  24
HETATM   24  O   UNK N   1      46.838  55.665  46.165  0.00  0.00    -0.358 OA
HETATM   25  H   UNK N   1      46.593  56.136  46.974  0.00  0.00     0.218 HD
ENDBRANCH  19  24
ENDBRANCH  14  16
ENDBRANCH  13  14
ENDBRANCH   1  13
BRANCH   3  26
HETATM   26  O   UNK N   1      50.731  54.821  40.320  0.00  0.00    -0.389 OA
HETATM   27  H   UNK N   1      50.034  55.193  40.918  0.00  0.00     0.210 HD
ENDBRANCH   3  26
BRANCH   3  28
HETATM   28  C   UNK N   1      52.498  56.313  39.526  0.00  0.00     0.012 C 
HETATM   29  C   UNK N   1      53.293  55.411  40.491  0.00  0.00     0.012 C 
HETATM   30  C   UNK N   1      53.320  56.476  38.230  0.00  0.00     0.012 C 
ENDBRANCH   3  28
BRANCH   8  31
HETATM   31  O   UNK N   1      46.053  57.748  38.018  0.00  0.00    -0.391 OA
HETATM   32  H   UNK N   1      45.879  58.723  38.100  0.00  0.00     0.210 HD
ENDBRANCH   8  31
TORSDOF 8
ENDMDL
MODEL 8
REMARK VINA RESULT:      -5.5      2.126      6.109
REMARK  8 active torsions:
REMARK  status: ('A' for Active; 'I' for Inactive)
REMARK    1  A    between atoms: C_2  and  O_3 
REMARK    2  A    between atoms: C_2  and  C_23 
REMARK    3  A    between atoms: O_3  and  C_4 
REMARK    4  A    between atoms: C_6  and  O_7 
REMARK    5  A    between atoms: C_6  and  C_9 
REMARK    6  A    between atoms: C_16  and  O_17 
REMARK    7  A    between atoms: C_25  and  O_26 
REMARK    8  A    between atoms: C_28  and  O_29 
ROOT
HETATM    1  C   UNK N   1      28.121  53.229  40.924  0.00  0.00     0.163 C 
HETATM    2  C   UNK N   1      27.280  53.824  39.759  0.00  0.00     0.062 C 
HETATM    3  C   UNK N   1      26.253  52.831  39.088  0.00  0.00     0.068 C 
HETATM    4  C   UNK N   1      25.221  53.802  38.493  0.00  0.00     0.039 C 
HETATM    5  C   UNK N   1      25.008  54.766  39.646  0.00  0.00     0.012 C 
HETATM    6  C   UNK N   1      26.440  55.114  40.111  0.00  0.00    -0.032 C 
HETATM    7  C   UNK N   1      26.395  55.469  41.630  0.00  0.00     0.046 C 
HETATM    8  C   UNK N   1      27.675  56.084  42.237  0.00  0.00     0.147 C 
HETATM    9  C   UNK N   1      29.005  55.360  42.048  0.00  0.00    -0.057 C 
HETATM   10  C   UNK N   1      29.182  54.157  41.456  0.00  0.00     0.011 C 
HETATM   11  C   UNK N   1      30.234  56.060  42.589  0.00  0.00     0.046 C 
HETATM   12  C   UNK N   1      26.942  56.315  39.261  0.00  0.00     0.016 C 
ENDROOT
BRANCH   1  13
HETATM   13  O   UNK N   1      28.797  52.103  40.487  0.00  0.00    -0.308 OA
BRANCH  13  14
HETATM   14  C   UNK N   1      30.139  52.035  40.272  0.00  0.00     0.294 C 
HETATM   15  O   UNK N   1      30.660  52.680  39.373  0.00  0.00    -0.259 OA
BRANCH  14  16
HETATM   16  C   UNK N   1      30.969  51.177  41.143  0.00  0.00     0.042 A 
HETATM   17  C   UNK N   1      31.841  51.755  42.079  0.00  0.00     0.057 A 
HETATM   18  C   UNK N   1      32.606  50.945  42.942  0.00  0.00     0.102 A 
HETATM   19  C   UNK N   1      32.504  49.543  42.841  0.00  0.00     0.099 A 
HETATM   20  C   UNK N   1      31.648  48.972  41.893  0.00  0.00     0.040 A 
HETATM   21  C   UNK N   1      30.880  49.780  41.055  0.00  0.00     0.020 A 
BRANCH  18  22
HETATM   22  O   UNK N   1      33.430  51.486  43.882  0.00  0.00    -0.353 OA
HETATM   23  C   UNK N   1      33.282  52.741  44.438  0.00  0.00     0.210 C 
ENDBRANCH  18  22
BRANCH  19  24
HETATM   24  O   UNK N   1      33.214  48.733  43.653  0.00  0.00    -0.358 OA
HETATM   25  H   UNK N   1      32.945  47.823  43.840  0.00  0.00     0.218 HD
ENDBRANCH  19  24
ENDBRANCH  14  16
ENDBRANCH  13  14
ENDBRANCH   1  13
BRANCH   3  26
HETATM   26  O   UNK N   1      25.580  52.097  40.094  0.00  0.00    -0.389 OA
HETATM   27  H   UNK N   1      25.757  51.132  39.956  0.00  0.00     0.210 HD
ENDBRANCH   3  26
BRANCH   3  28
HETATM   28  C   UNK N   1      26.836  51.827  38.013  0.00  0.00     0.012 C 
HETATM   29  C   UNK N   1      25.711  51.184  37.178  0.00  0.00     0.012 C 
HETATM   30  C   UNK N   1      27.867  52.442  37.043  0.00  0.00     0.012 C 
ENDBRANCH   3  28
BRANCH   8  31
HETATM   31  O   UNK N   1      27.805  57.395  41.744  0.00  0.00    -0.391 OA
HETATM   32  H   UNK N   1      27.710  57.360  40.756  0.00  0.00     0.210 HD
ENDBRANCH   8  31
TORSDOF 8
ENDMDL
MODEL 9
REMARK VINA RESULT:      -5.5      3.289      5.547
REMARK  8 active torsions:
REMARK  status: ('A' for Active; 'I' for Inactive)
REMARK    1  A    between atoms: C_2  and  O_3 
REMARK    2  A    between atoms: C_2  and  C_23 
REMARK    3  A    between atoms: O_3  and  C_4 
REMARK    4  A    between atoms: C_6  and  O_7 
REMARK    5  A    between atoms: C_6  and  C_9 
REMARK    6  A    between atoms: C_16  and  O_17 
REMARK    7  A    between atoms: C_25  and  O_26 
REMARK    8  A    between atoms: C_28  and  O_29 
ROOT
HETATM    1  C   UNK N   1      31.477  52.505  42.845  0.00  0.00     0.163 C 
HETATM    2  C   UNK N   1      32.860  52.461  43.556  0.00  0.00     0.062 C 
HETATM    3  C   UNK N   1      33.063  53.521  44.708  0.00  0.00     0.068 C 
HETATM    4  C   UNK N   1      34.150  52.850  45.563  0.00  0.00     0.039 C 
HETATM    5  C   UNK N   1      33.633  51.426  45.651  0.00  0.00     0.012 C 
HETATM    6  C   UNK N   1      33.258  51.073  44.193  0.00  0.00    -0.032 C 
HETATM    7  C   UNK N   1      32.113  50.014  44.219  0.00  0.00     0.046 C 
HETATM    8  C   UNK N   1      31.758  49.343  42.874  0.00  0.00     0.147 C 
HETATM    9  C   UNK N   1      31.444  50.224  41.668  0.00  0.00    -0.057 C 
HETATM   10  C   UNK N   1      31.360  51.574  41.666  0.00  0.00     0.011 C 
HETATM   11  C   UNK N   1      31.192  49.506  40.358  0.00  0.00     0.046 C 
HETATM   12  C   UNK N   1      34.530  50.519  43.492  0.00  0.00     0.016 C 
ENDROOT
BRANCH   1  13
HETATM   13  O   UNK N   1      31.248  53.773  42.342  0.00  0.00    -0.308 OA
BRANCH  13  14
HETATM   14  C   UNK N   1      30.217  54.583  42.710  0.00  0.00     0.294 C 
HETATM   15  O   UNK N   1      29.828  54.609  43.868  0.00  0.00    -0.259 OA
BRANCH  14  16
HETATM   16  C   UNK N   1      29.574  55.442  41.694  0.00  0.00     0.042 A 
HETATM   17  C   UNK N   1      29.301  56.789  41.979  0.00  0.00     0.057 A 
HETATM   18  C   UNK N   1      28.725  57.626  41.003  0.00  0.00     0.102 A 
HETATM   19  C   UNK N   1      28.404  57.091  39.739  0.00  0.00     0.099 A 
HETATM   20  C   UNK N   1      28.660  55.743  39.466  0.00  0.00     0.040 A 
HETATM   21  C   UNK N   1      29.247  54.925  40.432  0.00  0.00     0.020 A 
BRANCH  18  22
HETATM   22  O   UNK N   1      28.487  58.945  41.247  0.00  0.00    -0.353 OA
HETATM   23  C   UNK N   1      27.769  59.436  42.318  0.00  0.00     0.210 C 
ENDBRANCH  18  22
BRANCH  19  24
HETATM   24  O   UNK N   1      27.858  57.861  38.775  0.00  0.00    -0.358 OA
HETATM   25  H   UNK N   1      28.221  58.724  38.534  0.00  0.00     0.218 HD
ENDBRANCH  19  24
ENDBRANCH  14  16
ENDBRANCH  13  14
ENDBRANCH   1  13
BRANCH   3  26
HETATM   26  O   UNK N   1      31.899  53.575  45.511  0.00  0.00    -0.389 OA
HETATM   27  H   UNK N   1      31.210  54.108  45.038  0.00  0.00     0.210 HD
ENDBRANCH   3  26
BRANCH   3  28
HETATM   28  C   UNK N   1      33.456  54.987  44.262  0.00  0.00     0.012 C 
HETATM   29  C   UNK N   1      33.765  55.880  45.481  0.00  0.00     0.012 C 
HETATM   30  C   UNK N   1      34.650  55.071  43.288  0.00  0.00     0.012 C 
ENDBRANCH   3  28
BRANCH   8  31
HETATM   31  O   UNK N   1      32.808  48.472  42.530  0.00  0.00    -0.391 OA
HETATM   32  H   UNK N   1      33.282  48.220  43.367  0.00  0.00     0.210 HD
ENDBRANCH   8  31
TORSDOF 8
ENDMDL
