MODEL 1
REMARK VINA RESULT:      -6.0      0.000      0.000
REMARK  7 active torsions:
REMARK  status: ('A' for Active; 'I' for Inactive)
REMARK    1  A    between atoms: C_5  and  O_6 
REMARK    2  A    between atoms: O_6  and  C_7 
REMARK    3  A    between atoms: C_7  and  C_9 
REMARK    4  A    between atoms: C_11  and  O_12 
REMARK    5  A    between atoms: C_14  and  O_15 
REMARK    6  A    between atoms: C_20  and  O_21 
REMARK    7  A    between atoms: C_20  and  C_23 
ROOT
HETATM    1  O   UNK N   1      33.211  52.371  45.502  0.00  0.00    -0.293 OA
HETATM    2  C   UNK N   1      32.502  52.439  44.508  0.00  0.00     0.155 C 
HETATM    3  C   UNK N   1      32.792  51.520  43.365  0.00  0.00    -0.018 C 
HETATM    4  C   UNK N   1      32.075  51.474  42.219  0.00  0.00     0.016 C 
HETATM    5  C   UNK N   1      30.844  52.294  41.902  0.00  0.00     0.163 C 
HETATM    6  C   UNK N   1      31.117  53.825  41.881  0.00  0.00     0.062 C 
HETATM    7  C   UNK N   1      29.899  54.695  41.387  0.00  0.00     0.068 C 
HETATM    8  C   UNK N   1      30.207  56.054  42.046  0.00  0.00     0.039 C 
HETATM    9  C   UNK N   1      30.573  55.639  43.457  0.00  0.00     0.013 C 
HETATM   10  C   UNK N   1      31.552  54.460  43.260  0.00  0.00    -0.028 C 
HETATM   11  C   UNK N   1      31.435  53.506  44.480  0.00  0.00     0.093 C 
HETATM   12  C   UNK N   1      32.999  55.021  43.151  0.00  0.00     0.016 C 
HETATM   13  C   UNK N   1      33.988  50.604  43.501  0.00  0.00     0.052 C 
ENDROOT
BRANCH   5  14
HETATM   14  O   UNK N   1      30.384  51.908  40.661  0.00  0.00    -0.308 OA
BRANCH  14  15
HETATM   15  C   UNK N   1      29.515  50.885  40.439  0.00  0.00     0.294 C 
HETATM   16  O   UNK N   1      29.877  49.723  40.553  0.00  0.00    -0.259 OA
BRANCH  15  17
HETATM   17  C   UNK N   1      28.114  51.202  40.086  0.00  0.00     0.042 A 
HETATM   18  C   UNK N   1      27.072  50.530  40.738  0.00  0.00     0.057 A 
HETATM   19  C   UNK N   1      25.728  50.803  40.422  0.00  0.00     0.102 A 
HETATM   20  C   UNK N   1      25.439  51.769  39.437  0.00  0.00     0.099 A 
HETATM   21  C   UNK N   1      26.481  52.440  38.788  0.00  0.00     0.040 A 
HETATM   22  C   UNK N   1      27.812  52.163  39.108  0.00  0.00     0.020 A 
BRANCH  19  23
HETATM   23  O   UNK N   1      24.707  50.158  41.048  0.00  0.00    -0.353 OA
HETATM   24  C   UNK N   1      24.023  49.072  40.534  0.00  0.00     0.210 C 
ENDBRANCH  19  23
BRANCH  20  25
HETATM   25  O   UNK N   1      24.163  52.059  39.104  0.00  0.00    -0.358 OA
HETATM   26  H   UNK N   1      23.451  51.408  39.168  0.00  0.00     0.218 HD
ENDBRANCH  20  25
ENDBRANCH  15  17
ENDBRANCH  14  15
ENDBRANCH   5  14
BRANCH   7  27
HETATM   27  O   UNK N   1      28.728  54.141  41.956  0.00  0.00    -0.389 OA
HETATM   28  H   UNK N   1      28.831  54.094  42.940  0.00  0.00     0.210 HD
ENDBRANCH   7  27
BRANCH   7  29
HETATM   29  C   UNK N   1      29.707  54.789  39.818  0.00  0.00     0.012 C 
HETATM   30  C   UNK N   1      28.938  56.057  39.398  0.00  0.00     0.012 C 
HETATM   31  C   UNK N   1      31.021  54.741  39.008  0.00  0.00     0.012 C 
ENDBRANCH   7  29
TORSDOF 7
ENDMDL
MODEL 2
REMARK VINA RESULT:      -5.7      1.776      6.624
REMARK  7 active torsions:
REMARK  status: ('A' for Active; 'I' for Inactive)
REMARK    1  A    between atoms: C_5  and  O_6 
REMARK    2  A    between atoms: O_6  and  C_7 
REMARK    3  A    between atoms: C_7  and  C_9 
REMARK    4  A    between atoms: C_11  and  O_12 
REMARK    5  A    between atoms: C_14  and  O_15 
REMARK    6  A    between atoms: C_20  and  O_21 
REMARK    7  A    between atoms: C_20  and  C_23 
ROOT
HETATM    1  O   UNK N   1      24.467  51.599  38.347  0.00  0.00    -0.293 OA
HETATM    2  C   UNK N   1      25.532  52.008  38.786  0.00  0.00     0.155 C 
HETATM    3  C   UNK N   1      26.121  51.319  39.975  0.00  0.00    -0.018 C 
HETATM    4  C   UNK N   1      27.302  51.652  40.546  0.00  0.00     0.016 C 
HETATM    5  C   UNK N   1      28.250  52.732  40.071  0.00  0.00     0.163 C 
HETATM    6  C   UNK N   1      27.624  54.155  40.110  0.00  0.00     0.062 C 
HETATM    7  C   UNK N   1      28.637  55.318  39.788  0.00  0.00     0.068 C 
HETATM    8  C   UNK N   1      27.685  56.425  39.291  0.00  0.00     0.039 C 
HETATM    9  C   UNK N   1      26.782  55.656  38.347  0.00  0.00     0.013 C 
HETATM   10  C   UNK N   1      26.398  54.389  39.142  0.00  0.00    -0.028 C 
HETATM   11  C   UNK N   1      26.133  53.232  38.140  0.00  0.00     0.093 C 
HETATM   12  C   UNK N   1      25.117  54.685  39.974  0.00  0.00     0.016 C 
HETATM   13  C   UNK N   1      25.320  50.192  40.588  0.00  0.00     0.052 C 
ENDROOT
BRANCH   5  14
HETATM   14  O   UNK N   1      29.359  52.712  40.890  0.00  0.00    -0.308 OA
BRANCH  14  15
HETATM   15  C   UNK N   1      30.588  52.260  40.521  0.00  0.00     0.294 C 
HETATM   16  O   UNK N   1      31.111  52.648  39.486  0.00  0.00    -0.259 OA
BRANCH  15  17
HETATM   17  C   UNK N   1      31.297  51.313  41.408  0.00  0.00     0.042 A 
HETATM   18  C   UNK N   1      32.149  51.808  42.403  0.00  0.00     0.057 A 
HETATM   19  C   UNK N   1      32.843  50.935  43.261  0.00  0.00     0.102 A 
HETATM   20  C   UNK N   1      32.669  49.545  43.109  0.00  0.00     0.099 A 
HETATM   21  C   UNK N   1      31.816  49.051  42.116  0.00  0.00     0.040 A 
HETATM   22  C   UNK N   1      31.131  49.926  41.269  0.00  0.00     0.020 A 
BRANCH  19  23
HETATM   23  O   UNK N   1      33.674  51.404  44.231  0.00  0.00    -0.353 OA
HETATM   24  C   UNK N   1      33.581  52.652  44.818  0.00  0.00     0.210 C 
ENDBRANCH  19  23
BRANCH  20  25
HETATM   25  O   UNK N   1      33.317  48.673  43.910  0.00  0.00    -0.358 OA
HETATM   26  H   UNK N   1      34.265  48.742  44.090  0.00  0.00     0.218 HD
ENDBRANCH  20  25
ENDBRANCH  15  17
ENDBRANCH  14  15
ENDBRANCH   5  14
BRANCH   7  27
HETATM   27  O   UNK N   1      29.458  54.879  38.722  0.00  0.00    -0.389 OA
HETATM   28  H   UNK N   1      30.409  55.035  38.952  0.00  0.00     0.210 HD
ENDBRANCH   7  27
BRANCH   7  29
HETATM   29  C   UNK N   1      29.564  55.781  40.985  0.00  0.00     0.012 C 
HETATM   30  C   UNK N   1      31.014  56.049  40.533  0.00  0.00     0.012 C 
HETATM   31  C   UNK N   1      29.063  57.034  41.736  0.00  0.00     0.012 C 
ENDBRANCH   7  29
TORSDOF 7
ENDMDL
MODEL 3
REMARK VINA RESULT:      -5.6      2.319      7.181
REMARK  7 active torsions:
REMARK  status: ('A' for Active; 'I' for Inactive)
REMARK    1  A    between atoms: C_5  and  O_6 
REMARK    2  A    between atoms: O_6  and  C_7 
REMARK    3  A    between atoms: C_7  and  C_9 
REMARK    4  A    between atoms: C_11  and  O_12 
REMARK    5  A    between atoms: C_14  and  O_15 
REMARK    6  A    between atoms: C_20  and  O_21 
REMARK    7  A    between atoms: C_20  and  C_23 
ROOT
HETATM    1  O   UNK N   1      27.135  58.808  37.989  0.00  0.00    -0.293 OA
HETATM    2  C   UNK N   1      27.676  57.954  38.678  0.00  0.00     0.155 C 
HETATM    3  C   UNK N   1      29.099  58.167  39.084  0.00  0.00    -0.018 C 
HETATM    4  C   UNK N   1      29.808  57.317  39.861  0.00  0.00     0.016 C 
HETATM    5  C   UNK N   1      29.292  56.041  40.491  0.00  0.00     0.163 C 
HETATM    6  C   UNK N   1      28.832  54.986  39.446  0.00  0.00     0.062 C 
HETATM    7  C   UNK N   1      28.453  53.586  40.062  0.00  0.00     0.068 C 
HETATM    8  C   UNK N   1      27.498  53.028  38.987  0.00  0.00     0.039 C 
HETATM    9  C   UNK N   1      26.608  54.223  38.713  0.00  0.00     0.013 C 
HETATM   10  C   UNK N   1      27.596  55.400  38.556  0.00  0.00    -0.028 C 
HETATM   11  C   UNK N   1      26.886  56.709  38.999  0.00  0.00     0.093 C 
HETATM   12  C   UNK N   1      28.027  55.500  37.064  0.00  0.00     0.016 C 
HETATM   13  C   UNK N   1      29.789  59.406  38.560  0.00  0.00     0.052 C 
ENDROOT
BRANCH   5  14
HETATM   14  O   UNK N   1      30.309  55.502  41.250  0.00  0.00    -0.308 OA
BRANCH  14  15
HETATM   15  C   UNK N   1      30.466  55.695  42.587  0.00  0.00     0.294 C 
HETATM   16  O   UNK N   1      29.808  56.539  43.178  0.00  0.00    -0.259 OA
BRANCH  15  17
HETATM   17  C   UNK N   1      31.427  54.845  43.324  0.00  0.00     0.042 A 
HETATM   18  C   UNK N   1      31.355  53.452  43.193  0.00  0.00     0.057 A 
HETATM   19  C   UNK N   1      32.250  52.614  43.883  0.00  0.00     0.102 A 
HETATM   20  C   UNK N   1      33.230  53.195  44.713  0.00  0.00     0.099 A 
HETATM   21  C   UNK N   1      33.302  54.587  44.842  0.00  0.00     0.040 A 
HETATM   22  C   UNK N   1      32.409  55.411  44.152  0.00  0.00     0.020 A 
BRANCH  19  23
HETATM   23  O   UNK N   1      32.190  51.260  43.764  0.00  0.00    -0.353 OA
HETATM   24  C   UNK N   1      32.222  50.568  42.569  0.00  0.00     0.210 C 
ENDBRANCH  19  23
BRANCH  20  25
HETATM   25  O   UNK N   1      34.106  52.427  45.393  0.00  0.00    -0.358 OA
HETATM   26  H   UNK N   1      34.966  52.175  45.028  0.00  0.00     0.218 HD
ENDBRANCH  20  25
ENDBRANCH  15  17
ENDBRANCH  14  15
ENDBRANCH   5  14
BRANCH   7  27
HETATM   27  O   UNK N   1      27.737  53.832  41.258  0.00  0.00    -0.389 OA
HETATM   28  H   UNK N   1      28.159  54.585  41.745  0.00  0.00     0.210 HD
ENDBRANCH   7  27
BRANCH   7  29
HETATM   29  C   UNK N   1      29.665  52.620  40.385  0.00  0.00     0.012 C 
HETATM   30  C   UNK N   1      29.263  51.133  40.319  0.00  0.00     0.012 C 
HETATM   31  C   UNK N   1      30.900  52.817  39.478  0.00  0.00     0.012 C 
ENDBRANCH   7  29
TORSDOF 7
ENDMDL
MODEL 4
REMARK VINA RESULT:      -5.5      2.195      6.758
REMARK  7 active torsions:
REMARK  status: ('A' for Active; 'I' for Inactive)
REMARK    1  A    between atoms: C_5  and  O_6 
REMARK    2  A    between atoms: O_6  and  C_7 
REMARK    3  A    between atoms: C_7  and  C_9 
REMARK    4  A    between atoms: C_11  and  O_12 
REMARK    5  A    between atoms: C_14  and  O_15 
REMARK    6  A    between atoms: C_20  and  O_21 
REMARK    7  A    between atoms: C_20  and  C_23 
ROOT
HETATM    1  O   UNK N   1      27.349  51.572  37.743  0.00  0.00    -0.293 OA
HETATM    2  C   UNK N   1      27.667  52.433  38.550  0.00  0.00     0.155 C 
HETATM    3  C   UNK N   1      28.111  52.002  39.911  0.00  0.00    -0.018 C 
HETATM    4  C   UNK N   1      28.511  52.846  40.890  0.00  0.00     0.016 C 
HETATM    5  C   UNK N   1      28.627  54.351  40.778  0.00  0.00     0.163 C 
HETATM    6  C   UNK N   1      27.269  55.049  40.484  0.00  0.00     0.062 C 
HETATM    7  C   UNK N   1      27.325  56.623  40.534  0.00  0.00     0.068 C 
HETATM    8  C   UNK N   1      26.129  57.000  39.636  0.00  0.00     0.039 C 
HETATM    9  C   UNK N   1      26.325  56.074  38.453  0.00  0.00     0.013 C 
HETATM   10  C   UNK N   1      26.607  54.698  39.094  0.00  0.00    -0.028 C 
HETATM   11  C   UNK N   1      27.511  53.876  38.134  0.00  0.00     0.093 C 
HETATM   12  C   UNK N   1      25.255  53.962  39.323  0.00  0.00     0.016 C 
HETATM   13  C   UNK N   1      28.077  50.520  40.211  0.00  0.00     0.052 C 
ENDROOT
BRANCH   5  14
HETATM   14  O   UNK N   1      29.122  54.827  41.974  0.00  0.00    -0.308 OA
BRANCH  14  15
HETATM   15  C   UNK N   1      30.375  55.326  42.151  0.00  0.00     0.294 C 
HETATM   16  O   UNK N   1      30.724  56.353  41.587  0.00  0.00    -0.259 OA
BRANCH  15  17
HETATM   17  C   UNK N   1      31.302  54.621  43.063  0.00  0.00     0.042 A 
HETATM   18  C   UNK N   1      31.436  53.230  42.966  0.00  0.00     0.057 A 
HETATM   19  C   UNK N   1      32.306  52.527  43.821  0.00  0.00     0.102 A 
HETATM   20  C   UNK N   1      33.048  53.243  44.781  0.00  0.00     0.099 A 
HETATM   21  C   UNK N   1      32.915  54.632  44.875  0.00  0.00     0.040 A 
HETATM   22  C   UNK N   1      32.049  55.322  44.022  0.00  0.00     0.020 A 
BRANCH  19  23
HETATM   23  O   UNK N   1      32.444  51.176  43.738  0.00  0.00    -0.353 OA
HETATM   24  C   UNK N   1      32.224  50.426  42.597  0.00  0.00     0.210 C 
ENDBRANCH  19  23
BRANCH  20  25
HETATM   25  O   UNK N   1      33.892  52.606  45.621  0.00  0.00    -0.358 OA
HETATM   26  H   UNK N   1      33.721  51.712  45.947  0.00  0.00     0.218 HD
ENDBRANCH  20  25
ENDBRANCH  15  17
ENDBRANCH  14  15
ENDBRANCH   5  14
BRANCH   7  27
HETATM   27  O   UNK N   1      28.533  57.021  39.913  0.00  0.00    -0.389 OA
HETATM   28  H   UNK N   1      28.525  58.003  39.777  0.00  0.00     0.210 HD
ENDBRANCH   7  27
BRANCH   7  29
HETATM   29  C   UNK N   1      27.256  57.274  41.975  0.00  0.00     0.012 C 
HETATM   30  C   UNK N   1      27.747  58.735  41.982  0.00  0.00     0.012 C 
HETATM   31  C   UNK N   1      25.854  57.242  42.625  0.00  0.00     0.012 C 
ENDBRANCH   7  29
TORSDOF 7
ENDMDL
MODEL 5
REMARK VINA RESULT:      -5.5      2.097      6.277
REMARK  7 active torsions:
REMARK  status: ('A' for Active; 'I' for Inactive)
REMARK    1  A    between atoms: C_5  and  O_6 
REMARK    2  A    between atoms: O_6  and  C_7 
REMARK    3  A    between atoms: C_7  and  C_9 
REMARK    4  A    between atoms: C_11  and  O_12 
REMARK    5  A    between atoms: C_14  and  O_15 
REMARK    6  A    between atoms: C_20  and  O_21 
REMARK    7  A    between atoms: C_20  and  C_23 
ROOT
HETATM    1  O   UNK N   1      27.342  57.320  42.344  0.00  0.00    -0.293 OA
HETATM    2  C   UNK N   1      27.419  56.193  41.877  0.00  0.00     0.155 C 
HETATM    3  C   UNK N   1      28.768  55.559  41.770  0.00  0.00    -0.018 C 
HETATM    4  C   UNK N   1      28.994  54.313  41.294  0.00  0.00     0.016 C 
HETATM    5  C   UNK N   1      27.940  53.329  40.834  0.00  0.00     0.163 C 
HETATM    6  C   UNK N   1      27.118  53.839  39.617  0.00  0.00     0.062 C 
HETATM    7  C   UNK N   1      26.133  52.770  39.006  0.00  0.00     0.068 C 
HETATM    8  C   UNK N   1      25.085  53.674  38.326  0.00  0.00     0.039 C 
HETATM    9  C   UNK N   1      24.824  54.709  39.401  0.00  0.00     0.013 C 
HETATM   10  C   UNK N   1      26.233  55.121  39.878  0.00  0.00    -0.028 C 
HETATM   11  C   UNK N   1      26.148  55.557  41.367  0.00  0.00     0.093 C 
HETATM   12  C   UNK N   1      26.739  56.300  38.999  0.00  0.00     0.016 C 
HETATM   13  C   UNK N   1      29.957  56.390  42.199  0.00  0.00     0.052 C 
ENDROOT
BRANCH   5  14
HETATM   14  O   UNK N   1      28.579  52.159  40.480  0.00  0.00    -0.308 OA
BRANCH  14  15
HETATM   15  C   UNK N   1      29.905  52.054  40.197  0.00  0.00     0.294 C 
HETATM   16  O   UNK N   1      30.397  52.679  39.269  0.00  0.00    -0.259 OA
BRANCH  15  17
HETATM   17  C   UNK N   1      30.752  51.193  41.051  0.00  0.00     0.042 A 
HETATM   18  C   UNK N   1      31.639  51.785  41.959  0.00  0.00     0.057 A 
HETATM   19  C   UNK N   1      32.463  50.995  42.783  0.00  0.00     0.102 A 
HETATM   20  C   UNK N   1      32.384  49.592  42.686  0.00  0.00     0.099 A 
HETATM   21  C   UNK N   1      31.496  49.002  41.780  0.00  0.00     0.040 A 
HETATM   22  C   UNK N   1      30.682  49.794  40.966  0.00  0.00     0.020 A 
BRANCH  19  23
HETATM   23  O   UNK N   1      33.329  51.558  43.669  0.00  0.00    -0.353 OA
HETATM   24  C   UNK N   1      33.058  52.668  44.446  0.00  0.00     0.210 C 
ENDBRANCH  19  23
BRANCH  20  25
HETATM   25  O   UNK N   1      33.157  48.798  43.457  0.00  0.00    -0.358 OA
HETATM   26  H   UNK N   1      32.814  48.006  43.893  0.00  0.00     0.218 HD
ENDBRANCH  20  25
ENDBRANCH  15  17
ENDBRANCH  14  15
ENDBRANCH   5  14
BRANCH   7  27
HETATM   27  O   UNK N   1      25.538  52.079  40.089  0.00  0.00    -0.389 OA
HETATM   28  H   UNK N   1      25.563  52.651  40.898  0.00  0.00     0.210 HD
ENDBRANCH   7  27
BRANCH   7  29
HETATM   29  C   UNK N   1      26.781  51.713  38.023  0.00  0.00     0.012 C 
HETATM   30  C   UNK N   1      25.720  50.879  37.277  0.00  0.00     0.012 C 
HETATM   31  C   UNK N   1      27.734  52.319  36.969  0.00  0.00     0.012 C 
ENDBRANCH   7  29
TORSDOF 7
ENDMDL
MODEL 6
REMARK VINA RESULT:      -5.4     17.391     20.541
REMARK  7 active torsions:
REMARK  status: ('A' for Active; 'I' for Inactive)
REMARK    1  A    between atoms: C_5  and  O_6 
REMARK    2  A    between atoms: O_6  and  C_7 
REMARK    3  A    between atoms: C_7  and  C_9 
REMARK    4  A    between atoms: C_11  and  O_12 
REMARK    5  A    between atoms: C_14  and  O_15 
REMARK    6  A    between atoms: C_20  and  O_21 
REMARK    7  A    between atoms: C_20  and  C_23 
ROOT
HETATM    1  O   UNK N   1      30.150  37.062  54.694  0.00  0.00    -0.293 OA
HETATM    2  C   UNK N   1      29.901  38.036  55.390  0.00  0.00     0.155 C 
HETATM    3  C   UNK N   1      29.548  37.811  56.825  0.00  0.00    -0.018 C 
HETATM    4  C   UNK N   1      29.273  38.798  57.709  0.00  0.00     0.016 C 
HETATM    5  C   UNK N   1      29.317  40.285  57.430  0.00  0.00     0.163 C 
HETATM    6  C   UNK N   1      28.300  40.732  56.342  0.00  0.00     0.062 C 
HETATM    7  C   UNK N   1      28.199  42.294  56.152  0.00  0.00     0.068 C 
HETATM    8  C   UNK N   1      27.676  42.393  54.705  0.00  0.00     0.039 C 
HETATM    9  C   UNK N   1      28.565  41.399  53.985  0.00  0.00     0.013 C 
HETATM   10  C   UNK N   1      28.549  40.151  54.895  0.00  0.00    -0.028 C 
HETATM   11  C   UNK N   1      29.892  39.390  54.723  0.00  0.00     0.093 C 
HETATM   12  C   UNK N   1      27.357  39.241  54.479  0.00  0.00     0.016 C 
HETATM   13  C   UNK N   1      29.467  36.378  57.300  0.00  0.00     0.052 C 
ENDROOT
BRANCH   5  14
HETATM   14  O   UNK N   1      29.028  40.945  58.606  0.00  0.00    -0.308 OA
BRANCH  14  15
HETATM   15  C   UNK N   1      29.862  41.020  59.678  0.00  0.00     0.294 C 
HETATM   16  O   UNK N   1      29.523  40.578  60.766  0.00  0.00    -0.259 OA
BRANCH  15  17
HETATM   17  C   UNK N   1      31.202  41.621  59.500  0.00  0.00     0.042 A 
HETATM   18  C   UNK N   1      31.350  42.737  58.665  0.00  0.00     0.057 A 
HETATM   19  C   UNK N   1      32.611  43.330  58.470  0.00  0.00     0.102 A 
HETATM   20  C   UNK N   1      33.732  42.788  59.129  0.00  0.00     0.099 A 
HETATM   21  C   UNK N   1      33.583  41.675  59.964  0.00  0.00     0.040 A 
HETATM   22  C   UNK N   1      32.327  41.092  60.152  0.00  0.00     0.020 A 
BRANCH  19  23
HETATM   23  O   UNK N   1      32.768  44.414  57.661  0.00  0.00    -0.353 OA
HETATM   24  C   UNK N   1      31.775  45.326  57.359  0.00  0.00     0.210 C 
ENDBRANCH  19  23
BRANCH  20  25
HETATM   25  O   UNK N   1      34.960  43.327  58.967  0.00  0.00    -0.358 OA
HETATM   26  H   UNK N   1      35.698  43.118  59.556  0.00  0.00     0.218 HD
ENDBRANCH  20  25
ENDBRANCH  15  17
ENDBRANCH  14  15
ENDBRANCH   5  14
BRANCH   7  27
HETATM   27  O   UNK N   1      29.515  42.812  56.222  0.00  0.00    -0.389 OA
HETATM   28  H   UNK N   1      30.151  42.074  56.401  0.00  0.00     0.210 HD
ENDBRANCH   7  27
BRANCH   7  29
HETATM   29  C   UNK N   1      27.294  43.061  57.199  0.00  0.00     0.012 C 
HETATM   30  C   UNK N   1      28.038  44.235  57.867  0.00  0.00     0.012 C 
HETATM   31  C   UNK N   1      25.970  43.608  56.621  0.00  0.00     0.012 C 
ENDBRANCH   7  29
TORSDOF 7
ENDMDL
MODEL 7
REMARK VINA RESULT:      -5.4      2.428      7.557
REMARK  7 active torsions:
REMARK  status: ('A' for Active; 'I' for Inactive)
REMARK    1  A    between atoms: C_5  and  O_6 
REMARK    2  A    between atoms: O_6  and  C_7 
REMARK    3  A    between atoms: C_7  and  C_9 
REMARK    4  A    between atoms: C_11  and  O_12 
REMARK    5  A    between atoms: C_14  and  O_15 
REMARK    6  A    between atoms: C_20  and  O_21 
REMARK    7  A    between atoms: C_20  and  C_23 
ROOT
HETATM    1  O   UNK N   1      25.417  58.813  40.543  0.00  0.00    -0.293 OA
HETATM    2  C   UNK N   1      26.086  57.843  40.870  0.00  0.00     0.155 C 
HETATM    3  C   UNK N   1      27.352  58.078  41.629  0.00  0.00    -0.018 C 
HETATM    4  C   UNK N   1      28.173  57.097  42.071  0.00  0.00     0.016 C 
HETATM    5  C   UNK N   1      27.945  55.608  41.925  0.00  0.00     0.163 C 
HETATM    6  C   UNK N   1      27.891  55.141  40.442  0.00  0.00     0.062 C 
HETATM    7  C   UNK N   1      27.828  53.578  40.257  0.00  0.00     0.068 C 
HETATM    8  C   UNK N   1      27.172  53.461  38.866  0.00  0.00     0.039 C 
HETATM    9  C   UNK N   1      26.034  54.456  38.976  0.00  0.00     0.013 C 
HETATM   10  C   UNK N   1      26.690  55.712  39.590  0.00  0.00    -0.028 C 
HETATM   11  C   UNK N   1      25.620  56.483  40.410  0.00  0.00     0.093 C 
HETATM   12  C   UNK N   1      27.236  56.608  38.440  0.00  0.00     0.016 C 
HETATM   13  C   UNK N   1      27.746  59.514  41.889  0.00  0.00     0.052 C 
ENDROOT
BRANCH   5  14
HETATM   14  O   UNK N   1      28.981  54.956  42.558  0.00  0.00    -0.308 OA
BRANCH  14  15
HETATM   15  C   UNK N   1      30.294  55.298  42.452  0.00  0.00     0.294 C 
HETATM   16  O   UNK N   1      30.640  56.232  41.743  0.00  0.00    -0.259 OA
BRANCH  15  17
HETATM   17  C   UNK N   1      31.295  54.540  43.233  0.00  0.00     0.042 A 
HETATM   18  C   UNK N   1      32.212  55.234  44.032  0.00  0.00     0.057 A 
HETATM   19  C   UNK N   1      33.182  54.545  44.784  0.00  0.00     0.102 A 
HETATM   20  C   UNK N   1      33.220  53.137  44.725  0.00  0.00     0.099 A 
HETATM   21  C   UNK N   1      32.302  52.445  43.928  0.00  0.00     0.040 A 
HETATM   22  C   UNK N   1      31.343  53.138  43.184  0.00  0.00     0.020 A 
BRANCH  19  23
HETATM   23  O   UNK N   1      34.078  55.207  45.565  0.00  0.00    -0.353 OA
HETATM   24  C   UNK N   1      34.190  56.582  45.650  0.00  0.00     0.210 C 
ENDBRANCH  19  23
BRANCH  20  25
HETATM   25  O   UNK N   1      34.135  52.438  45.430  0.00  0.00    -0.358 OA
HETATM   26  H   UNK N   1      34.301  51.498  45.273  0.00  0.00     0.218 HD
ENDBRANCH  20  25
ENDBRANCH  15  17
ENDBRANCH  14  15
ENDBRANCH   5  14
BRANCH   7  27
HETATM   27  O   UNK N   1      26.950  53.071  41.244  0.00  0.00    -0.389 OA
HETATM   28  H   UNK N   1      27.139  53.514  42.111  0.00  0.00     0.210 HD
ENDBRANCH   7  27
BRANCH   7  29
HETATM   29  C   UNK N   1      29.209  52.811  40.364  0.00  0.00     0.012 C 
HETATM   30  C   UNK N   1      29.043  51.284  40.232  0.00  0.00     0.012 C 
HETATM   31  C   UNK N   1      30.273  53.263  39.339  0.00  0.00     0.012 C 
ENDBRANCH   7  29
TORSDOF 7
ENDMDL
MODEL 8
REMARK VINA RESULT:      -5.4     13.396     16.392
REMARK  7 active torsions:
REMARK  status: ('A' for Active; 'I' for Inactive)
REMARK    1  A    between atoms: C_5  and  O_6 
REMARK    2  A    between atoms: O_6  and  C_7 
REMARK    3  A    between atoms: C_7  and  C_9 
REMARK    4  A    between atoms: C_11  and  O_12 
REMARK    5  A    between atoms: C_14  and  O_15 
REMARK    6  A    between atoms: C_20  and  O_21 
REMARK    7  A    between atoms: C_20  and  C_23 
ROOT
HETATM    1  O   UNK N   1      43.744  49.472  46.443  0.00  0.00    -0.293 OA
HETATM    2  C   UNK N   1      43.069  48.470  46.626  0.00  0.00     0.155 C 
HETATM    3  C   UNK N   1      41.794  48.323  45.859  0.00  0.00    -0.018 C 
HETATM    4  C   UNK N   1      40.965  47.257  45.948  0.00  0.00     0.016 C 
HETATM    5  C   UNK N   1      41.191  46.018  46.787  0.00  0.00     0.163 C 
HETATM    6  C   UNK N   1      41.262  46.317  48.312  0.00  0.00     0.062 C 
HETATM    7  C   UNK N   1      41.323  45.033  49.223  0.00  0.00     0.068 C 
HETATM    8  C   UNK N   1      41.996  45.590  50.493  0.00  0.00     0.039 C 
HETATM    9  C   UNK N   1      43.134  46.402  49.910  0.00  0.00     0.013 C 
HETATM   10  C   UNK N   1      42.474  47.216  48.776  0.00  0.00    -0.028 C 
HETATM   11  C   UNK N   1      43.537  47.492  47.676  0.00  0.00     0.093 C 
HETATM   12  C   UNK N   1      41.945  48.557  49.361  0.00  0.00     0.016 C 
HETATM   13  C   UNK N   1      41.401  49.463  44.947  0.00  0.00     0.052 C 
ENDROOT
BRANCH   5  14
HETATM   14  O   UNK N   1      40.145  45.151  46.553  0.00  0.00    -0.308 OA
BRANCH  14  15
HETATM   15  C   UNK N   1      40.159  44.150  45.631  0.00  0.00     0.294 C 
HETATM   16  O   UNK N   1      39.130  43.809  45.065  0.00  0.00    -0.259 OA
BRANCH  15  17
HETATM   17  C   UNK N   1      41.446  43.499  45.302  0.00  0.00     0.042 A 
HETATM   18  C   UNK N   1      41.821  42.334  45.984  0.00  0.00     0.057 A 
HETATM   19  C   UNK N   1      43.040  41.691  45.700  0.00  0.00     0.102 A 
HETATM   20  C   UNK N   1      43.886  42.235  44.713  0.00  0.00     0.099 A 
HETATM   21  C   UNK N   1      43.509  43.397  44.031  0.00  0.00     0.040 A 
HETATM   22  C   UNK N   1      42.296  44.029  44.320  0.00  0.00     0.020 A 
BRANCH  19  23
HETATM   23  O   UNK N   1      43.416  40.560  46.355  0.00  0.00    -0.353 OA
HETATM   24  C   UNK N   1      42.546  39.649  46.926  0.00  0.00     0.210 C 
ENDBRANCH  19  23
BRANCH  20  25
HETATM   25  O   UNK N   1      45.064  41.650  44.411  0.00  0.00    -0.358 OA
HETATM   26  H   UNK N   1      45.130  40.904  43.798  0.00  0.00     0.218 HD
ENDBRANCH  20  25
ENDBRANCH  15  17
ENDBRANCH  14  15
ENDBRANCH   5  14
BRANCH   7  27
HETATM   27  O   UNK N   1      42.188  44.108  48.590  0.00  0.00    -0.389 OA
HETATM   28  H   UNK N   1      41.927  43.186  48.844  0.00  0.00     0.210 HD
ENDBRANCH   7  27
BRANCH   7  29
HETATM   29  C   UNK N   1      39.939  44.320  49.508  0.00  0.00     0.012 C 
HETATM   30  C   UNK N   1      39.829  43.815  50.961  0.00  0.00     0.012 C 
HETATM   31  C   UNK N   1      38.697  45.191  49.215  0.00  0.00     0.012 C 
ENDBRANCH   7  29
TORSDOF 7
ENDMDL
MODEL 9
REMARK VINA RESULT:      -5.3     16.636     19.799
REMARK  7 active torsions:
REMARK  status: ('A' for Active; 'I' for Inactive)
REMARK    1  A    between atoms: C_5  and  O_6 
REMARK    2  A    between atoms: O_6  and  C_7 
REMARK    3  A    between atoms: C_7  and  C_9 
REMARK    4  A    between atoms: C_11  and  O_12 
REMARK    5  A    between atoms: C_14  and  O_15 
REMARK    6  A    between atoms: C_20  and  O_21 
REMARK    7  A    between atoms: C_20  and  C_23 
ROOT
HETATM    1  O   UNK N   1      32.433  45.383  64.104  0.00  0.00    -0.293 OA
HETATM    2  C   UNK N   1      32.019  45.257  62.960  0.00  0.00     0.155 C 
HETATM    3  C   UNK N   1      30.864  46.100  62.527  0.00  0.00    -0.018 C 
HETATM    4  C   UNK N   1      30.322  46.078  61.287  0.00  0.00     0.016 C 
HETATM    5  C   UNK N   1      30.804  45.248  60.117  0.00  0.00     0.163 C 
HETATM    6  C   UNK N   1      30.717  43.717  60.377  0.00  0.00     0.062 C 
HETATM    7  C   UNK N   1      31.046  42.826  59.120  0.00  0.00     0.068 C 
HETATM    8  C   UNK N   1      31.491  41.508  59.787  0.00  0.00     0.039 C 
HETATM    9  C   UNK N   1      32.422  42.010  60.873  0.00  0.00     0.013 C 
HETATM   10  C   UNK N   1      31.641  43.167  61.533  0.00  0.00    -0.028 C 
HETATM   11  C   UNK N   1      32.659  44.197  62.096  0.00  0.00     0.093 C 
HETATM   12  C   UNK N   1      30.765  42.592  62.683  0.00  0.00     0.016 C 
HETATM   13  C   UNK N   1      30.249  47.015  63.562  0.00  0.00     0.052 C 
ENDROOT
BRANCH   5  14
HETATM   14  O   UNK N   1      30.020  45.558  59.026  0.00  0.00    -0.308 OA
BRANCH  14  15
HETATM   15  C   UNK N   1      30.418  46.333  57.980  0.00  0.00     0.294 C 
HETATM   16  O   UNK N   1      31.426  46.056  57.347  0.00  0.00    -0.259 OA
BRANCH  15  17
HETATM   17  C   UNK N   1      29.593  47.501  57.602  0.00  0.00     0.042 A 
HETATM   18  C   UNK N   1      30.197  48.592  56.965  0.00  0.00     0.057 A 
HETATM   19  C   UNK N   1      29.443  49.721  56.596  0.00  0.00     0.102 A 
HETATM   20  C   UNK N   1      28.062  49.743  56.873  0.00  0.00     0.099 A 
HETATM   21  C   UNK N   1      27.458  48.651  57.507  0.00  0.00     0.040 A 
HETATM   22  C   UNK N   1      28.215  47.533  57.870  0.00  0.00     0.020 A 
BRANCH  19  23
HETATM   23  O   UNK N   1      30.019  50.788  55.978  0.00  0.00    -0.353 OA
HETATM   24  C   UNK N   1      30.220  50.900  54.615  0.00  0.00     0.210 C 
ENDBRANCH  19  23
BRANCH  20  25
HETATM   25  O   UNK N   1      27.303  50.807  56.537  0.00  0.00    -0.358 OA
HETATM   26  H   UNK N   1      26.418  50.712  56.159  0.00  0.00     0.218 HD
ENDBRANCH  20  25
ENDBRANCH  15  17
ENDBRANCH  14  15
ENDBRANCH   5  14
BRANCH   7  27
HETATM   27  O   UNK N   1      32.146  43.422  58.458  0.00  0.00    -0.389 OA
HETATM   28  H   UNK N   1      32.451  42.827  57.726  0.00  0.00     0.210 HD
ENDBRANCH   7  27
BRANCH   7  29
HETATM   29  C   UNK N   1      29.869  42.635  58.079  0.00  0.00     0.012 C 
HETATM   30  C   UNK N   1      30.354  42.746  56.620  0.00  0.00     0.012 C 
HETATM   31  C   UNK N   1      29.098  41.304  58.222  0.00  0.00     0.012 C 
ENDBRANCH   7  29
TORSDOF 7
ENDMDL
