MODEL 1
REMARK VINA RESULT:      -6.4      0.000      0.000
REMARK  7 active torsions:
REMARK  status: ('A' for Active; 'I' for Inactive)
REMARK    1  A    between atoms: C_2  and  O_3 
REMARK    2  A    between atoms: C_2  and  C_23 
REMARK    3  A    between atoms: O_3  and  C_4 
REMARK    4  A    between atoms: C_6  and  O_7 
REMARK    5  A    between atoms: C_6  and  C_9 
REMARK    6  A    between atoms: C_16  and  O_17 
REMARK    7  A    between atoms: C_26  and  O_27 
ROOT
HETATM    1  C   UNK N   1      29.043  54.459  42.191  0.00  0.00     0.163 C 
HETATM    2  C   UNK N   1      28.855  53.710  40.850  0.00  0.00     0.062 C 
HETATM    3  C   UNK N   1      27.385  53.255  40.517  0.00  0.00     0.068 C 
HETATM    4  C   UNK N   1      27.017  54.246  39.392  0.00  0.00     0.039 C 
HETATM    5  C   UNK N   1      28.268  54.319  38.537  0.00  0.00     0.012 C 
HETATM    6  C   UNK N   1      29.417  54.421  39.562  0.00  0.00    -0.032 C 
HETATM    7  C   UNK N   1      29.891  55.894  39.782  0.00  0.00     0.046 C 
HETATM    8  C   UNK N   1      28.892  56.971  40.232  0.00  0.00     0.147 C 
HETATM    9  C   UNK N   1      28.163  56.794  41.559  0.00  0.00    -0.057 C 
HETATM   10  C   UNK N   1      28.231  55.715  42.376  0.00  0.00     0.011 C 
HETATM   11  C   UNK N   1      27.246  57.926  41.968  0.00  0.00     0.046 C 
HETATM   12  C   UNK N   1      30.653  53.666  39.008  0.00  0.00     0.016 C 
ENDROOT
BRANCH   1  13
HETATM   13  O   UNK N   1      30.384  54.689  42.438  0.00  0.00    -0.308 OA
BRANCH  13  14
HETATM   14  C   UNK N   1      31.028  54.277  43.569  0.00  0.00     0.294 C 
HETATM   15  O   UNK N   1      30.889  54.886  44.621  0.00  0.00    -0.259 OA
BRANCH  14  16
HETATM   16  C   UNK N   1      31.879  53.073  43.523  0.00  0.00     0.039 A 
HETATM   17  C   UNK N   1      31.636  52.060  42.575  0.00  0.00     0.020 A 
HETATM   18  C   UNK N   1      32.449  50.924  42.540  0.00  0.00     0.037 A 
HETATM   19  C   UNK N   1      33.509  50.788  43.448  0.00  0.00     0.065 A 
HETATM   20  C   UNK N   1      33.751  51.793  44.389  0.00  0.00     0.037 A 
HETATM   21  C   UNK N   1      32.940  52.929  44.429  0.00  0.00     0.020 A 
BRANCH  19  22
HETATM   22  O   UNK N   1      34.300  49.697  43.423  0.00  0.00    -0.361 OA
HETATM   23  H   UNK N   1      35.107  49.668  42.891  0.00  0.00     0.217 HD
ENDBRANCH  19  22
ENDBRANCH  14  16
ENDBRANCH  13  14
ENDBRANCH   1  13
BRANCH   3  24
HETATM   24  O   UNK N   1      26.463  53.455  41.567  0.00  0.00    -0.389 OA
HETATM   25  H   UNK N   1      26.678  54.302  42.028  0.00  0.00     0.210 HD
ENDBRANCH   3  24
BRANCH   3  26
HETATM   26  C   UNK N   1      27.353  51.735  40.059  0.00  0.00     0.012 C 
HETATM   27  C   UNK N   1      28.669  50.976  40.378  0.00  0.00     0.012 C 
HETATM   28  C   UNK N   1      26.204  50.952  40.717  0.00  0.00     0.012 C 
ENDBRANCH   3  26
BRANCH   8  29
HETATM   29  O   UNK N   1      29.583  58.194  40.281  0.00  0.00    -0.391 OA
HETATM   30  H   UNK N   1      30.441  58.028  40.754  0.00  0.00     0.210 HD
ENDBRANCH   8  29
TORSDOF 7
ENDMDL
MODEL 2
REMARK VINA RESULT:      -5.6     11.554     15.610
REMARK  7 active torsions:
REMARK  status: ('A' for Active; 'I' for Inactive)
REMARK    1  A    between atoms: C_2  and  O_3 
REMARK    2  A    between atoms: C_2  and  C_23 
REMARK    3  A    between atoms: O_3  and  C_4 
REMARK    4  A    between atoms: C_6  and  O_7 
REMARK    5  A    between atoms: C_6  and  C_9 
REMARK    6  A    between atoms: C_16  and  O_17 
REMARK    7  A    between atoms: C_26  and  O_27 
ROOT
HETATM    1  C   UNK N   1      41.865  46.683  46.993  0.00  0.00     0.163 C 
HETATM    2  C   UNK N   1      40.362  47.011  47.161  0.00  0.00     0.062 C 
HETATM    3  C   UNK N   1      39.733  47.938  46.054  0.00  0.00     0.068 C 
HETATM    4  C   UNK N   1      38.869  46.923  45.276  0.00  0.00     0.039 C 
HETATM    5  C   UNK N   1      38.233  46.069  46.356  0.00  0.00     0.012 C 
HETATM    6  C   UNK N   1      39.390  45.784  47.338  0.00  0.00    -0.032 C 
HETATM    7  C   UNK N   1      40.048  44.388  47.095  0.00  0.00     0.046 C 
HETATM    8  C   UNK N   1      40.630  44.034  45.718  0.00  0.00     0.147 C 
HETATM    9  C   UNK N   1      41.758  44.888  45.151  0.00  0.00    -0.057 C 
HETATM   10  C   UNK N   1      42.265  46.018  45.702  0.00  0.00     0.011 C 
HETATM   11  C   UNK N   1      42.326  44.440  43.822  0.00  0.00     0.046 C 
HETATM   12  C   UNK N   1      38.824  45.731  48.780  0.00  0.00     0.016 C 
ENDROOT
BRANCH   1  13
HETATM   13  O   UNK N   1      42.336  45.979  48.086  0.00  0.00    -0.308 OA
BRANCH  13  14
HETATM   14  C   UNK N   1      42.351  46.475  49.358  0.00  0.00     0.294 C 
HETATM   15  O   UNK N   1      42.574  47.660  49.561  0.00  0.00    -0.259 OA
BRANCH  14  16
HETATM   16  C   UNK N   1      42.072  45.573  50.492  0.00  0.00     0.039 A 
HETATM   17  C   UNK N   1      42.224  46.023  51.818  0.00  0.00     0.020 A 
HETATM   18  C   UNK N   1      41.956  45.161  52.885  0.00  0.00     0.037 A 
HETATM   19  C   UNK N   1      41.535  43.846  52.639  0.00  0.00     0.065 A 
HETATM   20  C   UNK N   1      41.385  43.399  51.323  0.00  0.00     0.037 A 
HETATM   21  C   UNK N   1      41.652  44.256  50.255  0.00  0.00     0.020 A 
BRANCH  19  22
HETATM   22  O   UNK N   1      41.274  43.006  53.660  0.00  0.00    -0.361 OA
HETATM   23  H   UNK N   1      40.575  42.340  53.602  0.00  0.00     0.217 HD
ENDBRANCH  19  22
ENDBRANCH  14  16
ENDBRANCH  13  14
ENDBRANCH   1  13
BRANCH   3  24
HETATM   24  O   UNK N   1      40.669  48.474  45.145  0.00  0.00    -0.389 OA
HETATM   25  H   UNK N   1      40.258  49.237  44.671  0.00  0.00     0.210 HD
ENDBRANCH   3  24
BRANCH   3  26
HETATM   26  C   UNK N   1      38.893  49.114  46.712  0.00  0.00     0.012 C 
HETATM   27  C   UNK N   1      39.434  49.543  48.102  0.00  0.00     0.012 C 
HETATM   28  C   UNK N   1      38.858  50.372  45.827  0.00  0.00     0.012 C 
ENDBRANCH   3  26
BRANCH   8  29
HETATM   29  O   UNK N   1      41.087  42.706  45.782  0.00  0.00    -0.391 OA
HETATM   30  H   UNK N   1      40.677  42.292  46.588  0.00  0.00     0.210 HD
ENDBRANCH   8  29
TORSDOF 7
ENDMDL
MODEL 3
REMARK VINA RESULT:      -5.6     10.573     15.308
REMARK  7 active torsions:
REMARK  status: ('A' for Active; 'I' for Inactive)
REMARK    1  A    between atoms: C_2  and  O_3 
REMARK    2  A    between atoms: C_2  and  C_23 
REMARK    3  A    between atoms: O_3  and  C_4 
REMARK    4  A    between atoms: C_6  and  O_7 
REMARK    5  A    between atoms: C_6  and  C_9 
REMARK    6  A    between atoms: C_16  and  O_17 
REMARK    7  A    between atoms: C_26  and  O_27 
ROOT
HETATM    1  C   UNK N   1      39.303  45.815  47.725  0.00  0.00     0.163 C 
HETATM    2  C   UNK N   1      40.370  45.877  48.844  0.00  0.00     0.062 C 
HETATM    3  C   UNK N   1      40.533  44.574  49.712  0.00  0.00     0.068 C 
HETATM    4  C   UNK N   1      41.887  44.043  49.197  0.00  0.00     0.039 C 
HETATM    5  C   UNK N   1      42.750  45.285  49.070  0.00  0.00     0.012 C 
HETATM    6  C   UNK N   1      41.817  46.324  48.412  0.00  0.00    -0.032 C 
HETATM    7  C   UNK N   1      42.036  46.427  46.868  0.00  0.00     0.046 C 
HETATM    8  C   UNK N   1      41.896  45.182  45.980  0.00  0.00     0.147 C 
HETATM    9  C   UNK N   1      40.561  44.446  45.944  0.00  0.00    -0.057 C 
HETATM   10  C   UNK N   1      39.471  44.723  46.700  0.00  0.00     0.011 C 
HETATM   11  C   UNK N   1      40.477  43.270  44.996  0.00  0.00     0.046 C 
HETATM   12  C   UNK N   1      42.154  47.728  48.974  0.00  0.00     0.016 C 
ENDROOT
BRANCH   1  13
HETATM   13  O   UNK N   1      39.157  47.050  47.122  0.00  0.00    -0.308 OA
BRANCH  13  14
HETATM   14  C   UNK N   1      38.646  47.225  45.867  0.00  0.00     0.294 C 
HETATM   15  O   UNK N   1      37.843  46.427  45.405  0.00  0.00    -0.259 OA
BRANCH  14  16
HETATM   16  C   UNK N   1      39.053  48.402  45.075  0.00  0.00     0.039 A 
HETATM   17  C   UNK N   1      40.196  49.144  45.431  0.00  0.00     0.020 A 
HETATM   18  C   UNK N   1      40.572  50.256  44.673  0.00  0.00     0.037 A 
HETATM   19  C   UNK N   1      39.814  50.637  43.557  0.00  0.00     0.065 A 
HETATM   20  C   UNK N   1      38.679  49.901  43.203  0.00  0.00     0.037 A 
HETATM   21  C   UNK N   1      38.299  48.790  43.958  0.00  0.00     0.020 A 
BRANCH  19  22
HETATM   22  O   UNK N   1      40.167  51.708  42.818  0.00  0.00    -0.361 OA
HETATM   23  H   UNK N   1      39.874  52.601  43.048  0.00  0.00     0.217 HD
ENDBRANCH  19  22
ENDBRANCH  14  16
ENDBRANCH  13  14
ENDBRANCH   1  13
BRANCH   3  24
HETATM   24  O   UNK N   1      39.568  43.578  49.451  0.00  0.00    -0.389 OA
HETATM   25  H   UNK N   1      40.028  42.729  49.242  0.00  0.00     0.210 HD
ENDBRANCH   3  24
BRANCH   3  26
HETATM   26  C   UNK N   1      40.536  44.922  51.261  0.00  0.00     0.012 C 
HETATM   27  C   UNK N   1      40.103  43.727  52.154  0.00  0.00     0.012 C 
HETATM   28  C   UNK N   1      41.919  45.381  51.753  0.00  0.00     0.012 C 
ENDBRANCH   3  26
BRANCH   8  29
HETATM   29  O   UNK N   1      42.212  45.564  44.665  0.00  0.00    -0.391 OA
HETATM   30  H   UNK N   1      43.167  45.838  44.659  0.00  0.00     0.210 HD
ENDBRANCH   8  29
TORSDOF 7
ENDMDL
MODEL 4
REMARK VINA RESULT:      -5.5      1.592      2.375
REMARK  7 active torsions:
REMARK  status: ('A' for Active; 'I' for Inactive)
REMARK    1  A    between atoms: C_2  and  O_3 
REMARK    2  A    between atoms: C_2  and  C_23 
REMARK    3  A    between atoms: O_3  and  C_4 
REMARK    4  A    between atoms: C_6  and  O_7 
REMARK    5  A    between atoms: C_6  and  C_9 
REMARK    6  A    between atoms: C_16  and  O_17 
REMARK    7  A    between atoms: C_26  and  O_27 
ROOT
HETATM    1  C   UNK N   1      28.834  53.836  41.427  0.00  0.00     0.163 C 
HETATM    2  C   UNK N   1      28.164  53.305  40.137  0.00  0.00     0.062 C 
HETATM    3  C   UNK N   1      26.604  53.103  40.206  0.00  0.00     0.068 C 
HETATM    4  C   UNK N   1      26.116  54.276  39.329  0.00  0.00     0.039 C 
HETATM    5  C   UNK N   1      27.080  54.291  38.158  0.00  0.00     0.012 C 
HETATM    6  C   UNK N   1      28.466  54.098  38.810  0.00  0.00    -0.032 C 
HETATM    7  C   UNK N   1      29.222  55.450  39.014  0.00  0.00     0.046 C 
HETATM    8  C   UNK N   1      28.580  56.583  39.828  0.00  0.00     0.147 C 
HETATM    9  C   UNK N   1      28.222  56.332  41.288  0.00  0.00    -0.057 C 
HETATM   10  C   UNK N   1      28.327  55.154  41.951  0.00  0.00     0.011 C 
HETATM   11  C   UNK N   1      27.656  57.514  42.045  0.00  0.00     0.046 C 
HETATM   12  C   UNK N   1      29.358  53.262  37.857  0.00  0.00     0.016 C 
ENDROOT
BRANCH   1  13
HETATM   13  O   UNK N   1      30.210  53.846  41.293  0.00  0.00    -0.308 OA
BRANCH  13  14
HETATM   14  C   UNK N   1      31.050  53.075  42.045  0.00  0.00     0.294 C 
HETATM   15  O   UNK N   1      31.160  51.877  41.824  0.00  0.00    -0.259 OA
BRANCH  14  16
HETATM   16  C   UNK N   1      31.848  53.702  43.116  0.00  0.00     0.039 A 
HETATM   17  C   UNK N   1      32.634  52.914  43.978  0.00  0.00     0.020 A 
HETATM   18  C   UNK N   1      33.387  53.518  44.989  0.00  0.00     0.037 A 
HETATM   19  C   UNK N   1      33.361  54.910  45.148  0.00  0.00     0.065 A 
HETATM   20  C   UNK N   1      32.580  55.694  44.293  0.00  0.00     0.037 A 
HETATM   21  C   UNK N   1      31.827  55.094  43.283  0.00  0.00     0.020 A 
BRANCH  19  22
HETATM   22  O   UNK N   1      34.083  55.505  46.120  0.00  0.00    -0.361 OA
HETATM   23  H   UNK N   1      33.913  55.331  47.056  0.00  0.00     0.217 HD
ENDBRANCH  19  22
ENDBRANCH  14  16
ENDBRANCH  13  14
ENDBRANCH   1  13
BRANCH   3  24
HETATM   24  O   UNK N   1      26.051  53.285  41.492  0.00  0.00    -0.389 OA
HETATM   25  H   UNK N   1      26.374  54.141  41.864  0.00  0.00     0.210 HD
ENDBRANCH   3  24
BRANCH   3  26
HETATM   26  C   UNK N   1      26.192  51.676  39.644  0.00  0.00     0.012 C 
HETATM   27  C   UNK N   1      26.210  50.567  40.730  0.00  0.00     0.012 C 
HETATM   28  C   UNK N   1      24.788  51.679  39.017  0.00  0.00     0.012 C 
ENDBRANCH   3  26
BRANCH   8  29
HETATM   29  O   UNK N   1      29.454  57.683  39.783  0.00  0.00    -0.391 OA
HETATM   30  H   UNK N   1      30.344  57.340  39.499  0.00  0.00     0.210 HD
ENDBRANCH   8  29
TORSDOF 7
ENDMDL
MODEL 5
REMARK VINA RESULT:      -5.3     12.315     15.904
REMARK  7 active torsions:
REMARK  status: ('A' for Active; 'I' for Inactive)
REMARK    1  A    between atoms: C_2  and  O_3 
REMARK    2  A    between atoms: C_2  and  C_23 
REMARK    3  A    between atoms: O_3  and  C_4 
REMARK    4  A    between atoms: C_6  and  O_7 
REMARK    5  A    between atoms: C_6  and  C_9 
REMARK    6  A    between atoms: C_16  and  O_17 
REMARK    7  A    between atoms: C_26  and  O_27 
ROOT
HETATM    1  C   UNK N   1      41.637  45.803  46.075  0.00  0.00     0.163 C 
HETATM    2  C   UNK N   1      40.795  45.538  47.346  0.00  0.00     0.062 C 
HETATM    3  C   UNK N   1      41.367  46.132  48.687  0.00  0.00     0.068 C 
HETATM    4  C   UNK N   1      40.387  47.297  48.936  0.00  0.00     0.039 C 
HETATM    5  C   UNK N   1      39.027  46.720  48.589  0.00  0.00     0.012 C 
HETATM    6  C   UNK N   1      39.274  45.943  47.278  0.00  0.00    -0.032 C 
HETATM    7  C   UNK N   1      38.871  46.766  46.013  0.00  0.00     0.046 C 
HETATM    8  C   UNK N   1      39.497  48.145  45.753  0.00  0.00     0.147 C 
HETATM    9  C   UNK N   1      41.009  48.252  45.589  0.00  0.00    -0.057 C 
HETATM   10  C   UNK N   1      41.906  47.247  45.739  0.00  0.00     0.011 C 
HETATM   11  C   UNK N   1      41.546  49.629  45.269  0.00  0.00     0.046 C 
HETATM   12  C   UNK N   1      38.367  44.686  47.262  0.00  0.00     0.016 C 
ENDROOT
BRANCH   1  13
HETATM   13  O   UNK N   1      41.110  45.126  44.991  0.00  0.00    -0.308 OA
BRANCH  13  14
HETATM   14  C   UNK N   1      41.102  43.766  44.877  0.00  0.00     0.294 C 
HETATM   15  O   UNK N   1      40.073  43.171  44.589  0.00  0.00    -0.259 OA
BRANCH  14  16
HETATM   16  C   UNK N   1      42.354  43.012  45.082  0.00  0.00     0.039 A 
HETATM   17  C   UNK N   1      42.470  42.090  46.140  0.00  0.00     0.020 A 
HETATM   18  C   UNK N   1      43.660  41.381  46.324  0.00  0.00     0.037 A 
HETATM   19  C   UNK N   1      44.743  41.586  45.458  0.00  0.00     0.065 A 
HETATM   20  C   UNK N   1      44.629  42.502  44.407  0.00  0.00     0.037 A 
HETATM   21  C   UNK N   1      43.442  43.213  44.220  0.00  0.00     0.020 A 
BRANCH  19  22
HETATM   22  O   UNK N   1      45.896  40.908  45.625  0.00  0.00    -0.361 OA
HETATM   23  H   UNK N   1      46.697  41.344  45.948  0.00  0.00     0.217 HD
ENDBRANCH  19  22
ENDBRANCH  14  16
ENDBRANCH  13  14
ENDBRANCH   1  13
BRANCH   3  24
HETATM   24  O   UNK N   1      42.659  46.690  48.569  0.00  0.00    -0.389 OA
HETATM   25  H   UNK N   1      43.018  46.485  47.672  0.00  0.00     0.210 HD
ENDBRANCH   3  24
BRANCH   3  26
HETATM   26  C   UNK N   1      41.361  45.038  49.838  0.00  0.00     0.012 C 
HETATM   27  C   UNK N   1      41.787  43.630  49.342  0.00  0.00     0.012 C 
HETATM   28  C   UNK N   1      42.292  45.412  51.003  0.00  0.00     0.012 C 
ENDBRANCH   3  26
BRANCH   8  29
HETATM   29  O   UNK N   1      38.900  48.667  44.592  0.00  0.00    -0.391 OA
HETATM   30  H   UNK N   1      38.166  48.049  44.335  0.00  0.00     0.210 HD
ENDBRANCH   8  29
TORSDOF 7
ENDMDL
MODEL 6
REMARK VINA RESULT:      -5.3     18.132     21.026
REMARK  7 active torsions:
REMARK  status: ('A' for Active; 'I' for Inactive)
REMARK    1  A    between atoms: C_2  and  O_3 
REMARK    2  A    between atoms: C_2  and  C_23 
REMARK    3  A    between atoms: O_3  and  C_4 
REMARK    4  A    between atoms: C_6  and  O_7 
REMARK    5  A    between atoms: C_6  and  C_9 
REMARK    6  A    between atoms: C_16  and  O_17 
REMARK    7  A    between atoms: C_26  and  O_27 
ROOT
HETATM    1  C   UNK N   1      31.621  43.537  58.274  0.00  0.00     0.163 C 
HETATM    2  C   UNK N   1      30.466  44.039  59.175  0.00  0.00     0.062 C 
HETATM    3  C   UNK N   1      29.626  45.244  58.609  0.00  0.00     0.068 C 
HETATM    4  C   UNK N   1      28.307  44.536  58.238  0.00  0.00     0.039 C 
HETATM    5  C   UNK N   1      28.055  43.587  59.395  0.00  0.00     0.012 C 
HETATM    6  C   UNK N   1      29.436  42.953  59.666  0.00  0.00    -0.032 C 
HETATM    7  C   UNK N   1      29.591  41.552  58.993  0.00  0.00     0.046 C 
HETATM    8  C   UNK N   1      29.398  41.394  57.477  0.00  0.00     0.147 C 
HETATM    9  C   UNK N   1      30.307  42.172  56.532  0.00  0.00    -0.057 C 
HETATM   10  C   UNK N   1      31.241  43.087  56.887  0.00  0.00     0.011 C 
HETATM   11  C   UNK N   1      30.103  41.915  55.055  0.00  0.00     0.046 C 
HETATM   12  C   UNK N   1      29.582  42.701  61.189  0.00  0.00     0.016 C 
ENDROOT
BRANCH   1  13
HETATM   13  O   UNK N   1      32.365  42.573  58.927  0.00  0.00    -0.308 OA
BRANCH  13  14
HETATM   14  C   UNK N   1      33.696  42.701  59.203  0.00  0.00     0.294 C 
HETATM   15  O   UNK N   1      34.538  42.331  58.397  0.00  0.00    -0.259 OA
BRANCH  14  16
HETATM   16  C   UNK N   1      34.118  43.315  60.478  0.00  0.00     0.039 A 
HETATM   17  C   UNK N   1      33.230  43.384  61.568  0.00  0.00     0.020 A 
HETATM   18  C   UNK N   1      33.640  43.966  62.770  0.00  0.00     0.037 A 
HETATM   19  C   UNK N   1      34.937  44.484  62.895  0.00  0.00     0.065 A 
HETATM   20  C   UNK N   1      35.820  44.416  61.812  0.00  0.00     0.037 A 
HETATM   21  C   UNK N   1      35.414  43.836  60.609  0.00  0.00     0.020 A 
BRANCH  19  22
HETATM   22  O   UNK N   1      35.344  45.048  64.049  0.00  0.00    -0.361 OA
HETATM   23  H   UNK N   1      35.678  44.515  64.784  0.00  0.00     0.217 HD
ENDBRANCH  19  22
ENDBRANCH  14  16
ENDBRANCH  13  14
ENDBRANCH   1  13
BRANCH   3  24
HETATM   24  O   UNK N   1      30.146  45.808  57.424  0.00  0.00    -0.389 OA
HETATM   25  H   UNK N   1      29.576  45.539  56.663  0.00  0.00     0.210 HD
ENDBRANCH   3  24
BRANCH   3  26
HETATM   26  C   UNK N   1      29.452  46.377  59.708  0.00  0.00     0.012 C 
HETATM   27  C   UNK N   1      30.455  46.242  60.885  0.00  0.00     0.012 C 
HETATM   28  C   UNK N   1      29.623  47.789  59.123  0.00  0.00     0.012 C 
ENDBRANCH   3  26
BRANCH   8  29
HETATM   29  O   UNK N   1      29.532  40.028  57.175  0.00  0.00    -0.391 OA
HETATM   30  H   UNK N   1      29.390  39.928  56.196  0.00  0.00     0.210 HD
ENDBRANCH   8  29
TORSDOF 7
ENDMDL
MODEL 7
REMARK VINA RESULT:      -5.2     16.154     19.557
REMARK  7 active torsions:
REMARK  status: ('A' for Active; 'I' for Inactive)
REMARK    1  A    between atoms: C_2  and  O_3 
REMARK    2  A    between atoms: C_2  and  C_23 
REMARK    3  A    between atoms: O_3  and  C_4 
REMARK    4  A    between atoms: C_6  and  O_7 
REMARK    5  A    between atoms: C_6  and  C_9 
REMARK    6  A    between atoms: C_16  and  O_17 
REMARK    7  A    between atoms: C_26  and  O_27 
ROOT
HETATM    1  C   UNK N   1      29.237  42.742  56.521  0.00  0.00     0.163 C 
HETATM    2  C   UNK N   1      29.977  43.502  57.648  0.00  0.00     0.062 C 
HETATM    3  C   UNK N   1      29.253  44.784  58.205  0.00  0.00     0.068 C 
HETATM    4  C   UNK N   1      28.788  44.283  59.588  0.00  0.00     0.039 C 
HETATM    5  C   UNK N   1      29.967  43.485  60.112  0.00  0.00     0.012 C 
HETATM    6  C   UNK N   1      30.422  42.649  58.896  0.00  0.00    -0.032 C 
HETATM    7  C   UNK N   1      29.857  41.193  58.929  0.00  0.00     0.046 C 
HETATM    8  C   UNK N   1      28.341  40.951  59.003  0.00  0.00     0.147 C 
HETATM    9  C   UNK N   1      27.452  41.486  57.887  0.00  0.00    -0.057 C 
HETATM   10  C   UNK N   1      27.848  42.255  56.843  0.00  0.00     0.011 C 
HETATM   11  C   UNK N   1      25.980  41.152  57.993  0.00  0.00     0.046 C 
HETATM   12  C   UNK N   1      31.964  42.496  58.940  0.00  0.00     0.016 C 
ENDROOT
BRANCH   1  13
HETATM   13  O   UNK N   1      30.023  41.720  56.023  0.00  0.00    -0.308 OA
BRANCH  13  14
HETATM   14  C   UNK N   1      30.434  41.644  54.724  0.00  0.00     0.294 C 
HETATM   15  O   UNK N   1      31.622  41.710  54.441  0.00  0.00    -0.259 OA
BRANCH  14  16
HETATM   16  C   UNK N   1      29.433  41.458  53.655  0.00  0.00     0.039 A 
HETATM   17  C   UNK N   1      28.422  40.487  53.783  0.00  0.00     0.020 A 
HETATM   18  C   UNK N   1      27.479  40.319  52.765  0.00  0.00     0.037 A 
HETATM   19  C   UNK N   1      27.537  41.116  51.614  0.00  0.00     0.065 A 
HETATM   20  C   UNK N   1      28.541  42.081  51.486  0.00  0.00     0.037 A 
HETATM   21  C   UNK N   1      29.485  42.251  52.499  0.00  0.00     0.020 A 
BRANCH  19  22
HETATM   22  O   UNK N   1      26.633  40.964  50.625  0.00  0.00    -0.361 OA
HETATM   23  H   UNK N   1      26.601  41.568  49.870  0.00  0.00     0.217 HD
ENDBRANCH  19  22
ENDBRANCH  14  16
ENDBRANCH  13  14
ENDBRANCH   1  13
BRANCH   3  24
HETATM   24  O   UNK N   1      28.097  45.156  57.485  0.00  0.00    -0.389 OA
HETATM   25  H   UNK N   1      28.366  45.674  56.688  0.00  0.00     0.210 HD
ENDBRANCH   3  24
BRANCH   3  26
HETATM   26  C   UNK N   1      30.255  46.013  58.279  0.00  0.00     0.012 C 
HETATM   27  C   UNK N   1      31.490  45.846  57.353  0.00  0.00     0.012 C 
HETATM   28  C   UNK N   1      29.578  47.341  57.901  0.00  0.00     0.012 C 
ENDBRANCH   3  26
BRANCH   8  29
HETATM   29  O   UNK N   1      28.139  39.562  59.085  0.00  0.00    -0.391 OA
HETATM   30  H   UNK N   1      27.492  39.316  58.372  0.00  0.00     0.210 HD
ENDBRANCH   8  29
TORSDOF 7
ENDMDL
MODEL 8
REMARK VINA RESULT:      -5.2      2.065      3.278
REMARK  7 active torsions:
REMARK  status: ('A' for Active; 'I' for Inactive)
REMARK    1  A    between atoms: C_2  and  O_3 
REMARK    2  A    between atoms: C_2  and  C_23 
REMARK    3  A    between atoms: O_3  and  C_4 
REMARK    4  A    between atoms: C_6  and  O_7 
REMARK    5  A    between atoms: C_6  and  C_9 
REMARK    6  A    between atoms: C_16  and  O_17 
REMARK    7  A    between atoms: C_26  and  O_27 
ROOT
HETATM    1  C   UNK N   1      28.635  53.397  40.414  0.00  0.00     0.163 C 
HETATM    2  C   UNK N   1      28.120  54.129  39.152  0.00  0.00     0.062 C 
HETATM    3  C   UNK N   1      26.921  55.124  39.376  0.00  0.00     0.068 C 
HETATM    4  C   UNK N   1      27.631  56.484  39.215  0.00  0.00     0.039 C 
HETATM    5  C   UNK N   1      28.565  56.280  38.036  0.00  0.00     0.012 C 
HETATM    6  C   UNK N   1      29.197  54.896  38.296  0.00  0.00    -0.032 C 
HETATM    7  C   UNK N   1      30.608  55.001  38.960  0.00  0.00     0.046 C 
HETATM    8  C   UNK N   1      30.785  55.748  40.290  0.00  0.00     0.147 C 
HETATM    9  C   UNK N   1      30.021  55.264  41.517  0.00  0.00    -0.057 C 
HETATM   10  C   UNK N   1      29.103  54.268  41.551  0.00  0.00     0.011 C 
HETATM   11  C   UNK N   1      30.297  56.007  42.806  0.00  0.00     0.046 C 
HETATM   12  C   UNK N   1      29.430  54.187  36.937  0.00  0.00     0.016 C 
ENDROOT
BRANCH   1  13
HETATM   13  O   UNK N   1      29.592  52.458  40.077  0.00  0.00    -0.308 OA
BRANCH  13  14
HETATM   14  C   UNK N   1      29.526  51.143  40.441  0.00  0.00     0.294 C 
HETATM   15  O   UNK N   1      28.580  50.449  40.097  0.00  0.00    -0.259 OA
BRANCH  14  16
HETATM   16  C   UNK N   1      30.620  50.554  41.237  0.00  0.00     0.039 A 
HETATM   17  C   UNK N   1      31.521  51.379  41.936  0.00  0.00     0.020 A 
HETATM   18  C   UNK N   1      32.554  50.810  42.687  0.00  0.00     0.037 A 
HETATM   19  C   UNK N   1      32.696  49.417  42.747  0.00  0.00     0.065 A 
HETATM   20  C   UNK N   1      31.801  48.597  42.052  0.00  0.00     0.037 A 
HETATM   21  C   UNK N   1      30.769  49.161  41.300  0.00  0.00     0.020 A 
BRANCH  19  22
HETATM   22  O   UNK N   1      33.687  48.856  43.468  0.00  0.00    -0.361 OA
HETATM   23  H   UNK N   1      34.618  49.006  43.251  0.00  0.00     0.217 HD
ENDBRANCH  19  22
ENDBRANCH  14  16
ENDBRANCH  13  14
ENDBRANCH   1  13
BRANCH   3  24
HETATM   24  O   UNK N   1      26.374  55.090  40.677  0.00  0.00    -0.389 OA
HETATM   25  H   UNK N   1      25.389  55.145  40.614  0.00  0.00     0.210 HD
ENDBRANCH   3  24
BRANCH   3  26
HETATM   26  C   UNK N   1      25.773  54.877  38.307  0.00  0.00     0.012 C 
HETATM   27  C   UNK N   1      25.250  53.415  38.304  0.00  0.00     0.012 C 
HETATM   28  C   UNK N   1      24.560  55.795  38.529  0.00  0.00     0.012 C 
ENDBRANCH   3  26
BRANCH   8  29
HETATM   29  O   UNK N   1      32.155  55.733  40.603  0.00  0.00    -0.391 OA
HETATM   30  H   UNK N   1      32.231  55.773  41.594  0.00  0.00     0.210 HD
ENDBRANCH   8  29
TORSDOF 7
ENDMDL
MODEL 9
REMARK VINA RESULT:      -5.1     17.638     20.184
REMARK  7 active torsions:
REMARK  status: ('A' for Active; 'I' for Inactive)
REMARK    1  A    between atoms: C_2  and  O_3 
REMARK    2  A    between atoms: C_2  and  C_23 
REMARK    3  A    between atoms: O_3  and  C_4 
REMARK    4  A    between atoms: C_6  and  O_7 
REMARK    5  A    between atoms: C_6  and  C_9 
REMARK    6  A    between atoms: C_16  and  O_17 
REMARK    7  A    between atoms: C_26  and  O_27 
ROOT
HETATM    1  C   UNK N   1      30.651  42.555  57.122  0.00  0.00     0.163 C 
HETATM    2  C   UNK N   1      29.762  41.643  58.000  0.00  0.00     0.062 C 
HETATM    3  C   UNK N   1      30.276  41.385  59.466  0.00  0.00     0.068 C 
HETATM    4  C   UNK N   1      29.277  42.231  60.283  0.00  0.00     0.039 C 
HETATM    5  C   UNK N   1      27.937  41.964  59.624  0.00  0.00     0.012 C 
HETATM    6  C   UNK N   1      28.241  42.040  58.112  0.00  0.00    -0.032 C 
HETATM    7  C   UNK N   1      27.883  43.433  57.501  0.00  0.00     0.046 C 
HETATM    8  C   UNK N   1      28.507  44.714  58.074  0.00  0.00     0.147 C 
HETATM    9  C   UNK N   1      30.023  44.871  58.053  0.00  0.00    -0.057 C 
HETATM   10  C   UNK N   1      30.921  43.939  57.654  0.00  0.00     0.011 C 
HETATM   11  C   UNK N   1      30.561  46.187  58.571  0.00  0.00     0.046 C 
HETATM   12  C   UNK N   1      27.346  41.017  57.367  0.00  0.00     0.016 C 
ENDROOT
BRANCH   1  13
HETATM   13  O   UNK N   1      30.173  42.601  55.826  0.00  0.00    -0.308 OA
BRANCH  13  14
HETATM   14  C   UNK N   1      30.523  41.705  54.857  0.00  0.00     0.294 C 
HETATM   15  O   UNK N   1      31.663  41.680  54.414  0.00  0.00    -0.259 OA
BRANCH  14  16
HETATM   16  C   UNK N   1      29.520  40.744  54.359  0.00  0.00     0.039 A 
HETATM   17  C   UNK N   1      29.486  39.425  54.850  0.00  0.00     0.020 A 
HETATM   18  C   UNK N   1      28.532  38.524  54.372  0.00  0.00     0.037 A 
HETATM   19  C   UNK N   1      27.605  38.929  53.402  0.00  0.00     0.065 A 
HETATM   20  C   UNK N   1      27.638  40.239  52.913  0.00  0.00     0.037 A 
HETATM   21  C   UNK N   1      28.590  41.142  53.387  0.00  0.00     0.020 A 
BRANCH  19  22
HETATM   22  O   UNK N   1      26.679  38.069  52.933  0.00  0.00    -0.361 OA
HETATM   23  H   UNK N   1      26.924  37.309  52.386  0.00  0.00     0.217 HD
ENDBRANCH  19  22
ENDBRANCH  14  16
ENDBRANCH  13  14
ENDBRANCH   1  13
BRANCH   3  24
HETATM   24  O   UNK N   1      31.566  41.895  59.726  0.00  0.00    -0.389 OA
HETATM   25  H   UNK N   1      31.535  42.449  60.544  0.00  0.00     0.210 HD
ENDBRANCH   3  24
BRANCH   3  26
HETATM   26  C   UNK N   1      30.233  39.837  59.817  0.00  0.00     0.012 C 
HETATM   27  C   UNK N   1      29.963  38.940  58.578  0.00  0.00     0.012 C 
HETATM   28  C   UNK N   1      31.543  39.347  60.458  0.00  0.00     0.012 C 
ENDBRANCH   3  26
BRANCH   8  29
HETATM   29  O   UNK N   1      27.952  45.801  57.376  0.00  0.00    -0.391 OA
HETATM   30  H   UNK N   1      28.466  45.902  56.530  0.00  0.00     0.210 HD
ENDBRANCH   8  29
TORSDOF 7
ENDMDL
