MODEL 1
REMARK VINA RESULT:      -5.3      0.000      0.000
REMARK  5 active torsions:
REMARK  status: ('A' for Active; 'I' for Inactive)
REMARK    1  A    between atoms: C_4  and  O_5 
REMARK    2  A    between atoms: C_16  and  C_17 
REMARK    3  A    between atoms: C_19  and  O_20 
REMARK    4  A    between atoms: C_22  and  O_23 
REMARK    5  A    between atoms: C_25  and  O_27 
ROOT
HETATM    1  O   UNK N   1      29.726  53.525  40.770  0.00  0.00    -0.286 OA
HETATM    2  C   UNK N   1      30.302  53.816  41.800  0.00  0.00     0.200 A 
HETATM    3  C   UNK N   1      31.157  52.886  42.457  0.00  0.00     0.085 A 
HETATM    4  C   UNK N   1      31.441  51.550  41.984  0.00  0.00     0.119 A 
HETATM    5  C   UNK N   1      32.302  50.765  42.752  0.00  0.00     0.139 A 
HETATM    6  O   UNK N   1      32.716  49.519  42.510  0.00  0.00    -0.320 OA
HETATM    7  C   UNK N   1      33.579  49.129  43.539  0.00  0.00     0.352 A 
HETATM    8  O   UNK N   1      33.630  50.232  44.395  0.00  0.00    -0.323 OA
HETATM    9  C   UNK N   1      32.858  51.193  43.888  0.00  0.00     0.110 A 
HETATM   10  C   UNK N   1      32.634  52.461  44.391  0.00  0.00     0.078 A 
HETATM   11  C   UNK N   1      31.790  53.321  43.670  0.00  0.00     0.094 A 
HETATM   12  O   UNK N   1      31.601  54.548  44.131  0.00  0.00    -0.321 OA
HETATM   13  C   UNK N   1      30.843  55.437  43.512  0.00  0.00     0.159 A 
HETATM   14  C   UNK N   1      30.152  55.116  42.334  0.00  0.00     0.048 A 
ENDROOT
BRANCH  14  15
HETATM   15  C   UNK N   1      29.294  56.167  41.697  0.00  0.00    -0.015 A 
HETATM   16  C   UNK N   1      27.935  56.332  42.031  0.00  0.00     0.052 A 
HETATM   17  C   UNK N   1      27.189  57.388  41.472  0.00  0.00     0.105 A 
HETATM   18  C   UNK N   1      27.773  58.262  40.545  0.00  0.00     0.135 A 
HETATM   19  C   UNK N   1      29.125  58.069  40.170  0.00  0.00     0.102 A 
HETATM   20  C   UNK N   1      29.870  57.043  40.761  0.00  0.00     0.052 A 
BRANCH  17  21
HETATM   21  O   UNK N   1      25.906  57.604  41.844  0.00  0.00    -0.353 OA
HETATM   22  C   UNK N   1      25.413  57.260  43.080  0.00  0.00     0.210 C 
ENDBRANCH  17  21
BRANCH  18  23
HETATM   23  O   UNK N   1      26.990  59.262  40.049  0.00  0.00    -0.351 OA
HETATM   24  C   UNK N   1      26.300  59.269  38.856  0.00  0.00     0.210 C 
ENDBRANCH  18  23
BRANCH  19  25
HETATM   25  O   UNK N   1      29.712  58.862  39.250  0.00  0.00    -0.358 OA
HETATM   26  H   UNK N   1      30.673  58.893  39.138  0.00  0.00     0.218 HD
ENDBRANCH  19  25
ENDBRANCH  14  15
BRANCH   4  27
HETATM   27  O   UNK N   1      30.948  51.015  40.845  0.00  0.00    -0.357 OA
HETATM   28  H   UNK N   1      30.114  51.247  40.425  0.00  0.00     0.218 HD
ENDBRANCH   4  27
TORSDOF 5
ENDMDL
MODEL 2
REMARK VINA RESULT:      -5.3      0.875      2.174
REMARK  5 active torsions:
REMARK  status: ('A' for Active; 'I' for Inactive)
REMARK    1  A    between atoms: C_4  and  O_5 
REMARK    2  A    between atoms: C_16  and  C_17 
REMARK    3  A    between atoms: C_19  and  O_20 
REMARK    4  A    between atoms: C_22  and  O_23 
REMARK    5  A    between atoms: C_25  and  O_27 
ROOT
HETATM    1  O   UNK N   1      29.985  53.729  40.604  0.00  0.00    -0.286 OA
HETATM    2  C   UNK N   1      30.526  54.030  41.650  0.00  0.00     0.200 A 
HETATM    3  C   UNK N   1      31.270  53.074  42.399  0.00  0.00     0.085 A 
HETATM    4  C   UNK N   1      31.474  51.698  42.008  0.00  0.00     0.119 A 
HETATM    5  C   UNK N   1      32.230  50.892  42.861  0.00  0.00     0.139 A 
HETATM    6  O   UNK N   1      32.557  49.607  42.702  0.00  0.00    -0.320 OA
HETATM    7  C   UNK N   1      33.332  49.209  43.797  0.00  0.00     0.352 A 
HETATM    8  O   UNK N   1      33.423  50.348  44.600  0.00  0.00    -0.323 OA
HETATM    9  C   UNK N   1      32.756  51.336  44.004  0.00  0.00     0.110 A 
HETATM   10  C   UNK N   1      32.605  52.642  44.431  0.00  0.00     0.078 A 
HETATM   11  C   UNK N   1      31.869  53.524  43.623  0.00  0.00     0.094 A 
HETATM   12  O   UNK N   1      31.753  54.784  44.013  0.00  0.00    -0.321 OA
HETATM   13  C   UNK N   1      31.099  55.694  43.310  0.00  0.00     0.159 A 
HETATM   14  C   UNK N   1      30.449  55.364  42.111  0.00  0.00     0.048 A 
ENDROOT
BRANCH  14  15
HETATM   15  C   UNK N   1      29.710  56.442  41.376  0.00  0.00    -0.015 A 
HETATM   16  C   UNK N   1      30.077  56.852  40.079  0.00  0.00     0.052 A 
HETATM   17  C   UNK N   1      29.303  57.806  39.391  0.00  0.00     0.105 A 
HETATM   18  C   UNK N   1      28.184  58.392  39.999  0.00  0.00     0.135 A 
HETATM   19  C   UNK N   1      27.842  58.017  41.322  0.00  0.00     0.102 A 
HETATM   20  C   UNK N   1      28.592  57.039  41.982  0.00  0.00     0.052 A 
BRANCH  17  21
HETATM   21  O   UNK N   1      29.599  58.152  38.116  0.00  0.00    -0.353 OA
HETATM   22  C   UNK N   1      29.400  57.315  37.045  0.00  0.00     0.210 C 
ENDBRANCH  17  21
BRANCH  18  23
HETATM   23  O   UNK N   1      27.481  59.305  39.271  0.00  0.00    -0.351 OA
HETATM   24  C   UNK N   1      26.308  59.098  38.579  0.00  0.00     0.210 C 
ENDBRANCH  18  23
BRANCH  19  25
HETATM   25  O   UNK N   1      26.798  58.587  41.959  0.00  0.00    -0.358 OA
HETATM   26  H   UNK N   1      25.924  58.173  41.984  0.00  0.00     0.218 HD
ENDBRANCH  19  25
ENDBRANCH  14  15
BRANCH   4  27
HETATM   27  O   UNK N   1      31.002  51.142  40.869  0.00  0.00    -0.357 OA
HETATM   28  H   UNK N   1      31.371  51.256  39.989  0.00  0.00     0.218 HD
ENDBRANCH   4  27
TORSDOF 5
ENDMDL
MODEL 3
REMARK VINA RESULT:      -5.2      1.007      2.924
REMARK  5 active torsions:
REMARK  status: ('A' for Active; 'I' for Inactive)
REMARK    1  A    between atoms: C_4  and  O_5 
REMARK    2  A    between atoms: C_16  and  C_17 
REMARK    3  A    between atoms: C_19  and  O_20 
REMARK    4  A    between atoms: C_22  and  O_23 
REMARK    5  A    between atoms: C_25  and  O_27 
ROOT
HETATM    1  O   UNK N   1      30.583  55.312  43.661  0.00  0.00    -0.286 OA
HETATM    2  C   UNK N   1      30.445  54.510  42.758  0.00  0.00     0.200 A 
HETATM    3  C   UNK N   1      31.126  53.259  42.772  0.00  0.00     0.085 A 
HETATM    4  C   UNK N   1      32.008  52.811  43.825  0.00  0.00     0.119 A 
HETATM    5  C   UNK N   1      32.598  51.555  43.681  0.00  0.00     0.139 A 
HETATM    6  O   UNK N   1      33.428  50.934  44.522  0.00  0.00    -0.320 OA
HETATM    7  C   UNK N   1      33.763  49.690  43.978  0.00  0.00     0.352 A 
HETATM    8  O   UNK N   1      33.076  49.638  42.763  0.00  0.00    -0.323 OA
HETATM    9  C   UNK N   1      32.385  50.769  42.623  0.00  0.00     0.110 A 
HETATM   10  C   UNK N   1      31.548  51.134  41.585  0.00  0.00     0.078 A 
HETATM   11  C   UNK N   1      30.903  52.379  41.660  0.00  0.00     0.094 A 
HETATM   12  O   UNK N   1      30.073  52.716  40.684  0.00  0.00    -0.321 OA
HETATM   13  C   UNK N   1      29.402  53.856  40.676  0.00  0.00     0.159 A 
HETATM   14  C   UNK N   1      29.562  54.807  41.695  0.00  0.00     0.048 A 
ENDROOT
BRANCH  14  15
HETATM   15  C   UNK N   1      28.784  56.086  41.612  0.00  0.00    -0.015 A 
HETATM   16  C   UNK N   1      29.298  57.236  40.981  0.00  0.00     0.052 A 
HETATM   17  C   UNK N   1      28.500  58.389  40.848  0.00  0.00     0.105 A 
HETATM   18  C   UNK N   1      27.202  58.424  41.378  0.00  0.00     0.135 A 
HETATM   19  C   UNK N   1      26.702  57.287  42.057  0.00  0.00     0.102 A 
HETATM   20  C   UNK N   1      27.486  56.131  42.147  0.00  0.00     0.052 A 
BRANCH  17  21
HETATM   21  O   UNK N   1      28.952  59.473  40.177  0.00  0.00    -0.353 OA
HETATM   22  C   UNK N   1      29.368  59.427  38.867  0.00  0.00     0.210 C 
ENDBRANCH  17  21
BRANCH  18  23
HETATM   23  O   UNK N   1      26.488  59.573  41.209  0.00  0.00    -0.351 OA
HETATM   24  C   UNK N   1      25.517  59.822  40.264  0.00  0.00     0.210 C 
ENDBRANCH  18  23
BRANCH  19  25
HETATM   25  O   UNK N   1      25.475  57.294  42.618  0.00  0.00    -0.358 OA
HETATM   26  H   UNK N   1      25.333  57.051  43.544  0.00  0.00     0.218 HD
ENDBRANCH  19  25
ENDBRANCH  14  15
BRANCH   4  27
HETATM   27  O   UNK N   1      32.286  53.513  44.947  0.00  0.00    -0.357 OA
HETATM   28  H   UNK N   1      31.697  54.132  45.389  0.00  0.00     0.218 HD
ENDBRANCH   4  27
TORSDOF 5
ENDMDL
MODEL 4
REMARK VINA RESULT:      -5.2     22.243     24.279
REMARK  5 active torsions:
REMARK  status: ('A' for Active; 'I' for Inactive)
REMARK    1  A    between atoms: C_4  and  O_5 
REMARK    2  A    between atoms: C_16  and  C_17 
REMARK    3  A    between atoms: C_19  and  O_20 
REMARK    4  A    between atoms: C_22  and  O_23 
REMARK    5  A    between atoms: C_25  and  O_27 
ROOT
HETATM    1  O   UNK N   1      34.287  44.492  63.989  0.00  0.00    -0.286 OA
HETATM    2  C   UNK N   1      34.590  44.226  62.842  0.00  0.00     0.200 A 
HETATM    3  C   UNK N   1      33.735  43.444  62.014  0.00  0.00     0.085 A 
HETATM    4  C   UNK N   1      32.454  42.913  62.421  0.00  0.00     0.119 A 
HETATM    5  C   UNK N   1      31.742  42.162  61.484  0.00  0.00     0.139 A 
HETATM    6  O   UNK N   1      30.545  41.589  61.628  0.00  0.00    -0.320 OA
HETATM    7  C   UNK N   1      30.213  40.947  60.431  0.00  0.00     0.352 A 
HETATM    8  O   UNK N   1      31.303  41.182  59.589  0.00  0.00    -0.323 OA
HETATM    9  C   UNK N   1      32.194  41.918  60.253  0.00  0.00     0.110 A 
HETATM   10  C   UNK N   1      33.407  42.403  59.799  0.00  0.00     0.078 A 
HETATM   11  C   UNK N   1      34.181  43.180  60.676  0.00  0.00     0.094 A 
HETATM   12  O   UNK N   1      35.326  43.676  60.232  0.00  0.00    -0.321 OA
HETATM   13  C   UNK N   1      36.112  44.437  60.975  0.00  0.00     0.159 A 
HETATM   14  C   UNK N   1      35.794  44.738  62.307  0.00  0.00     0.048 A 
ENDROOT
BRANCH  14  15
HETATM   15  C   UNK N   1      36.742  45.591  63.096  0.00  0.00    -0.015 A 
HETATM   16  C   UNK N   1      36.416  46.902  63.495  0.00  0.00     0.052 A 
HETATM   17  C   UNK N   1      37.300  47.637  64.309  0.00  0.00     0.105 A 
HETATM   18  C   UNK N   1      38.532  47.093  64.698  0.00  0.00     0.135 A 
HETATM   19  C   UNK N   1      38.883  45.794  64.257  0.00  0.00     0.102 A 
HETATM   20  C   UNK N   1      37.982  45.055  63.483  0.00  0.00     0.052 A 
BRANCH  17  21
HETATM   21  O   UNK N   1      36.966  48.867  64.763  0.00  0.00    -0.353 OA
HETATM   22  C   UNK N   1      35.697  49.386  64.662  0.00  0.00     0.210 C 
ENDBRANCH  17  21
BRANCH  18  23
HETATM   23  O   UNK N   1      39.334  47.861  65.488  0.00  0.00    -0.351 OA
HETATM   24  C   UNK N   1      40.403  48.635  65.092  0.00  0.00     0.210 C 
ENDBRANCH  18  23
BRANCH  19  25
HETATM   25  O   UNK N   1      40.077  45.250  64.573  0.00  0.00    -0.358 OA
HETATM   26  H   UNK N   1      40.793  45.174  63.927  0.00  0.00     0.218 HD
ENDBRANCH  19  25
ENDBRANCH  14  15
BRANCH   4  27
HETATM   27  O   UNK N   1      31.889  43.106  63.634  0.00  0.00    -0.357 OA
HETATM   28  H   UNK N   1      32.072  42.600  64.431  0.00  0.00     0.218 HD
ENDBRANCH   4  27
TORSDOF 5
ENDMDL
MODEL 5
REMARK VINA RESULT:      -5.1      1.103      2.197
REMARK  5 active torsions:
REMARK  status: ('A' for Active; 'I' for Inactive)
REMARK    1  A    between atoms: C_4  and  O_5 
REMARK    2  A    between atoms: C_16  and  C_17 
REMARK    3  A    between atoms: C_19  and  O_20 
REMARK    4  A    between atoms: C_22  and  O_23 
REMARK    5  A    between atoms: C_25  and  O_27 
ROOT
HETATM    1  O   UNK N   1      30.530  55.400  43.716  0.00  0.00    -0.286 OA
HETATM    2  C   UNK N   1      30.430  54.544  42.859  0.00  0.00     0.200 A 
HETATM    3  C   UNK N   1      31.211  53.354  42.908  0.00  0.00     0.085 A 
HETATM    4  C   UNK N   1      32.161  53.034  43.949  0.00  0.00     0.119 A 
HETATM    5  C   UNK N   1      32.847  51.823  43.844  0.00  0.00     0.139 A 
HETATM    6  O   UNK N   1      33.752  51.315  44.684  0.00  0.00    -0.320 OA
HETATM    7  C   UNK N   1      34.171  50.076  44.189  0.00  0.00     0.352 A 
HETATM    8  O   UNK N   1      33.451  49.907  43.003  0.00  0.00    -0.323 OA
HETATM    9  C   UNK N   1      32.666  50.970  42.834  0.00  0.00     0.110 A 
HETATM   10  C   UNK N   1      31.769  51.213  41.811  0.00  0.00     0.078 A 
HETATM   11  C   UNK N   1      31.026  52.404  41.849  0.00  0.00     0.094 A 
HETATM   12  O   UNK N   1      30.140  52.623  40.888  0.00  0.00    -0.321 OA
HETATM   13  C   UNK N   1      29.378  53.703  40.849  0.00  0.00     0.159 A 
HETATM   14  C   UNK N   1      29.492  54.714  41.815  0.00  0.00     0.048 A 
ENDROOT
BRANCH  14  15
HETATM   15  C   UNK N   1      28.609  55.920  41.698  0.00  0.00    -0.015 A 
HETATM   16  C   UNK N   1      27.295  55.940  42.204  0.00  0.00     0.052 A 
HETATM   17  C   UNK N   1      26.531  57.123  42.150  0.00  0.00     0.105 A 
HETATM   18  C   UNK N   1      27.050  58.282  41.556  0.00  0.00     0.135 A 
HETATM   19  C   UNK N   1      28.353  58.250  41.002  0.00  0.00     0.102 A 
HETATM   20  C   UNK N   1      29.120  57.083  41.097  0.00  0.00     0.052 A 
BRANCH  17  21
HETATM   21  O   UNK N   1      25.297  57.178  42.701  0.00  0.00    -0.353 OA
HETATM   22  C   UNK N   1      25.082  57.314  44.052  0.00  0.00     0.210 C 
ENDBRANCH  17  21
BRANCH  18  23
HETATM   23  O   UNK N   1      26.255  59.389  41.543  0.00  0.00    -0.351 OA
HETATM   24  C   UNK N   1      25.439  59.819  40.520  0.00  0.00     0.210 C 
ENDBRANCH  18  23
BRANCH  19  25
HETATM   25  O   UNK N   1      28.874  59.330  40.384  0.00  0.00    -0.358 OA
HETATM   26  H   UNK N   1      29.593  59.256  39.741  0.00  0.00     0.218 HD
ENDBRANCH  19  25
ENDBRANCH  14  15
BRANCH   4  27
HETATM   27  O   UNK N   1      32.417  53.812  45.025  0.00  0.00    -0.357 OA
HETATM   28  H   UNK N   1      32.972  54.597  45.036  0.00  0.00     0.218 HD
ENDBRANCH   4  27
TORSDOF 5
ENDMDL
MODEL 6
REMARK VINA RESULT:      -5.0     16.135     19.394
REMARK  5 active torsions:
REMARK  status: ('A' for Active; 'I' for Inactive)
REMARK    1  A    between atoms: C_4  and  O_5 
REMARK    2  A    between atoms: C_16  and  C_17 
REMARK    3  A    between atoms: C_19  and  O_20 
REMARK    4  A    between atoms: C_22  and  O_23 
REMARK    5  A    between atoms: C_25  and  O_27 
ROOT
HETATM    1  O   UNK N   1      28.389  41.979  56.756  0.00  0.00    -0.286 OA
HETATM    2  C   UNK N   1      29.568  42.198  56.561  0.00  0.00     0.200 A 
HETATM    3  C   UNK N   1      30.438  42.566  57.627  0.00  0.00     0.085 A 
HETATM    4  C   UNK N   1      30.037  42.698  59.010  0.00  0.00     0.119 A 
HETATM    5  C   UNK N   1      31.017  43.071  59.931  0.00  0.00     0.139 A 
HETATM    6  O   UNK N   1      30.886  43.240  61.249  0.00  0.00    -0.320 OA
HETATM    7  C   UNK N   1      32.129  43.604  61.776  0.00  0.00     0.352 A 
HETATM    8  O   UNK N   1      32.985  43.640  60.672  0.00  0.00    -0.323 OA
HETATM    9  C   UNK N   1      32.285  43.309  59.588  0.00  0.00     0.110 A 
HETATM   10  C   UNK N   1      32.734  43.194  58.285  0.00  0.00     0.078 A 
HETATM   11  C   UNK N   1      31.813  42.809  57.297  0.00  0.00     0.094 A 
HETATM   12  O   UNK N   1      32.249  42.663  56.055  0.00  0.00    -0.321 OA
HETATM   13  C   UNK N   1      31.464  42.283  55.061  0.00  0.00     0.159 A 
HETATM   14  C   UNK N   1      30.095  42.046  55.258  0.00  0.00     0.048 A 
ENDROOT
BRANCH  14  15
HETATM   15  C   UNK N   1      29.261  41.636  54.082  0.00  0.00    -0.015 A 
HETATM   16  C   UNK N   1      28.661  40.365  53.994  0.00  0.00     0.052 A 
HETATM   17  C   UNK N   1      27.814  40.053  52.913  0.00  0.00     0.105 A 
HETATM   18  C   UNK N   1      27.590  40.984  51.889  0.00  0.00     0.135 A 
HETATM   19  C   UNK N   1      28.233  42.245  51.949  0.00  0.00     0.102 A 
HETATM   20  C   UNK N   1      29.039  42.561  53.048  0.00  0.00     0.052 A 
BRANCH  17  21
HETATM   21  O   UNK N   1      27.169  38.864  52.856  0.00  0.00    -0.353 OA
HETATM   22  C   UNK N   1      27.467  37.808  53.683  0.00  0.00     0.210 C 
ENDBRANCH  17  21
BRANCH  18  23
HETATM   23  O   UNK N   1      26.757  40.613  50.876  0.00  0.00    -0.351 OA
HETATM   24  C   UNK N   1      25.461  41.032  50.664  0.00  0.00     0.210 C 
ENDBRANCH  18  23
BRANCH  19  25
HETATM   25  O   UNK N   1      28.078  43.153  50.964  0.00  0.00    -0.358 OA
HETATM   26  H   UNK N   1      28.756  43.297  50.288  0.00  0.00     0.218 HD
ENDBRANCH  19  25
ENDBRANCH  14  15
BRANCH   4  27
HETATM   27  O   UNK N   1      28.789  42.469  59.475  0.00  0.00    -0.357 OA
HETATM   28  H   UNK N   1      28.096  43.127  59.585  0.00  0.00     0.218 HD
ENDBRANCH   4  27
TORSDOF 5
ENDMDL
MODEL 7
REMARK VINA RESULT:      -5.0      2.159      3.565
REMARK  5 active torsions:
REMARK  status: ('A' for Active; 'I' for Inactive)
REMARK    1  A    between atoms: C_4  and  O_5 
REMARK    2  A    between atoms: C_16  and  C_17 
REMARK    3  A    between atoms: C_19  and  O_20 
REMARK    4  A    between atoms: C_22  and  O_23 
REMARK    5  A    between atoms: C_25  and  O_27 
ROOT
HETATM    1  O   UNK N   1      29.856  55.261  42.714  0.00  0.00    -0.286 OA
HETATM    2  C   UNK N   1      30.100  54.199  42.175  0.00  0.00     0.200 A 
HETATM    3  C   UNK N   1      31.098  53.322  42.687  0.00  0.00     0.085 A 
HETATM    4  C   UNK N   1      31.890  53.575  43.869  0.00  0.00     0.119 A 
HETATM    5  C   UNK N   1      32.830  52.609  44.233  0.00  0.00     0.139 A 
HETATM    6  O   UNK N   1      33.656  52.619  45.281  0.00  0.00    -0.320 OA
HETATM    7  C   UNK N   1      34.415  51.445  45.260  0.00  0.00     0.352 A 
HETATM    8  O   UNK N   1      33.975  50.759  44.125  0.00  0.00    -0.323 OA
HETATM    9  C   UNK N   1      33.022  51.485  43.540  0.00  0.00     0.110 A 
HETATM   10  C   UNK N   1      32.293  51.179  42.406  0.00  0.00     0.078 A 
HETATM   11  C   UNK N   1      31.315  52.093  41.979  0.00  0.00     0.094 A 
HETATM   12  O   UNK N   1      30.591  51.785  40.914  0.00  0.00    -0.321 OA
HETATM   13  C   UNK N   1      29.634  52.570  40.449  0.00  0.00     0.159 A 
HETATM   14  C   UNK N   1      29.350  53.810  41.041  0.00  0.00     0.048 A 
ENDROOT
BRANCH  14  15
HETATM   15  C   UNK N   1      28.264  54.657  40.449  0.00  0.00    -0.015 A 
HETATM   16  C   UNK N   1      28.511  55.573  39.409  0.00  0.00     0.052 A 
HETATM   17  C   UNK N   1      27.446  56.285  38.823  0.00  0.00     0.105 A 
HETATM   18  C   UNK N   1      26.135  56.125  39.293  0.00  0.00     0.135 A 
HETATM   19  C   UNK N   1      25.892  55.241  40.372  0.00  0.00     0.102 A 
HETATM   20  C   UNK N   1      26.949  54.507  40.921  0.00  0.00     0.052 A 
BRANCH  17  21
HETATM   21  O   UNK N   1      27.658  57.111  37.771  0.00  0.00    -0.353 OA
HETATM   22  C   UNK N   1      28.099  56.670  36.546  0.00  0.00     0.210 C 
ENDBRANCH  17  21
BRANCH  18  23
HETATM   23  O   UNK N   1      25.156  56.845  38.675  0.00  0.00    -0.351 OA
HETATM   24  C   UNK N   1      24.334  56.429  37.650  0.00  0.00     0.210 C 
ENDBRANCH  18  23
BRANCH  19  25
HETATM   25  O   UNK N   1      24.652  55.090  40.882  0.00  0.00    -0.358 OA
HETATM   26  H   UNK N   1      23.865  55.415  40.423  0.00  0.00     0.218 HD
ENDBRANCH  19  25
ENDBRANCH  14  15
BRANCH   4  27
HETATM   27  O   UNK N   1      31.774  54.669  44.655  0.00  0.00    -0.357 OA
HETATM   28  H   UNK N   1      32.368  54.918  45.369  0.00  0.00     0.218 HD
ENDBRANCH   4  27
TORSDOF 5
ENDMDL
MODEL 8
REMARK VINA RESULT:      -5.0     15.479     19.805
REMARK  5 active torsions:
REMARK  status: ('A' for Active; 'I' for Inactive)
REMARK    1  A    between atoms: C_4  and  O_5 
REMARK    2  A    between atoms: C_16  and  C_17 
REMARK    3  A    between atoms: C_19  and  O_20 
REMARK    4  A    between atoms: C_22  and  O_23 
REMARK    5  A    between atoms: C_25  and  O_27 
ROOT
HETATM    1  O   UNK N   1      27.784  42.965  56.317  0.00  0.00    -0.286 OA
HETATM    2  C   UNK N   1      28.457  42.621  55.364  0.00  0.00     0.200 A 
HETATM    3  C   UNK N   1      27.934  42.653  54.040  0.00  0.00     0.085 A 
HETATM    4  C   UNK N   1      26.604  43.096  53.689  0.00  0.00     0.119 A 
HETATM    5  C   UNK N   1      26.249  43.062  52.340  0.00  0.00     0.139 A 
HETATM    6  O   UNK N   1      25.093  43.431  51.784  0.00  0.00    -0.320 OA
HETATM    7  C   UNK N   1      25.182  43.234  50.402  0.00  0.00     0.352 A 
HETATM    8  O   UNK N   1      26.465  42.721  50.199  0.00  0.00    -0.323 OA
HETATM    9  C   UNK N   1      27.075  42.638  51.381  0.00  0.00     0.110 A 
HETATM   10  C   UNK N   1      28.362  42.208  51.648  0.00  0.00     0.078 A 
HETATM   11  C   UNK N   1      28.803  42.225  52.982  0.00  0.00     0.094 A 
HETATM   12  O   UNK N   1      30.047  41.847  53.236  0.00  0.00    -0.321 OA
HETATM   13  C   UNK N   1      30.561  41.849  54.454  0.00  0.00     0.159 A 
HETATM   14  C   UNK N   1      29.797  42.221  55.571  0.00  0.00     0.048 A 
ENDROOT
BRANCH  14  15
HETATM   15  C   UNK N   1      30.439  42.181  56.925  0.00  0.00    -0.015 A 
HETATM   16  C   UNK N   1      29.919  41.406  57.979  0.00  0.00     0.052 A 
HETATM   17  C   UNK N   1      30.602  41.329  59.209  0.00  0.00     0.105 A 
HETATM   18  C   UNK N   1      31.783  42.055  59.416  0.00  0.00     0.135 A 
HETATM   19  C   UNK N   1      32.282  42.875  58.374  0.00  0.00     0.102 A 
HETATM   20  C   UNK N   1      31.619  42.912  57.142  0.00  0.00     0.052 A 
BRANCH  17  21
HETATM   21  O   UNK N   1      30.155  40.527  60.203  0.00  0.00    -0.353 OA
HETATM   22  C   UNK N   1      30.219  39.155  60.148  0.00  0.00     0.210 C 
ENDBRANCH  17  21
BRANCH  18  23
HETATM   23  O   UNK N   1      32.391  41.929  60.629  0.00  0.00    -0.351 OA
HETATM   24  C   UNK N   1      32.279  42.776  61.711  0.00  0.00     0.210 C 
ENDBRANCH  18  23
BRANCH  19  25
HETATM   25  O   UNK N   1      33.392  43.622  58.546  0.00  0.00    -0.358 OA
HETATM   26  H   UNK N   1      34.077  43.686  57.866  0.00  0.00     0.218 HD
ENDBRANCH  19  25
ENDBRANCH  14  15
BRANCH   4  27
HETATM   27  O   UNK N   1      25.688  43.559  54.570  0.00  0.00    -0.357 OA
HETATM   28  H   UNK N   1      24.941  43.066  54.921  0.00  0.00     0.218 HD
ENDBRANCH   4  27
TORSDOF 5
ENDMDL
MODEL 9
REMARK VINA RESULT:      -4.9     16.114     19.537
REMARK  5 active torsions:
REMARK  status: ('A' for Active; 'I' for Inactive)
REMARK    1  A    between atoms: C_4  and  O_5 
REMARK    2  A    between atoms: C_16  and  C_17 
REMARK    3  A    between atoms: C_19  and  O_20 
REMARK    4  A    between atoms: C_22  and  O_23 
REMARK    5  A    between atoms: C_25  and  O_27 
ROOT
HETATM    1  O   UNK N   1      31.163  42.287  55.555  0.00  0.00    -0.286 OA
HETATM    2  C   UNK N   1      30.306  42.141  56.404  0.00  0.00     0.200 A 
HETATM    3  C   UNK N   1      30.582  42.373  57.782  0.00  0.00     0.085 A 
HETATM    4  C   UNK N   1      31.857  42.809  58.305  0.00  0.00     0.119 A 
HETATM    5  C   UNK N   1      31.959  42.987  59.685  0.00  0.00     0.139 A 
HETATM    6  O   UNK N   1      33.020  43.392  60.386  0.00  0.00    -0.320 OA
HETATM    7  C   UNK N   1      32.669  43.437  61.739  0.00  0.00     0.352 A 
HETATM    8  O   UNK N   1      31.335  43.023  61.772  0.00  0.00    -0.323 OA
HETATM    9  C   UNK N   1      30.944  42.768  60.524  0.00  0.00     0.110 A 
HETATM   10  C   UNK N   1      29.698  42.358  60.088  0.00  0.00     0.078 A 
HETATM   11  C   UNK N   1      29.506  42.168  58.709  0.00  0.00     0.094 A 
HETATM   12  O   UNK N   1      28.304  41.809  58.286  0.00  0.00    -0.321 OA
HETATM   13  C   UNK N   1      28.020  41.628  57.007  0.00  0.00     0.159 A 
HETATM   14  C   UNK N   1      28.999  41.771  56.012  0.00  0.00     0.048 A 
ENDROOT
BRANCH  14  15
HETATM   15  C   UNK N   1      28.611  41.532  54.584  0.00  0.00    -0.015 A 
HETATM   16  C   UNK N   1      28.032  40.321  54.157  0.00  0.00     0.052 A 
HETATM   17  C   UNK N   1      27.602  40.171  52.824  0.00  0.00     0.105 A 
HETATM   18  C   UNK N   1      27.783  41.205  51.894  0.00  0.00     0.135 A 
HETATM   19  C   UNK N   1      28.410  42.405  52.309  0.00  0.00     0.102 A 
HETATM   20  C   UNK N   1      28.796  42.561  53.645  0.00  0.00     0.052 A 
BRANCH  17  21
HETATM   21  O   UNK N   1      26.974  39.043  52.419  0.00  0.00    -0.353 OA
HETATM   22  C   UNK N   1      25.713  38.692  52.840  0.00  0.00     0.210 C 
ENDBRANCH  17  21
BRANCH  18  23
HETATM   23  O   UNK N   1      27.340  40.989  50.623  0.00  0.00    -0.351 OA
HETATM   24  C   UNK N   1      26.118  41.343  50.093  0.00  0.00     0.210 C 
ENDBRANCH  18  23
BRANCH  19  25
HETATM   25  O   UNK N   1      28.642  43.408  51.437  0.00  0.00    -0.358 OA
HETATM   26  H   UNK N   1      28.688  44.332  51.719  0.00  0.00     0.218 HD
ENDBRANCH  19  25
ENDBRANCH  14  15
BRANCH   4  27
HETATM   27  O   UNK N   1      32.949  43.074  57.553  0.00  0.00    -0.357 OA
HETATM   28  H   UNK N   1      33.135  43.900  57.097  0.00  0.00     0.218 HD
ENDBRANCH   4  27
TORSDOF 5
ENDMDL
