MODEL 1
REMARK VINA RESULT:      -5.5      0.000      0.000
REMARK  5 active torsions:
REMARK  status: ('A' for Active; 'I' for Inactive)
REMARK    1  A    between atoms: C_5  and  C_7 
REMARK    2  A    between atoms: C_9  and  O_10 
REMARK    3  A    between atoms: C_14  and  C_15 
REMARK    4  A    between atoms: C_19  and  O_20 
REMARK    5  A    between atoms: C_22  and  O_23 
ROOT
HETATM    1  C   UNK N   1      30.674  43.229  59.264  0.00  0.00     0.028 C 
HETATM    2  C   UNK N   1      30.048  44.579  58.788  0.00  0.00    -0.005 C 
HETATM    3  C   UNK N   1      29.542  45.203  60.116  0.00  0.00     0.070 C 
HETATM    4  C   UNK N   1      28.676  46.470  59.835  0.00  0.00     0.030 C 
HETATM    5  C   UNK N   1      29.490  47.520  59.030  0.00  0.00     0.012 C 
HETATM    6  C   UNK N   1      28.574  48.754  58.643  0.00  0.00     0.043 C 
HETATM    7  C   UNK N   1      27.713  49.214  59.827  0.00  0.00    -0.065 C 
HETATM    8  C   UNK N   1      27.018  50.558  59.720  0.00  0.00     0.069 C 
HETATM    9  C   UNK N   1      28.052  51.647  59.406  0.00  0.00     0.151 C 
HETATM   10  C   UNK N   1      28.789  51.305  58.090  0.00  0.00     0.148 C 
HETATM   11  C   UNK N   1      29.509  49.942  58.236  0.00  0.00     0.056 C 
HETATM   12  C   UNK N   1      27.558  48.478  60.950  0.00  0.00    -0.022 C 
HETATM   13  C   UNK N   1      28.158  47.111  61.142  0.00  0.00     0.035 C 
HETATM   14  C   UNK N   1      30.221  46.914  57.783  0.00  0.00     0.007 C 
HETATM   15  C   UNK N   1      30.986  45.607  58.098  0.00  0.00     0.013 C 
HETATM   16  C   UNK N   1      28.839  43.994  60.759  0.00  0.00     0.040 C 
HETATM   17  C   UNK N   1      29.862  42.860  60.550  0.00  0.00     0.013 C 
HETATM   18  C   UNK N   1      28.907  44.187  57.771  0.00  0.00     0.019 C 
ENDROOT
BRANCH   1  19
HETATM   19  C   UNK N   1      32.190  43.222  59.464  0.00  0.00    -0.045 A 
HETATM   20  C   UNK N   1      33.166  42.954  58.331  0.00  0.00     0.213 A 
HETATM   21  O   UNK N   1      34.402  43.016  58.958  0.00  0.00    -0.314 OA
HETATM   22  C   UNK N   1      34.249  43.279  60.265  0.00  0.00     0.283 A 
HETATM   23  O   UNK N   1      35.175  43.364  61.051  0.00  0.00    -0.260 OA
HETATM   24  C   UNK N   1      32.861  43.419  60.596  0.00  0.00     0.087 A 
ENDBRANCH   1  19
BRANCH   3  25
HETATM   25  O   UNK N   1      30.661  45.577  60.899  0.00  0.00    -0.389 OA
HETATM   26  H   UNK N   1      31.479  45.545  60.339  0.00  0.00     0.210 HD
ENDBRANCH   3  25
BRANCH   6  27
HETATM   27  C   UNK N   1      27.626  48.414  57.496  0.00  0.00     0.245 C 
HETATM   28  O   UNK N   1      27.926  48.656  56.337  0.00  0.00    -0.306 OA
ENDBRANCH   6  27
BRANCH  10  29
HETATM   29  O   UNK N   1      27.895  51.280  57.007  0.00  0.00    -0.393 OA
HETATM   30  H   UNK N   1      27.813  50.335  56.715  0.00  0.00     0.210 HD
ENDBRANCH  10  29
BRANCH   9  31
HETATM   31  O   UNK N   1      27.404  52.886  59.302  0.00  0.00    -0.393 OA
HETATM   32  H   UNK N   1      27.652  53.264  58.418  0.00  0.00     0.210 HD
ENDBRANCH   9  31
TORSDOF 5
ENDMDL
MODEL 2
REMARK VINA RESULT:      -5.2      5.692      8.624
REMARK  5 active torsions:
REMARK  status: ('A' for Active; 'I' for Inactive)
REMARK    1  A    between atoms: C_5  and  C_7 
REMARK    2  A    between atoms: C_9  and  O_10 
REMARK    3  A    between atoms: C_14  and  C_15 
REMARK    4  A    between atoms: C_19  and  O_20 
REMARK    5  A    between atoms: C_22  and  O_23 
ROOT
HETATM    1  C   UNK N   1      28.353  41.114  53.916  0.00  0.00     0.028 C 
HETATM    2  C   UNK N   1      28.762  40.825  55.396  0.00  0.00    -0.005 C 
HETATM    3  C   UNK N   1      29.764  41.971  55.700  0.00  0.00     0.070 C 
HETATM    4  C   UNK N   1      30.468  41.739  57.072  0.00  0.00     0.030 C 
HETATM    5  C   UNK N   1      29.418  41.635  58.213  0.00  0.00     0.012 C 
HETATM    6  C   UNK N   1      30.126  41.281  59.586  0.00  0.00     0.043 C 
HETATM    7  C   UNK N   1      31.394  42.118  59.803  0.00  0.00    -0.065 C 
HETATM    8  C   UNK N   1      32.011  42.126  61.189  0.00  0.00     0.069 C 
HETATM    9  C   UNK N   1      30.956  42.549  62.218  0.00  0.00     0.151 C 
HETATM   10  C   UNK N   1      29.750  41.580  62.161  0.00  0.00     0.148 C 
HETATM   11  C   UNK N   1      29.125  41.610  60.745  0.00  0.00     0.056 C 
HETATM   12  C   UNK N   1      31.970  42.843  58.819  0.00  0.00    -0.022 C 
HETATM   13  C   UNK N   1      31.472  42.867  57.399  0.00  0.00     0.035 C 
HETATM   14  C   UNK N   1      28.243  40.651  57.884  0.00  0.00     0.007 C 
HETATM   15  C   UNK N   1      27.643  40.863  56.475  0.00  0.00     0.013 C 
HETATM   16  C   UNK N   1      30.644  41.933  54.438  0.00  0.00     0.040 C 
HETATM   17  C   UNK N   1      29.603  41.830  53.305  0.00  0.00     0.013 C 
HETATM   18  C   UNK N   1      29.398  39.382  55.392  0.00  0.00     0.019 C 
ENDROOT
BRANCH   1  19
HETATM   19  C   UNK N   1      27.042  41.873  53.714  0.00  0.00    -0.045 A 
HETATM   20  C   UNK N   1      25.688  41.182  53.693  0.00  0.00     0.213 A 
HETATM   21  O   UNK N   1      24.806  42.226  53.460  0.00  0.00    -0.314 OA
HETATM   22  C   UNK N   1      25.472  43.385  53.350  0.00  0.00     0.283 A 
HETATM   23  O   UNK N   1      24.937  44.454  53.122  0.00  0.00    -0.260 OA
HETATM   24  C   UNK N   1      26.881  43.179  53.515  0.00  0.00     0.087 A 
ENDBRANCH   1  19
BRANCH   3  25
HETATM   25  O   UNK N   1      29.054  43.196  55.749  0.00  0.00    -0.389 OA
HETATM   26  H   UNK N   1      29.532  43.829  56.345  0.00  0.00     0.210 HD
ENDBRANCH   3  25
BRANCH   6  27
HETATM   27  C   UNK N   1      30.534  39.811  59.647  0.00  0.00     0.245 C 
HETATM   28  O   UNK N   1      29.776  38.964  60.095  0.00  0.00    -0.306 OA
ENDBRANCH   6  27
BRANCH  10  29
HETATM   29  O   UNK N   1      30.141  40.275  62.503  0.00  0.00    -0.393 OA
HETATM   30  H   UNK N   1      29.822  39.674  61.781  0.00  0.00     0.210 HD
ENDBRANCH  10  29
BRANCH   9  31
HETATM   31  O   UNK N   1      31.529  42.549  63.498  0.00  0.00    -0.393 OA
HETATM   32  H   UNK N   1      32.173  41.794  63.522  0.00  0.00     0.210 HD
ENDBRANCH   9  31
TORSDOF 5
ENDMDL
MODEL 3
REMARK VINA RESULT:      -5.1      1.665      7.730
REMARK  5 active torsions:
REMARK  status: ('A' for Active; 'I' for Inactive)
REMARK    1  A    between atoms: C_5  and  C_7 
REMARK    2  A    between atoms: C_9  and  O_10 
REMARK    3  A    between atoms: C_14  and  C_15 
REMARK    4  A    between atoms: C_19  and  O_20 
REMARK    5  A    between atoms: C_22  and  O_23 
ROOT
HETATM    1  C   UNK N   1      27.046  50.489  57.996  0.00  0.00     0.028 C 
HETATM    2  C   UNK N   1      27.420  49.026  58.398  0.00  0.00    -0.005 C 
HETATM    3  C   UNK N   1      28.829  48.853  57.770  0.00  0.00     0.070 C 
HETATM    4  C   UNK N   1      29.297  47.368  57.867  0.00  0.00     0.030 C 
HETATM    5  C   UNK N   1      29.313  46.897  59.348  0.00  0.00     0.012 C 
HETATM    6  C   UNK N   1      29.674  45.356  59.434  0.00  0.00     0.043 C 
HETATM    7  C   UNK N   1      30.850  44.996  58.516  0.00  0.00    -0.065 C 
HETATM    8  C   UNK N   1      31.514  43.646  58.709  0.00  0.00     0.069 C 
HETATM    9  C   UNK N   1      31.961  43.498  60.168  0.00  0.00     0.151 C 
HETATM   10  C   UNK N   1      30.741  43.647  61.108  0.00  0.00     0.148 C 
HETATM   11  C   UNK N   1      30.099  45.041  60.909  0.00  0.00     0.056 C 
HETATM   12  C   UNK N   1      31.313  45.830  57.558  0.00  0.00    -0.022 C 
HETATM   13  C   UNK N   1      30.699  47.168  57.248  0.00  0.00     0.035 C 
HETATM   14  C   UNK N   1      27.993  47.238  60.120  0.00  0.00     0.007 C 
HETATM   15  C   UNK N   1      27.523  48.697  59.913  0.00  0.00     0.013 C 
HETATM   16  C   UNK N   1      28.595  49.430  56.363  0.00  0.00     0.040 C 
HETATM   17  C   UNK N   1      27.819  50.729  56.656  0.00  0.00     0.013 C 
HETATM   18  C   UNK N   1      26.303  48.109  57.765  0.00  0.00     0.019 C 
ENDROOT
BRANCH   1  19
HETATM   19  C   UNK N   1      27.292  51.563  59.055  0.00  0.00    -0.045 A 
HETATM   20  C   UNK N   1      26.247  51.950  60.090  0.00  0.00     0.213 A 
HETATM   21  O   UNK N   1      26.874  52.957  60.808  0.00  0.00    -0.314 OA
HETATM   22  C   UNK N   1      28.105  53.180  60.324  0.00  0.00     0.283 A 
HETATM   23  O   UNK N   1      28.860  54.029  60.760  0.00  0.00    -0.260 OA
HETATM   24  C   UNK N   1      28.384  52.304  59.224  0.00  0.00     0.087 A 
ENDBRANCH   1  19
BRANCH   3  25
HETATM   25  O   UNK N   1      29.746  49.671  58.475  0.00  0.00    -0.389 OA
HETATM   26  H   UNK N   1      30.628  49.641  58.022  0.00  0.00     0.210 HD
ENDBRANCH   3  25
BRANCH   6  27
HETATM   27  C   UNK N   1      28.493  44.477  59.029  0.00  0.00     0.245 C 
HETATM   28  O   UNK N   1      28.337  44.126  57.870  0.00  0.00    -0.306 OA
ENDBRANCH   6  27
BRANCH  10  29
HETATM   29  O   UNK N   1      29.801  42.630  60.873  0.00  0.00    -0.393 OA
HETATM   30  H   UNK N   1      29.421  42.372  61.753  0.00  0.00     0.210 HD
ENDBRANCH  10  29
BRANCH   9  31
HETATM   31  O   UNK N   1      32.568  42.246  60.343  0.00  0.00    -0.393 OA
HETATM   32  H   UNK N   1      33.493  42.419  60.661  0.00  0.00     0.210 HD
ENDBRANCH   9  31
TORSDOF 5
ENDMDL
MODEL 4
REMARK VINA RESULT:      -5.1      5.164      7.503
REMARK  5 active torsions:
REMARK  status: ('A' for Active; 'I' for Inactive)
REMARK    1  A    between atoms: C_5  and  C_7 
REMARK    2  A    between atoms: C_9  and  O_10 
REMARK    3  A    between atoms: C_14  and  C_15 
REMARK    4  A    between atoms: C_19  and  O_20 
REMARK    5  A    between atoms: C_22  and  O_23 
ROOT
HETATM    1  C   UNK N   1      29.819  41.854  58.432  0.00  0.00     0.028 C 
HETATM    2  C   UNK N   1      29.167  41.528  57.050  0.00  0.00    -0.005 C 
HETATM    3  C   UNK N   1      28.131  42.673  56.887  0.00  0.00     0.070 C 
HETATM    4  C   UNK N   1      27.206  42.409  55.659  0.00  0.00     0.030 C 
HETATM    5  C   UNK N   1      28.049  42.265  54.361  0.00  0.00     0.012 C 
HETATM    6  C   UNK N   1      27.120  41.880  53.137  0.00  0.00     0.043 C 
HETATM    7  C   UNK N   1      25.836  42.719  53.112  0.00  0.00    -0.065 C 
HETATM    8  C   UNK N   1      24.995  42.695  51.850  0.00  0.00     0.069 C 
HETATM    9  C   UNK N   1      25.864  43.081  50.647  0.00  0.00     0.151 C 
HETATM   10  C   UNK N   1      27.059  42.106  50.528  0.00  0.00     0.148 C 
HETATM   11  C   UNK N   1      27.913  42.170  51.818  0.00  0.00     0.056 C 
HETATM   12  C   UNK N   1      25.435  43.476  54.159  0.00  0.00    -0.022 C 
HETATM   13  C   UNK N   1      26.164  43.534  55.474  0.00  0.00     0.035 C 
HETATM   14  C   UNK N   1      29.261  41.283  54.516  0.00  0.00     0.007 C 
HETATM   15  C   UNK N   1      30.089  41.529  55.799  0.00  0.00     0.013 C 
HETATM   16  C   UNK N   1      27.476  42.675  58.279  0.00  0.00     0.040 C 
HETATM   17  C   UNK N   1      28.691  42.596  59.224  0.00  0.00     0.013 C 
HETATM   18  C   UNK N   1      28.537  40.090  57.201  0.00  0.00     0.019 C 
ENDROOT
BRANCH   1  19
HETATM   19  C   UNK N   1      31.147  42.609  58.391  0.00  0.00    -0.045 A 
HETATM   20  C   UNK N   1      31.303  43.959  57.710  0.00  0.00     0.213 A 
HETATM   21  O   UNK N   1      32.647  44.248  57.889  0.00  0.00    -0.314 OA
HETATM   22  C   UNK N   1      33.252  43.261  58.566  0.00  0.00     0.283 A 
HETATM   23  O   UNK N   1      34.438  43.254  58.837  0.00  0.00    -0.260 OA
HETATM   24  C   UNK N   1      32.317  42.225  58.895  0.00  0.00     0.087 A 
ENDBRANCH   1  19
BRANCH   3  25
HETATM   25  O   UNK N   1      28.826  43.891  56.685  0.00  0.00    -0.389 OA
HETATM   26  H   UNK N   1      29.803  43.722  56.724  0.00  0.00     0.210 HD
ENDBRANCH   3  25
BRANCH   6  27
HETATM   27  C   UNK N   1      26.704  40.412  53.186  0.00  0.00     0.245 C 
HETATM   28  O   UNK N   1      27.369  39.548  52.635  0.00  0.00    -0.306 OA
ENDBRANCH   6  27
BRANCH  10  29
HETATM   29  O   UNK N   1      26.613  40.795  50.293  0.00  0.00    -0.393 OA
HETATM   30  H   UNK N   1      26.585  40.666  49.310  0.00  0.00     0.210 HD
ENDBRANCH  10  29
BRANCH   9  31
HETATM   31  O   UNK N   1      25.084  43.051  49.482  0.00  0.00    -0.393 OA
HETATM   32  H   UNK N   1      24.611  43.922  49.433  0.00  0.00     0.210 HD
ENDBRANCH   9  31
TORSDOF 5
ENDMDL
MODEL 5
REMARK VINA RESULT:      -5.0      2.839      4.684
REMARK  5 active torsions:
REMARK  status: ('A' for Active; 'I' for Inactive)
REMARK    1  A    between atoms: C_5  and  C_7 
REMARK    2  A    between atoms: C_9  and  O_10 
REMARK    3  A    between atoms: C_14  and  C_15 
REMARK    4  A    between atoms: C_19  and  O_20 
REMARK    5  A    between atoms: C_22  and  O_23 
ROOT
HETATM    1  C   UNK N   1      31.850  41.058  60.983  0.00  0.00     0.028 C 
HETATM    2  C   UNK N   1      31.199  42.471  60.840  0.00  0.00    -0.005 C 
HETATM    3  C   UNK N   1      31.636  42.903  59.414  0.00  0.00     0.070 C 
HETATM    4  C   UNK N   1      31.272  44.397  59.154  0.00  0.00     0.030 C 
HETATM    5  C   UNK N   1      29.745  44.625  59.335  0.00  0.00     0.012 C 
HETATM    6  C   UNK N   1      29.394  46.164  59.187  0.00  0.00     0.043 C 
HETATM    7  C   UNK N   1      30.115  46.798  57.990  0.00  0.00    -0.065 C 
HETATM    8  C   UNK N   1      29.654  48.167  57.527  0.00  0.00     0.069 C 
HETATM    9  C   UNK N   1      28.149  48.132  57.238  0.00  0.00     0.151 C 
HETATM   10  C   UNK N   1      27.381  47.696  58.509  0.00  0.00     0.148 C 
HETATM   11  C   UNK N   1      27.852  46.286  58.944  0.00  0.00     0.056 C 
HETATM   12  C   UNK N   1      31.127  46.185  57.336  0.00  0.00    -0.022 C 
HETATM   13  C   UNK N   1      31.696  44.852  57.740  0.00  0.00     0.035 C 
HETATM   14  C   UNK N   1      29.181  44.016  60.665  0.00  0.00     0.007 C 
HETATM   15  C   UNK N   1      29.650  42.565  60.920  0.00  0.00     0.013 C 
HETATM   16  C   UNK N   1      33.130  42.533  59.442  0.00  0.00     0.040 C 
HETATM   17  C   UNK N   1      33.117  41.124  60.066  0.00  0.00     0.013 C 
HETATM   18  C   UNK N   1      31.810  43.343  62.004  0.00  0.00     0.019 C 
ENDROOT
BRANCH   1  19
HETATM   19  C   UNK N   1      30.939  39.864  60.697  0.00  0.00    -0.045 A 
HETATM   20  C   UNK N   1      29.882  39.385  61.679  0.00  0.00     0.213 A 
HETATM   21  O   UNK N   1      29.329  38.288  61.035  0.00  0.00    -0.314 OA
HETATM   22  C   UNK N   1      29.922  38.095  59.847  0.00  0.00     0.283 A 
HETATM   23  O   UNK N   1      29.640  37.185  59.089  0.00  0.00    -0.260 OA
HETATM   24  C   UNK N   1      30.934  39.085  59.618  0.00  0.00     0.087 A 
ENDBRANCH   1  19
BRANCH   3  25
HETATM   25  O   UNK N   1      30.962  42.094  58.467  0.00  0.00    -0.389 OA
HETATM   26  H   UNK N   1      31.606  41.791  57.776  0.00  0.00     0.210 HD
ENDBRANCH   3  25
BRANCH   6  27
HETATM   27  C   UNK N   1      29.794  46.954  60.430  0.00  0.00     0.245 C 
HETATM   28  O   UNK N   1      29.013  47.112  61.356  0.00  0.00    -0.306 OA
ENDBRANCH   6  27
BRANCH  10  29
HETATM   29  O   UNK N   1      27.566  48.623  59.548  0.00  0.00    -0.393 OA
HETATM   30  H   UNK N   1      28.197  48.215  60.197  0.00  0.00     0.210 HD
ENDBRANCH  10  29
BRANCH   9  31
HETATM   31  O   UNK N   1      27.727  49.401  56.817  0.00  0.00    -0.393 OA
HETATM   32  H   UNK N   1      26.751  49.334  56.645  0.00  0.00     0.210 HD
ENDBRANCH   9  31
TORSDOF 5
ENDMDL
MODEL 6
REMARK VINA RESULT:      -5.0     13.583     17.074
REMARK  5 active torsions:
REMARK  status: ('A' for Active; 'I' for Inactive)
REMARK    1  A    between atoms: C_5  and  C_7 
REMARK    2  A    between atoms: C_9  and  O_10 
REMARK    3  A    between atoms: C_14  and  C_15 
REMARK    4  A    between atoms: C_19  and  O_20 
REMARK    5  A    between atoms: C_22  and  O_23 
ROOT
HETATM    1  C   UNK N   1      41.067  47.976  45.030  0.00  0.00     0.028 C 
HETATM    2  C   UNK N   1      41.074  46.888  46.151  0.00  0.00    -0.005 C 
HETATM    3  C   UNK N   1      41.778  47.618  47.327  0.00  0.00     0.070 C 
HETATM    4  C   UNK N   1      42.088  46.623  48.488  0.00  0.00     0.030 C 
HETATM    5  C   UNK N   1      40.782  45.945  48.988  0.00  0.00     0.012 C 
HETATM    6  C   UNK N   1      41.112  44.849  50.084  0.00  0.00     0.043 C 
HETATM    7  C   UNK N   1      42.136  45.360  51.107  0.00  0.00    -0.065 C 
HETATM    8  C   UNK N   1      42.326  44.560  52.382  0.00  0.00     0.069 C 
HETATM    9  C   UNK N   1      40.973  44.381  53.081  0.00  0.00     0.151 C 
HETATM   10  C   UNK N   1      39.981  43.669  52.131  0.00  0.00     0.148 C 
HETATM   11  C   UNK N   1      39.787  44.518  50.851  0.00  0.00     0.056 C 
HETATM   12  C   UNK N   1      42.861  46.485  50.918  0.00  0.00    -0.022 C 
HETATM   13  C   UNK N   1      42.790  47.325  49.671  0.00  0.00     0.035 C 
HETATM   14  C   UNK N   1      39.898  45.372  47.827  0.00  0.00     0.007 C 
HETATM   15  C   UNK N   1      39.701  46.366  46.660  0.00  0.00     0.013 C 
HETATM   16  C   UNK N   1      42.977  48.253  46.600  0.00  0.00     0.040 C 
HETATM   17  C   UNK N   1      42.327  48.852  45.338  0.00  0.00     0.013 C 
HETATM   18  C   UNK N   1      41.880  45.668  45.560  0.00  0.00     0.019 C 
ENDROOT
BRANCH   1  19
HETATM   19  C   UNK N   1      39.775  48.778  44.876  0.00  0.00    -0.045 A 
HETATM   20  C   UNK N   1      39.232  49.677  45.975  0.00  0.00     0.213 A 
HETATM   21  O   UNK N   1      38.058  50.171  45.425  0.00  0.00    -0.314 OA
HETATM   22  C   UNK N   1      37.877  49.679  44.190  0.00  0.00     0.283 A 
HETATM   23  O   UNK N   1      36.912  49.935  43.494  0.00  0.00    -0.260 OA
HETATM   24  C   UNK N   1      38.956  48.805  43.829  0.00  0.00     0.087 A 
ENDBRANCH   1  19
BRANCH   3  25
HETATM   25  O   UNK N   1      40.920  48.635  47.811  0.00  0.00    -0.389 OA
HETATM   26  H   UNK N   1      40.928  48.628  48.803  0.00  0.00     0.210 HD
ENDBRANCH   3  25
BRANCH   6  27
HETATM   27  C   UNK N   1      41.687  43.581  49.458  0.00  0.00     0.245 C 
HETATM   28  O   UNK N   1      40.967  42.638  49.167  0.00  0.00    -0.306 OA
ENDBRANCH   6  27
BRANCH  10  29
HETATM   29  O   UNK N   1      40.437  42.380  51.807  0.00  0.00    -0.393 OA
HETATM   30  H   UNK N   1      41.073  42.106  52.518  0.00  0.00     0.210 HD
ENDBRANCH  10  29
BRANCH   9  31
HETATM   31  O   UNK N   1      41.153  43.636  54.256  0.00  0.00    -0.393 OA
HETATM   32  H   UNK N   1      41.213  44.289  55.001  0.00  0.00     0.210 HD
ENDBRANCH   9  31
TORSDOF 5
ENDMDL
MODEL 7
REMARK VINA RESULT:      -4.9      3.932      7.406
REMARK  5 active torsions:
REMARK  status: ('A' for Active; 'I' for Inactive)
REMARK    1  A    between atoms: C_5  and  C_7 
REMARK    2  A    between atoms: C_9  and  O_10 
REMARK    3  A    between atoms: C_14  and  C_15 
REMARK    4  A    between atoms: C_19  and  O_20 
REMARK    5  A    between atoms: C_22  and  O_23 
ROOT
HETATM    1  C   UNK N   1      31.653  43.733  60.893  0.00  0.00     0.028 C 
HETATM    2  C   UNK N   1      31.338  43.390  59.402  0.00  0.00    -0.005 C 
HETATM    3  C   UNK N   1      30.588  42.036  59.518  0.00  0.00     0.070 C 
HETATM    4  C   UNK N   1      30.375  41.400  58.109  0.00  0.00     0.030 C 
HETATM    5  C   UNK N   1      29.584  42.370  57.188  0.00  0.00     0.012 C 
HETATM    6  C   UNK N   1      29.472  41.774  55.723  0.00  0.00     0.043 C 
HETATM    7  C   UNK N   1      29.104  40.284  55.744  0.00  0.00    -0.065 C 
HETATM    8  C   UNK N   1      28.659  39.644  54.442  0.00  0.00     0.069 C 
HETATM    9  C   UNK N   1      27.484  40.438  53.857  0.00  0.00     0.151 C 
HETATM   10  C   UNK N   1      27.907  41.908  53.628  0.00  0.00     0.148 C 
HETATM   11  C   UNK N   1      28.332  42.543  54.974  0.00  0.00     0.056 C 
HETATM   12  C   UNK N   1      29.155  39.532  56.866  0.00  0.00    -0.022 C 
HETATM   13  C   UNK N   1      29.630  40.050  58.197  0.00  0.00     0.035 C 
HETATM   14  C   UNK N   1      30.155  43.830  57.189  0.00  0.00     0.007 C 
HETATM   15  C   UNK N   1      30.436  44.375  58.608  0.00  0.00     0.013 C 
HETATM   16  C   UNK N   1      31.497  41.281  60.504  0.00  0.00     0.040 C 
HETATM   17  C   UNK N   1      31.762  42.338  61.594  0.00  0.00     0.013 C 
HETATM   18  C   UNK N   1      32.737  43.304  58.677  0.00  0.00     0.019 C 
ENDROOT
BRANCH   1  19
HETATM   19  C   UNK N   1      30.689  44.700  61.581  0.00  0.00    -0.045 A 
HETATM   20  C   UNK N   1      29.635  44.239  62.575  0.00  0.00     0.213 A 
HETATM   21  O   UNK N   1      28.987  45.417  62.914  0.00  0.00    -0.314 OA
HETATM   22  C   UNK N   1      29.527  46.454  62.257  0.00  0.00     0.283 A 
HETATM   23  O   UNK N   1      29.129  47.600  62.356  0.00  0.00    -0.260 OA
HETATM   24  C   UNK N   1      30.605  46.018  61.418  0.00  0.00     0.087 A 
ENDBRANCH   1  19
BRANCH   3  25
HETATM   25  O   UNK N   1      29.324  42.265  60.114  0.00  0.00    -0.389 OA
HETATM   26  H   UNK N   1      28.875  41.396  60.278  0.00  0.00     0.210 HD
ENDBRANCH   3  25
BRANCH   6  27
HETATM   27  C   UNK N   1      30.786  41.908  54.959  0.00  0.00     0.245 C 
HETATM   28  O   UNK N   1      31.345  40.930  54.487  0.00  0.00    -0.306 OA
ENDBRANCH   6  27
BRANCH  10  29
HETATM   29  O   UNK N   1      28.950  41.989  52.690  0.00  0.00    -0.393 OA
HETATM   30  H   UNK N   1      28.604  41.626  51.834  0.00  0.00     0.210 HD
ENDBRANCH  10  29
BRANCH   9  31
HETATM   31  O   UNK N   1      27.080  39.847  52.651  0.00  0.00    -0.393 OA
HETATM   32  H   UNK N   1      26.206  39.411  52.826  0.00  0.00     0.210 HD
ENDBRANCH   9  31
TORSDOF 5
ENDMDL
MODEL 8
REMARK VINA RESULT:      -4.9      2.619      4.041
REMARK  5 active torsions:
REMARK  status: ('A' for Active; 'I' for Inactive)
REMARK    1  A    between atoms: C_5  and  C_7 
REMARK    2  A    between atoms: C_9  and  O_10 
REMARK    3  A    between atoms: C_14  and  C_15 
REMARK    4  A    between atoms: C_19  and  O_20 
REMARK    5  A    between atoms: C_22  and  O_23 
ROOT
HETATM    1  C   UNK N   1      30.872  42.651  58.906  0.00  0.00     0.028 C 
HETATM    2  C   UNK N   1      30.340  44.038  59.390  0.00  0.00    -0.005 C 
HETATM    3  C   UNK N   1      30.575  44.941  58.150  0.00  0.00     0.070 C 
HETATM    4  C   UNK N   1      30.312  46.438  58.500  0.00  0.00     0.030 C 
HETATM    5  C   UNK N   1      28.864  46.628  59.030  0.00  0.00     0.012 C 
HETATM    6  C   UNK N   1      28.637  48.126  59.496  0.00  0.00     0.043 C 
HETATM    7  C   UNK N   1      29.207  49.128  58.484  0.00  0.00    -0.065 C 
HETATM    8  C   UNK N   1      28.805  50.584  58.622  0.00  0.00     0.069 C 
HETATM    9  C   UNK N   1      27.276  50.697  58.625  0.00  0.00     0.151 C 
HETATM   10  C   UNK N   1      26.690  49.854  59.782  0.00  0.00     0.148 C 
HETATM   11  C   UNK N   1      27.094  48.370  59.602  0.00  0.00     0.056 C 
HETATM   12  C   UNK N   1      30.038  48.765  57.482  0.00  0.00    -0.022 C 
HETATM   13  C   UNK N   1      30.540  47.360  57.281  0.00  0.00     0.035 C 
HETATM   14  C   UNK N   1      28.471  45.597  60.143  0.00  0.00     0.007 C 
HETATM   15  C   UNK N   1      28.840  44.139  59.784  0.00  0.00     0.013 C 
HETATM   16  C   UNK N   1      32.013  44.545  57.768  0.00  0.00     0.040 C 
HETATM   17  C   UNK N   1      31.972  43.007  57.852  0.00  0.00     0.013 C 
HETATM   18  C   UNK N   1      31.210  44.415  60.650  0.00  0.00     0.019 C 
ENDROOT
BRANCH   1  19
HETATM   19  C   UNK N   1      29.820  41.665  58.396  0.00  0.00    -0.045 A 
HETATM   20  C   UNK N   1      29.081  40.705  59.315  0.00  0.00     0.213 A 
HETATM   21  O   UNK N   1      28.266  40.000  58.442  0.00  0.00    -0.314 OA
HETATM   22  C   UNK N   1      28.446  40.429  57.184  0.00  0.00     0.283 A 
HETATM   23  O   UNK N   1      27.869  39.961  56.220  0.00  0.00    -0.260 OA
HETATM   24  C   UNK N   1      29.417  41.483  57.141  0.00  0.00     0.087 A 
ENDBRANCH   1  19
BRANCH   3  25
HETATM   25  O   UNK N   1      29.683  44.546  57.123  0.00  0.00    -0.389 OA
HETATM   26  H   UNK N   1      29.915  45.024  56.285  0.00  0.00     0.210 HD
ENDBRANCH   3  25
BRANCH   6  27
HETATM   27  C   UNK N   1      29.306  48.405  60.840  0.00  0.00     0.245 C 
HETATM   28  O   UNK N   1      28.704  48.242  61.890  0.00  0.00    -0.306 OA
ENDBRANCH   6  27
BRANCH  10  29
HETATM   29  O   UNK N   1      27.127  50.340  61.026  0.00  0.00    -0.393 OA
HETATM   30  H   UNK N   1      27.954  50.864  60.862  0.00  0.00     0.210 HD
ENDBRANCH  10  29
BRANCH   9  31
HETATM   31  O   UNK N   1      26.910  52.044  58.760  0.00  0.00    -0.393 OA
HETATM   32  H   UNK N   1      26.206  52.079  59.458  0.00  0.00     0.210 HD
ENDBRANCH   9  31
TORSDOF 5
ENDMDL
MODEL 9
REMARK VINA RESULT:      -4.9      1.824      7.574
REMARK  5 active torsions:
REMARK  status: ('A' for Active; 'I' for Inactive)
REMARK    1  A    between atoms: C_5  and  C_7 
REMARK    2  A    between atoms: C_9  and  O_10 
REMARK    3  A    between atoms: C_14  and  C_15 
REMARK    4  A    between atoms: C_19  and  O_20 
REMARK    5  A    between atoms: C_22  and  O_23 
ROOT
HETATM    1  C   UNK N   1      27.104  48.788  59.413  0.00  0.00     0.028 C 
HETATM    2  C   UNK N   1      27.835  47.423  59.617  0.00  0.00    -0.005 C 
HETATM    3  C   UNK N   1      29.002  47.509  58.596  0.00  0.00     0.070 C 
HETATM    4  C   UNK N   1      29.735  46.137  58.480  0.00  0.00     0.030 C 
HETATM    5  C   UNK N   1      30.273  45.687  59.867  0.00  0.00     0.012 C 
HETATM    6  C   UNK N   1      30.913  44.240  59.771  0.00  0.00     0.043 C 
HETATM    7  C   UNK N   1      31.808  44.097  58.532  0.00  0.00    -0.065 C 
HETATM    8  C   UNK N   1      32.729  42.895  58.457  0.00  0.00     0.069 C 
HETATM    9  C   UNK N   1      33.608  42.842  59.713  0.00  0.00     0.151 C 
HETATM   10  C   UNK N   1      32.715  42.770  60.975  0.00  0.00     0.148 C 
HETATM   11  C   UNK N   1      31.804  44.020  61.039  0.00  0.00     0.056 C 
HETATM   12  C   UNK N   1      31.810  44.996  57.522  0.00  0.00    -0.022 C 
HETATM   13  C   UNK N   1      30.902  46.195  57.470  0.00  0.00     0.035 C 
HETATM   14  C   UNK N   1      29.202  45.784  61.008  0.00  0.00     0.007 C 
HETATM   15  C   UNK N   1      28.439  47.130  61.018  0.00  0.00     0.013 C 
HETATM   16  C   UNK N   1      28.262  48.023  57.349  0.00  0.00     0.040 C 
HETATM   17  C   UNK N   1      27.389  49.158  57.919  0.00  0.00     0.013 C 
HETATM   18  C   UNK N   1      26.764  46.311  59.295  0.00  0.00     0.019 C 
ENDROOT
BRANCH   1  19
HETATM   19  C   UNK N   1      27.456  49.897  60.404  0.00  0.00    -0.045 A 
HETATM   20  C   UNK N   1      28.308  51.098  60.024  0.00  0.00     0.213 A 
HETATM   21  O   UNK N   1      28.392  51.811  61.210  0.00  0.00    -0.314 OA
HETATM   22  C   UNK N   1      27.714  51.184  62.183  0.00  0.00     0.283 A 
HETATM   23  O   UNK N   1      27.647  51.587  63.330  0.00  0.00    -0.260 OA
HETATM   24  C   UNK N   1      27.113  49.980  61.687  0.00  0.00     0.087 A 
ENDBRANCH   1  19
BRANCH   3  25
HETATM   25  O   UNK N   1      29.925  48.487  59.041  0.00  0.00    -0.389 OA
HETATM   26  H   UNK N   1      30.783  48.047  59.273  0.00  0.00     0.210 HD
ENDBRANCH   3  25
BRANCH   6  27
HETATM   27  C   UNK N   1      29.842  43.156  59.687  0.00  0.00     0.245 C 
HETATM   28  O   UNK N   1      29.370  42.817  58.612  0.00  0.00    -0.306 OA
ENDBRANCH   6  27
BRANCH  10  29
HETATM   29  O   UNK N   1      31.946  41.595  60.976  0.00  0.00    -0.393 OA
HETATM   30  H   UNK N   1      31.686  41.412  60.036  0.00  0.00     0.210 HD
ENDBRANCH  10  29
BRANCH   9  31
HETATM   31  O   UNK N   1      34.453  41.725  59.642  0.00  0.00    -0.393 OA
HETATM   32  H   UNK N   1      35.368  42.047  59.852  0.00  0.00     0.210 HD
ENDBRANCH   9  31
TORSDOF 5
ENDMDL
