MODEL 1
REMARK VINA RESULT:      -6.4      0.000      0.000
REMARK  6 active torsions:
REMARK  status: ('A' for Active; 'I' for Inactive)
REMARK    1  A    between atoms: C_6  and  C_11 
REMARK    2  A    between atoms: C_7  and  C_8 
REMARK    3  A    between atoms: C_8  and  C_9 
REMARK    4  A    between atoms: C_13  and  O_14 
REMARK    5  A    between atoms: C_20  and  O_21 
REMARK    6  A    between atoms: C_25  and  O_26 
ROOT
HETATM    1  O   UNK N   1      30.981  55.802  43.691  0.00  0.00    -0.287 OA
HETATM    2  C   UNK N   1      31.051  54.719  43.143  0.00  0.00     0.195 A 
HETATM    3  C   UNK N   1      31.933  53.710  43.624  0.00  0.00     0.077 A 
HETATM    4  C   UNK N   1      31.967  52.459  42.969  0.00  0.00     0.083 A 
HETATM    5  N   UNK N   1      31.166  52.240  41.882  0.00  0.00    -0.352 N 
HETATM    6  C   UNK N   1      30.317  53.190  41.408  0.00  0.00     0.053 A 
HETATM    7  C   UNK N   1      30.231  54.457  42.027  0.00  0.00     0.021 A 
HETATM    8  H   UNK N   1      31.199  51.319  41.393  0.00  0.00     0.166 HD
HETATM    9  C   UNK N   1      32.823  51.428  43.425  0.00  0.00     0.096 A 
HETATM   10  C   UNK N   1      33.638  51.664  44.549  0.00  0.00     0.042 A 
HETATM   11  C   UNK N   1      33.615  52.892  45.193  0.00  0.00     0.040 A 
HETATM   12  C   UNK N   1      32.782  53.922  44.743  0.00  0.00     0.084 A 
ENDROOT
BRANCH   6  13
HETATM   13  C   UNK N   1      29.511  52.855  40.222  0.00  0.00    -0.006 A 
HETATM   14  C   UNK N   1      28.432  51.974  40.344  0.00  0.00     0.050 A 
HETATM   15  C   UNK N   1      27.646  51.671  39.227  0.00  0.00     0.069 A 
HETATM   16  C   UNK N   1      27.934  52.259  37.989  0.00  0.00     0.037 A 
HETATM   17  C   UNK N   1      29.015  53.138  37.867  0.00  0.00     0.004 A 
HETATM   18  C   UNK N   1      29.804  53.436  38.982  0.00  0.00     0.014 A 
BRANCH  15  19
HETATM   19  O   UNK N   1      26.618  50.808  39.346  0.00  0.00    -0.356 OA
HETATM   20  C   UNK N   1      25.994  50.625  40.560  0.00  0.00     0.210 C 
ENDBRANCH  15  19
ENDBRANCH   6  13
BRANCH   7  21
HETATM   21  C   UNK N   1      29.260  55.512  41.502  0.00  0.00     0.044 C 
BRANCH  21  22
HETATM   22  C   UNK N   1      27.920  55.502  42.256  0.00  0.00     0.000 C 
HETATM   23  C   UNK N   1      26.770  55.073  41.340  0.00  0.00     0.005 C 
ENDBRANCH  21  22
ENDBRANCH   7  21
BRANCH   9  24
HETATM   24  O   UNK N   1      32.843  50.234  42.775  0.00  0.00    -0.354 OA
HETATM   25  C   UNK N   1      33.382  49.065  43.275  0.00  0.00     0.210 C 
ENDBRANCH   9  24
BRANCH  12  26
HETATM   26  O   UNK N   1      32.817  55.110  45.376  0.00  0.00    -0.355 OA
HETATM   27  C   UNK N   1      33.979  55.852  45.409  0.00  0.00     0.210 C 
ENDBRANCH  12  26
TORSDOF 6
ENDMDL
MODEL 2
REMARK VINA RESULT:      -6.2      1.693      4.418
REMARK  6 active torsions:
REMARK  status: ('A' for Active; 'I' for Inactive)
REMARK    1  A    between atoms: C_6  and  C_11 
REMARK    2  A    between atoms: C_7  and  C_8 
REMARK    3  A    between atoms: C_8  and  C_9 
REMARK    4  A    between atoms: C_13  and  O_14 
REMARK    5  A    between atoms: C_20  and  O_21 
REMARK    6  A    between atoms: C_25  and  O_26 
ROOT
HETATM    1  O   UNK N   1      31.231  50.948  41.200  0.00  0.00    -0.287 OA
HETATM    2  C   UNK N   1      31.199  51.977  41.847  0.00  0.00     0.195 A 
HETATM    3  C   UNK N   1      32.056  52.166  42.968  0.00  0.00     0.077 A 
HETATM    4  C   UNK N   1      32.001  53.386  43.677  0.00  0.00     0.083 A 
HETATM    5  N   UNK N   1      31.122  54.359  43.286  0.00  0.00    -0.352 N 
HETATM    6  C   UNK N   1      30.296  54.198  42.217  0.00  0.00     0.053 A 
HETATM    7  C   UNK N   1      30.313  53.004  41.463  0.00  0.00     0.021 A 
HETATM    8  H   UNK N   1      31.075  55.256  43.815  0.00  0.00     0.166 HD
HETATM    9  C   UNK N   1      32.845  53.614  44.790  0.00  0.00     0.096 A 
HETATM   10  C   UNK N   1      33.750  52.607  45.179  0.00  0.00     0.042 A 
HETATM   11  C   UNK N   1      33.804  51.403  44.492  0.00  0.00     0.040 A 
HETATM   12  C   UNK N   1      32.966  51.163  43.398  0.00  0.00     0.084 A 
ENDROOT
BRANCH   6  13
HETATM   13  C   UNK N   1      29.378  55.304  41.893  0.00  0.00    -0.006 A 
HETATM   14  C   UNK N   1      28.052  55.256  42.335  0.00  0.00     0.050 A 
HETATM   15  C   UNK N   1      27.182  56.313  42.052  0.00  0.00     0.069 A 
HETATM   16  C   UNK N   1      27.642  57.426  41.336  0.00  0.00     0.037 A 
HETATM   17  C   UNK N   1      28.967  57.471  40.892  0.00  0.00     0.004 A 
HETATM   18  C   UNK N   1      29.836  56.412  41.169  0.00  0.00     0.014 A 
BRANCH  15  19
HETATM   19  O   UNK N   1      25.900  56.255  42.466  0.00  0.00    -0.356 OA
HETATM   20  C   UNK N   1      25.415  57.172  43.370  0.00  0.00     0.210 C 
ENDBRANCH  15  19
ENDBRANCH   6  13
BRANCH   7  21
HETATM   21  C   UNK N   1      29.398  52.839  40.252  0.00  0.00     0.044 C 
BRANCH  21  22
HETATM   22  C   UNK N   1      30.067  53.294  38.945  0.00  0.00     0.000 C 
HETATM   23  C   UNK N   1      29.156  54.235  38.152  0.00  0.00     0.005 C 
ENDBRANCH  21  22
ENDBRANCH   7  21
BRANCH   9  24
HETATM   24  O   UNK N   1      32.770  54.795  45.460  0.00  0.00    -0.354 OA
HETATM   25  C   UNK N   1      33.741  55.776  45.454  0.00  0.00     0.210 C 
ENDBRANCH   9  24
BRANCH  12  26
HETATM   26  O   UNK N   1      33.028  49.968  42.781  0.00  0.00    -0.355 OA
HETATM   27  C   UNK N   1      33.652  48.899  43.388  0.00  0.00     0.210 C 
ENDBRANCH  12  26
TORSDOF 6
ENDMDL
MODEL 3
REMARK VINA RESULT:      -6.1      1.699      4.746
REMARK  6 active torsions:
REMARK  status: ('A' for Active; 'I' for Inactive)
REMARK    1  A    between atoms: C_6  and  C_11 
REMARK    2  A    between atoms: C_7  and  C_8 
REMARK    3  A    between atoms: C_8  and  C_9 
REMARK    4  A    between atoms: C_13  and  O_14 
REMARK    5  A    between atoms: C_20  and  O_21 
REMARK    6  A    between atoms: C_25  and  O_26 
ROOT
HETATM    1  O   UNK N   1      31.211  51.015  41.204  0.00  0.00    -0.287 OA
HETATM    2  C   UNK N   1      31.197  52.064  41.818  0.00  0.00     0.195 A 
HETATM    3  C   UNK N   1      32.043  52.266  42.945  0.00  0.00     0.077 A 
HETATM    4  C   UNK N   1      32.010  53.509  43.616  0.00  0.00     0.083 A 
HETATM    5  N   UNK N   1      31.161  54.491  43.183  0.00  0.00    -0.352 N 
HETATM    6  C   UNK N   1      30.346  54.317  42.109  0.00  0.00     0.053 A 
HETATM    7  C   UNK N   1      30.342  53.101  41.391  0.00  0.00     0.021 A 
HETATM    8  H   UNK N   1      31.129  55.404  43.685  0.00  0.00     0.166 HD
HETATM    9  C   UNK N   1      32.844  53.750  44.734  0.00  0.00     0.096 A 
HETATM   10  C   UNK N   1      33.718  52.733  45.166  0.00  0.00     0.042 A 
HETATM   11  C   UNK N   1      33.751  51.508  44.516  0.00  0.00     0.040 A 
HETATM   12  C   UNK N   1      32.922  51.255  43.419  0.00  0.00     0.084 A 
ENDROOT
BRANCH   6  13
HETATM   13  C   UNK N   1      29.460  55.434  41.738  0.00  0.00    -0.006 A 
HETATM   14  C   UNK N   1      29.960  56.489  40.967  0.00  0.00     0.050 A 
HETATM   15  C   UNK N   1      29.118  57.540  40.590  0.00  0.00     0.069 A 
HETATM   16  C   UNK N   1      27.770  57.530  40.973  0.00  0.00     0.037 A 
HETATM   17  C   UNK N   1      27.272  56.476  41.746  0.00  0.00     0.004 A 
HETATM   18  C   UNK N   1      28.115  55.428  42.129  0.00  0.00     0.014 A 
BRANCH  15  19
HETATM   19  O   UNK N   1      29.608  58.563  39.862  0.00  0.00    -0.356 OA
HETATM   20  C   UNK N   1      29.257  58.712  38.539  0.00  0.00     0.210 C 
ENDBRANCH  15  19
ENDBRANCH   6  13
BRANCH   7  21
HETATM   21  C   UNK N   1      29.440  52.921  40.173  0.00  0.00     0.044 C 
BRANCH  21  22
HETATM   22  C   UNK N   1      30.119  53.371  38.869  0.00  0.00     0.000 C 
HETATM   23  C   UNK N   1      29.203  54.289  38.053  0.00  0.00     0.005 C 
ENDBRANCH  21  22
ENDBRANCH   7  21
BRANCH   9  24
HETATM   24  O   UNK N   1      32.789  54.952  45.367  0.00  0.00    -0.354 OA
HETATM   25  C   UNK N   1      33.802  55.891  45.380  0.00  0.00     0.210 C 
ENDBRANCH   9  24
BRANCH  12  26
HETATM   26  O   UNK N   1      32.962  50.040  42.839  0.00  0.00    -0.355 OA
HETATM   27  C   UNK N   1      33.583  48.983  43.472  0.00  0.00     0.210 C 
ENDBRANCH  12  26
TORSDOF 6
ENDMDL
MODEL 4
REMARK VINA RESULT:      -5.5      2.266      5.963
REMARK  6 active torsions:
REMARK  status: ('A' for Active; 'I' for Inactive)
REMARK    1  A    between atoms: C_6  and  C_11 
REMARK    2  A    between atoms: C_7  and  C_8 
REMARK    3  A    between atoms: C_8  and  C_9 
REMARK    4  A    between atoms: C_13  and  O_14 
REMARK    5  A    between atoms: C_20  and  O_21 
REMARK    6  A    between atoms: C_25  and  O_26 
ROOT
HETATM    1  O   UNK N   1      30.349  56.165  42.519  0.00  0.00    -0.287 OA
HETATM    2  C   UNK N   1      30.382  55.287  41.679  0.00  0.00     0.195 A 
HETATM    3  C   UNK N   1      30.078  55.564  40.317  0.00  0.00     0.077 A 
HETATM    4  C   UNK N   1      30.149  54.518  39.370  0.00  0.00     0.083 A 
HETATM    5  N   UNK N   1      30.496  53.258  39.775  0.00  0.00    -0.352 N 
HETATM    6  C   UNK N   1      30.791  52.974  41.072  0.00  0.00     0.053 A 
HETATM    7  C   UNK N   1      30.747  53.980  42.062  0.00  0.00     0.021 A 
HETATM    8  H   UNK N   1      30.539  52.484  39.079  0.00  0.00     0.166 HD
HETATM    9  C   UNK N   1      29.864  54.758  38.004  0.00  0.00     0.096 A 
HETATM   10  C   UNK N   1      29.514  56.061  37.598  0.00  0.00     0.042 A 
HETATM   11  C   UNK N   1      29.435  57.091  38.523  0.00  0.00     0.040 A 
HETATM   12  C   UNK N   1      29.702  56.862  39.877  0.00  0.00     0.084 A 
ENDROOT
BRANCH   6  13
HETATM   13  C   UNK N   1      31.137  51.581  41.403  0.00  0.00    -0.006 A 
HETATM   14  C   UNK N   1      32.183  51.319  42.293  0.00  0.00     0.050 A 
HETATM   15  C   UNK N   1      32.500  50.000  42.632  0.00  0.00     0.069 A 
HETATM   16  C   UNK N   1      31.762  48.941  42.088  0.00  0.00     0.037 A 
HETATM   17  C   UNK N   1      30.718  49.203  41.196  0.00  0.00     0.004 A 
HETATM   18  C   UNK N   1      30.404  50.522  40.852  0.00  0.00     0.014 A 
BRANCH  15  19
HETATM   19  O   UNK N   1      33.521  49.752  43.477  0.00  0.00    -0.356 OA
HETATM   20  C   UNK N   1      34.631  50.568  43.492  0.00  0.00     0.210 C 
ENDBRANCH  15  19
ENDBRANCH   6  13
BRANCH   7  21
HETATM   21  C   UNK N   1      31.099  53.658  43.512  0.00  0.00     0.044 C 
BRANCH  21  22
HETATM   22  C   UNK N   1      32.269  54.508  44.034  0.00  0.00     0.000 C 
HETATM   23  C   UNK N   1      33.189  53.690  44.945  0.00  0.00     0.005 C 
ENDBRANCH  21  22
ENDBRANCH   7  21
BRANCH   9  24
HETATM   24  O   UNK N   1      29.934  53.734  37.113  0.00  0.00    -0.354 OA
HETATM   25  C   UNK N   1      28.849  53.129  36.508  0.00  0.00     0.210 C 
ENDBRANCH   9  24
BRANCH  12  26
HETATM   26  O   UNK N   1      29.580  57.884  40.746  0.00  0.00    -0.355 OA
HETATM   27  C   UNK N   1      28.368  58.519  40.913  0.00  0.00     0.210 C 
ENDBRANCH  12  26
TORSDOF 6
ENDMDL
MODEL 5
REMARK VINA RESULT:      -5.3      1.648      3.886
REMARK  6 active torsions:
REMARK  status: ('A' for Active; 'I' for Inactive)
REMARK    1  A    between atoms: C_6  and  C_11 
REMARK    2  A    between atoms: C_7  and  C_8 
REMARK    3  A    between atoms: C_8  and  C_9 
REMARK    4  A    between atoms: C_13  and  O_14 
REMARK    5  A    between atoms: C_20  and  O_21 
REMARK    6  A    between atoms: C_25  and  O_26 
ROOT
HETATM    1  O   UNK N   1      32.456  50.405  42.748  0.00  0.00    -0.287 OA
HETATM    2  C   UNK N   1      31.871  51.413  42.402  0.00  0.00     0.195 A 
HETATM    3  C   UNK N   1      31.910  52.593  43.196  0.00  0.00     0.077 A 
HETATM    4  C   UNK N   1      31.233  53.749  42.744  0.00  0.00     0.083 A 
HETATM    5  N   UNK N   1      30.544  53.712  41.563  0.00  0.00    -0.352 N 
HETATM    6  C   UNK N   1      30.494  52.594  40.790  0.00  0.00     0.053 A 
HETATM    7  C   UNK N   1      31.160  51.412  41.184  0.00  0.00     0.021 A 
HETATM    8  H   UNK N   1      30.036  54.561  41.235  0.00  0.00     0.166 HD
HETATM    9  C   UNK N   1      31.259  54.944  43.501  0.00  0.00     0.096 A 
HETATM   10  C   UNK N   1      31.978  54.970  44.712  0.00  0.00     0.042 A 
HETATM   11  C   UNK N   1      32.639  53.838  45.165  0.00  0.00     0.040 A 
HETATM   12  C   UNK N   1      32.609  52.648  44.431  0.00  0.00     0.084 A 
ENDROOT
BRANCH   6  13
HETATM   13  C   UNK N   1      29.710  52.660  39.545  0.00  0.00    -0.006 A 
HETATM   14  C   UNK N   1      28.513  51.943  39.441  0.00  0.00     0.050 A 
HETATM   15  C   UNK N   1      27.751  52.021  38.272  0.00  0.00     0.069 A 
HETATM   16  C   UNK N   1      28.179  52.826  37.209  0.00  0.00     0.037 A 
HETATM   17  C   UNK N   1      29.378  53.540  37.312  0.00  0.00     0.004 A 
HETATM   18  C   UNK N   1      30.144  53.457  38.479  0.00  0.00     0.014 A 
BRANCH  15  19
HETATM   19  O   UNK N   1      26.607  51.316  38.170  0.00  0.00    -0.356 OA
HETATM   20  C   UNK N   1      25.943  50.892  39.300  0.00  0.00     0.210 C 
ENDBRANCH  15  19
ENDBRANCH   6  13
BRANCH   7  21
HETATM   21  C   UNK N   1      31.118  50.167  40.301  0.00  0.00     0.044 C 
BRANCH  21  22
HETATM   22  C   UNK N   1      30.304  49.027  40.934  0.00  0.00     0.000 C 
HETATM   23  C   UNK N   1      30.753  47.662  40.404  0.00  0.00     0.005 C 
ENDBRANCH  21  22
ENDBRANCH   7  21
BRANCH   9  24
HETATM   24  O   UNK N   1      30.595  56.041  43.049  0.00  0.00    -0.354 OA
HETATM   25  C   UNK N   1      29.265  56.070  42.679  0.00  0.00     0.210 C 
ENDBRANCH   9  24
BRANCH  12  26
HETATM   26  O   UNK N   1      33.236  51.563  44.925  0.00  0.00    -0.355 OA
HETATM   27  C   UNK N   1      34.532  51.655  45.388  0.00  0.00     0.210 C 
ENDBRANCH  12  26
TORSDOF 6
ENDMDL
MODEL 6
REMARK VINA RESULT:      -4.8     15.996     18.484
REMARK  6 active torsions:
REMARK  status: ('A' for Active; 'I' for Inactive)
REMARK    1  A    between atoms: C_6  and  C_11 
REMARK    2  A    between atoms: C_7  and  C_8 
REMARK    3  A    between atoms: C_8  and  C_9 
REMARK    4  A    between atoms: C_13  and  O_14 
REMARK    5  A    between atoms: C_20  and  O_21 
REMARK    6  A    between atoms: C_25  and  O_26 
ROOT
HETATM    1  O   UNK N   1      28.857  39.435  58.188  0.00  0.00    -0.287 OA
HETATM    2  C   UNK N   1      29.264  40.429  57.618  0.00  0.00     0.195 A 
HETATM    3  C   UNK N   1      30.221  41.286  58.231  0.00  0.00     0.077 A 
HETATM    4  C   UNK N   1      30.683  42.418  57.523  0.00  0.00     0.083 A 
HETATM    5  N   UNK N   1      30.198  42.679  56.271  0.00  0.00    -0.352 N 
HETATM    6  C   UNK N   1      29.284  41.872  55.668  0.00  0.00     0.053 A 
HETATM    7  C   UNK N   1      28.793  40.720  56.321  0.00  0.00     0.021 A 
HETATM    8  H   UNK N   1      30.531  43.520  55.752  0.00  0.00     0.166 HD
HETATM    9  C   UNK N   1      31.641  43.288  58.096  0.00  0.00     0.096 A 
HETATM   10  C   UNK N   1      32.137  43.004  59.384  0.00  0.00     0.042 A 
HETATM   11  C   UNK N   1      31.683  41.899  60.087  0.00  0.00     0.040 A 
HETATM   12  C   UNK N   1      30.727  41.040  59.536  0.00  0.00     0.084 A 
ENDROOT
BRANCH   6  13
HETATM   13  C   UNK N   1      28.818  42.254  54.324  0.00  0.00    -0.006 A 
HETATM   14  C   UNK N   1      27.641  42.997  54.184  0.00  0.00     0.050 A 
HETATM   15  C   UNK N   1      27.206  43.385  52.913  0.00  0.00     0.069 A 
HETATM   16  C   UNK N   1      27.955  43.041  51.781  0.00  0.00     0.037 A 
HETATM   17  C   UNK N   1      29.130  42.296  51.922  0.00  0.00     0.004 A 
HETATM   18  C   UNK N   1      29.562  41.902  53.192  0.00  0.00     0.014 A 
BRANCH  15  19
HETATM   19  O   UNK N   1      26.062  44.086  52.782  0.00  0.00    -0.356 OA
HETATM   20  C   UNK N   1      24.867  43.564  53.227  0.00  0.00     0.210 C 
ENDBRANCH  15  19
ENDBRANCH   6  13
BRANCH   7  21
HETATM   21  C   UNK N   1      27.784  39.807  55.630  0.00  0.00     0.044 C 
BRANCH  21  22
HETATM   22  C   UNK N   1      28.462  38.726  54.774  0.00  0.00     0.000 C 
HETATM   23  C   UNK N   1      27.755  38.559  53.425  0.00  0.00     0.005 C 
ENDBRANCH  21  22
ENDBRANCH   7  21
BRANCH   9  24
HETATM   24  O   UNK N   1      32.066  44.374  57.397  0.00  0.00    -0.354 OA
HETATM   25  C   UNK N   1      31.470  45.619  57.423  0.00  0.00     0.210 C 
ENDBRANCH   9  24
BRANCH  12  26
HETATM   26  O   UNK N   1      30.289  39.998  60.267  0.00  0.00    -0.355 OA
HETATM   27  C   UNK N   1      31.169  39.030  60.703  0.00  0.00     0.210 C 
ENDBRANCH  12  26
TORSDOF 6
ENDMDL
MODEL 7
REMARK VINA RESULT:      -4.7     15.489     18.187
REMARK  6 active torsions:
REMARK  status: ('A' for Active; 'I' for Inactive)
REMARK    1  A    between atoms: C_6  and  C_11 
REMARK    2  A    between atoms: C_7  and  C_8 
REMARK    3  A    between atoms: C_8  and  C_9 
REMARK    4  A    between atoms: C_13  and  O_14 
REMARK    5  A    between atoms: C_20  and  O_21 
REMARK    6  A    between atoms: C_25  and  O_26 
ROOT
HETATM    1  O   UNK N   1      28.889  48.077  61.385  0.00  0.00    -0.287 OA
HETATM    2  C   UNK N   1      29.221  47.955  60.222  0.00  0.00     0.195 A 
HETATM    3  C   UNK N   1      29.206  49.067  59.334  0.00  0.00     0.077 A 
HETATM    4  C   UNK N   1      29.621  48.885  57.996  0.00  0.00     0.083 A 
HETATM    5  N   UNK N   1      30.018  47.646  57.572  0.00  0.00    -0.352 N 
HETATM    6  C   UNK N   1      30.041  46.572  58.405  0.00  0.00     0.053 A 
HETATM    7  C   UNK N   1      29.647  46.694  59.756  0.00  0.00     0.021 A 
HETATM    8  H   UNK N   1      30.315  47.509  56.582  0.00  0.00     0.166 HD
HETATM    9  C   UNK N   1      29.630  49.970  57.087  0.00  0.00     0.096 A 
HETATM   10  C   UNK N   1      29.224  51.242  57.538  0.00  0.00     0.042 A 
HETATM   11  C   UNK N   1      28.809  51.427  58.848  0.00  0.00     0.040 A 
HETATM   12  C   UNK N   1      28.784  50.359  59.751  0.00  0.00     0.084 A 
ENDROOT
BRANCH   6  13
HETATM   13  C   UNK N   1      30.471  45.280  57.841  0.00  0.00    -0.006 A 
HETATM   14  C   UNK N   1      29.513  44.327  57.482  0.00  0.00     0.050 A 
HETATM   15  C   UNK N   1      29.913  43.110  56.922  0.00  0.00     0.069 A 
HETATM   16  C   UNK N   1      31.273  42.850  56.710  0.00  0.00     0.037 A 
HETATM   17  C   UNK N   1      32.230  43.803  57.072  0.00  0.00     0.004 A 
HETATM   18  C   UNK N   1      31.831  45.017  57.638  0.00  0.00     0.014 A 
BRANCH  15  19
HETATM   19  O   UNK N   1      28.987  42.187  56.593  0.00  0.00    -0.356 OA
HETATM   20  C   UNK N   1      28.352  42.237  55.372  0.00  0.00     0.210 C 
ENDBRANCH  15  19
ENDBRANCH   6  13
BRANCH   7  21
HETATM   21  C   UNK N   1      29.695  45.488  60.691  0.00  0.00     0.044 C 
BRANCH  21  22
HETATM   22  C   UNK N   1      31.035  45.376  61.434  0.00  0.00     0.000 C 
HETATM   23  C   UNK N   1      31.700  44.018  61.183  0.00  0.00     0.005 C 
ENDBRANCH  21  22
ENDBRANCH   7  21
BRANCH   9  24
HETATM   24  O   UNK N   1      30.028  49.768  55.803  0.00  0.00    -0.354 OA
HETATM   25  C   UNK N   1      30.115  50.748  54.834  0.00  0.00     0.210 C 
ENDBRANCH   9  24
BRANCH  12  26
HETATM   26  O   UNK N   1      28.341  50.575  61.004  0.00  0.00    -0.355 OA
HETATM   27  C   UNK N   1      28.104  51.859  61.450  0.00  0.00     0.210 C 
ENDBRANCH  12  26
TORSDOF 6
ENDMDL
MODEL 8
REMARK VINA RESULT:      -4.7     16.255     18.713
REMARK  6 active torsions:
REMARK  status: ('A' for Active; 'I' for Inactive)
REMARK    1  A    between atoms: C_6  and  C_11 
REMARK    2  A    between atoms: C_7  and  C_8 
REMARK    3  A    between atoms: C_8  and  C_9 
REMARK    4  A    between atoms: C_13  and  O_14 
REMARK    5  A    between atoms: C_20  and  O_21 
REMARK    6  A    between atoms: C_25  and  O_26 
ROOT
HETATM    1  O   UNK N   1      30.065  45.409  62.223  0.00  0.00    -0.287 OA
HETATM    2  C   UNK N   1      30.273  45.473  61.027  0.00  0.00     0.195 A 
HETATM    3  C   UNK N   1      31.093  44.511  60.372  0.00  0.00     0.077 A 
HETATM    4  C   UNK N   1      31.291  44.612  58.977  0.00  0.00     0.083 A 
HETATM    5  N   UNK N   1      30.705  45.634  58.281  0.00  0.00    -0.352 N 
HETATM    6  C   UNK N   1      29.918  46.562  58.888  0.00  0.00     0.053 A 
HETATM    7  C   UNK N   1      29.675  46.508  60.278  0.00  0.00     0.021 A 
HETATM    8  H   UNK N   1      30.859  45.714  57.253  0.00  0.00     0.166 HD
HETATM    9  C   UNK N   1      32.090  43.668  58.290  0.00  0.00     0.096 A 
HETATM   10  C   UNK N   1      32.682  42.616  59.017  0.00  0.00     0.042 A 
HETATM   11  C   UNK N   1      32.498  42.515  60.388  0.00  0.00     0.040 A 
HETATM   12  C   UNK N   1      31.720  43.450  61.078  0.00  0.00     0.084 A 
ENDROOT
BRANCH   6  13
HETATM   13  C   UNK N   1      29.350  47.630  58.046  0.00  0.00    -0.006 A 
HETATM   14  C   UNK N   1      30.200  48.556  57.433  0.00  0.00     0.050 A 
HETATM   15  C   UNK N   1      29.669  49.556  56.612  0.00  0.00     0.069 A 
HETATM   16  C   UNK N   1      28.287  49.623  56.395  0.00  0.00     0.037 A 
HETATM   17  C   UNK N   1      27.438  48.699  57.012  0.00  0.00     0.004 A 
HETATM   18  C   UNK N   1      27.967  47.702  57.838  0.00  0.00     0.014 A 
BRANCH  15  19
HETATM   19  O   UNK N   1      30.491  50.456  56.037  0.00  0.00    -0.356 OA
HETATM   20  C   UNK N   1      30.252  50.904  54.757  0.00  0.00     0.210 C 
ENDBRANCH  15  19
ENDBRANCH   6  13
BRANCH   7  21
HETATM   21  C   UNK N   1      28.774  47.541  60.949  0.00  0.00     0.044 C 
BRANCH  21  22
HETATM   22  C   UNK N   1      29.537  48.816  61.344  0.00  0.00     0.000 C 
HETATM   23  C   UNK N   1      28.841  50.070  60.807  0.00  0.00     0.005 C 
ENDBRANCH  21  22
ENDBRANCH   7  21
BRANCH   9  24
HETATM   24  O   UNK N   1      32.271  43.789  56.948  0.00  0.00    -0.354 OA
HETATM   25  C   UNK N   1      31.953  42.824  56.012  0.00  0.00     0.210 C 
ENDBRANCH   9  24
BRANCH  12  26
HETATM   26  O   UNK N   1      31.596  43.334  62.414  0.00  0.00    -0.355 OA
HETATM   27  C   UNK N   1      32.686  43.526  63.237  0.00  0.00     0.210 C 
ENDBRANCH  12  26
TORSDOF 6
ENDMDL
MODEL 9
REMARK VINA RESULT:      -4.6      2.283      6.783
REMARK  6 active torsions:
REMARK  status: ('A' for Active; 'I' for Inactive)
REMARK    1  A    between atoms: C_6  and  C_11 
REMARK    2  A    between atoms: C_7  and  C_8 
REMARK    3  A    between atoms: C_8  and  C_9 
REMARK    4  A    between atoms: C_13  and  O_14 
REMARK    5  A    between atoms: C_20  and  O_21 
REMARK    6  A    between atoms: C_25  and  O_26 
ROOT
HETATM    1  O   UNK N   1      29.150  55.563  38.121  0.00  0.00    -0.287 OA
HETATM    2  C   UNK N   1      29.002  54.513  38.716  0.00  0.00     0.195 A 
HETATM    3  C   UNK N   1      27.879  53.677  38.461  0.00  0.00     0.077 A 
HETATM    4  C   UNK N   1      27.758  52.455  39.159  0.00  0.00     0.083 A 
HETATM    5  N   UNK N   1      28.711  52.100  40.075  0.00  0.00    -0.352 N 
HETATM    6  C   UNK N   1      29.792  52.885  40.332  0.00  0.00     0.053 A 
HETATM    7  C   UNK N   1      29.972  54.113  39.658  0.00  0.00     0.021 A 
HETATM    8  H   UNK N   1      28.618  51.203  40.598  0.00  0.00     0.166 HD
HETATM    9  C   UNK N   1      26.661  51.593  38.924  0.00  0.00     0.096 A 
HETATM   10  C   UNK N   1      25.690  51.967  37.975  0.00  0.00     0.042 A 
HETATM   11  C   UNK N   1      25.798  53.168  37.290  0.00  0.00     0.040 A 
HETATM   12  C   UNK N   1      26.871  54.033  37.524  0.00  0.00     0.084 A 
ENDROOT
BRANCH   6  13
HETATM   13  C   UNK N   1      30.750  52.415  41.348  0.00  0.00    -0.006 A 
HETATM   14  C   UNK N   1      31.018  53.210  42.467  0.00  0.00     0.050 A 
HETATM   15  C   UNK N   1      31.907  52.758  43.448  0.00  0.00     0.069 A 
HETATM   16  C   UNK N   1      32.518  51.505  43.316  0.00  0.00     0.037 A 
HETATM   17  C   UNK N   1      32.251  50.713  42.195  0.00  0.00     0.004 A 
HETATM   18  C   UNK N   1      31.368  51.166  41.211  0.00  0.00     0.014 A 
BRANCH  15  19
HETATM   19  O   UNK N   1      32.175  53.535  44.517  0.00  0.00    -0.356 OA
HETATM   20  C   UNK N   1      31.169  54.235  45.144  0.00  0.00     0.210 C 
ENDBRANCH  15  19
ENDBRANCH   6  13
BRANCH   7  21
HETATM   21  C   UNK N   1      31.198  54.978  39.936  0.00  0.00     0.044 C 
BRANCH  21  22
HETATM   22  C   UNK N   1      30.823  56.395  40.400  0.00  0.00     0.000 C 
HETATM   23  C   UNK N   1      30.060  56.361  41.728  0.00  0.00     0.005 C 
ENDBRANCH  21  22
ENDBRANCH   7  21
BRANCH   9  24
HETATM   24  O   UNK N   1      26.564  50.425  39.613  0.00  0.00    -0.354 OA
HETATM   25  C   UNK N   1      25.751  50.212  40.709  0.00  0.00     0.210 C 
ENDBRANCH   9  24
BRANCH  12  26
HETATM   26  O   UNK N   1      26.919  55.206  36.863  0.00  0.00    -0.355 OA
HETATM   27  C   UNK N   1      25.832  56.055  36.865  0.00  0.00     0.210 C 
ENDBRANCH  12  26
TORSDOF 6
ENDMDL
