MODEL 1
REMARK VINA RESULT:      -7.3      0.000      0.000
REMARK  11 active torsions:
REMARK  status: ('A' for Active; 'I' for Inactive)
REMARK    1  A    between atoms: C_2  and  O_3 
REMARK    2  A    between atoms: C_2  and  C_20 
REMARK    3  A    between atoms: O_3  and  C_4 
REMARK    4  A    between atoms: C_5  and  O_6 
REMARK    5  A    between atoms: C_8  and  O_9 
REMARK    6  A    between atoms: C_12  and  O_13 
REMARK    7  A    between atoms: C_12  and  C_15 
REMARK    8  A    between atoms: C_15  and  O_17 
REMARK    9  A    between atoms: C_21  and  C_22 
REMARK   10  A    between atoms: C_24  and  O_25 
REMARK   11  A    between atoms: C_27  and  O_28 
ROOT
HETATM    1  C   UNK N   1      40.681  45.695  46.847  0.00  0.00     0.166 C 
HETATM    2  C   UNK N   1      39.227  45.984  47.276  0.00  0.00     0.176 C 
HETATM    3  C   UNK N   1      38.801  45.067  48.446  0.00  0.00     0.152 C 
HETATM    4  C   UNK N   1      39.768  45.256  49.632  0.00  0.00     0.083 C 
HETATM    5  C   UNK N   1      41.244  44.951  49.261  0.00  0.00     0.147 C 
HETATM    6  C   UNK N   1      41.632  45.846  48.050  0.00  0.00     0.084 C 
ENDROOT
BRANCH   1   7
HETATM    7  O   UNK N   1      41.058  46.614  45.880  0.00  0.00    -0.310 OA
BRANCH   7   8
HETATM    8  C   UNK N   1      41.363  47.920  46.104  0.00  0.00     0.283 C 
HETATM    9  O   UNK N   1      42.380  48.406  45.636  0.00  0.00    -0.260 OA
BRANCH   8  10
HETATM   10  C   UNK N   1      40.362  48.752  46.822  0.00  0.00     0.083 C 
HETATM   11  C   UNK N   1      39.401  49.522  46.264  0.00  0.00     0.017 C 
BRANCH  11  12
HETATM   12  C   UNK N   1      39.215  49.780  44.818  0.00  0.00    -0.033 A 
HETATM   13  C   UNK N   1      38.229  49.061  44.130  0.00  0.00     0.050 A 
HETATM   14  C   UNK N   1      38.025  49.260  42.763  0.00  0.00     0.099 A 
HETATM   15  C   UNK N   1      38.784  50.225  42.074  0.00  0.00     0.098 A 
HETATM   16  C   UNK N   1      39.750  50.972  42.768  0.00  0.00     0.040 A 
HETATM   17  C   UNK N   1      39.970  50.746  44.130  0.00  0.00     0.014 A 
BRANCH  14  18
HETATM   18  O   UNK N   1      37.101  48.513  42.121  0.00  0.00    -0.358 OA
HETATM   19  H   UNK N   1      36.151  48.640  42.251  0.00  0.00     0.218 HD
ENDBRANCH  14  18
BRANCH  15  20
HETATM   20  O   UNK N   1      38.581  50.432  40.757  0.00  0.00    -0.358 OA
HETATM   21  H   UNK N   1      39.065  49.934  40.082  0.00  0.00     0.218 HD
ENDBRANCH  15  20
ENDBRANCH  11  12
ENDBRANCH   8  10
ENDBRANCH   7   8
ENDBRANCH   1   7
BRANCH   2  22
HETATM   22  O   UNK N   1      38.369  45.808  46.178  0.00  0.00    -0.390 OA
HETATM   23  H   UNK N   1      38.081  44.859  46.187  0.00  0.00     0.210 HD
ENDBRANCH   2  22
BRANCH   3  24
HETATM   24  O   UNK N   1      38.779  43.719  48.046  0.00  0.00    -0.393 OA
HETATM   25  H   UNK N   1      39.722  43.430  47.940  0.00  0.00     0.210 HD
ENDBRANCH   3  24
BRANCH   5  26
HETATM   26  O   UNK N   1      42.045  45.302  50.364  0.00  0.00    -0.379 OA
HETATM   27  H   UNK N   1      41.659  44.871  51.171  0.00  0.00     0.211 HD
ENDBRANCH   5  26
BRANCH   5  28
HETATM   28  C   UNK N   1      41.428  43.460  49.002  0.00  0.00     0.176 C 
HETATM   29  O   UNK N   1      40.890  42.650  49.744  0.00  0.00    -0.648 OA
BRANCH  28  30
HETATM   30  O   UNK N   1      42.191  43.020  47.979  0.00  0.00    -0.774 OA
HETATM   31  H   UNK N   1      41.812  42.873  47.100  0.00  0.00     0.167 HD
ENDBRANCH  28  30
ENDBRANCH   5  28
TORSDOF 11
ENDMDL
MODEL 2
REMARK VINA RESULT:      -6.8      1.221      2.393
REMARK  11 active torsions:
REMARK  status: ('A' for Active; 'I' for Inactive)
REMARK    1  A    between atoms: C_2  and  O_3 
REMARK    2  A    between atoms: C_2  and  C_20 
REMARK    3  A    between atoms: O_3  and  C_4 
REMARK    4  A    between atoms: C_5  and  O_6 
REMARK    5  A    between atoms: C_8  and  O_9 
REMARK    6  A    between atoms: C_12  and  O_13 
REMARK    7  A    between atoms: C_12  and  C_15 
REMARK    8  A    between atoms: C_15  and  O_17 
REMARK    9  A    between atoms: C_21  and  C_22 
REMARK   10  A    between atoms: C_24  and  O_25 
REMARK   11  A    between atoms: C_27  and  O_28 
ROOT
HETATM    1  C   UNK N   1      41.442  46.100  48.167  0.00  0.00     0.166 C 
HETATM    2  C   UNK N   1      42.619  46.425  49.109  0.00  0.00     0.176 C 
HETATM    3  C   UNK N   1      42.524  45.608  50.419  0.00  0.00     0.152 C 
HETATM    4  C   UNK N   1      42.489  44.102  50.089  0.00  0.00     0.083 C 
HETATM    5  C   UNK N   1      41.305  43.715  49.163  0.00  0.00     0.147 C 
HETATM    6  C   UNK N   1      41.392  44.587  47.878  0.00  0.00     0.084 C 
ENDROOT
BRANCH   1   7
HETATM    7  O   UNK N   1      41.631  46.763  46.964  0.00  0.00    -0.310 OA
BRANCH   7   8
HETATM    8  C   UNK N   1      40.663  47.390  46.243  0.00  0.00     0.283 C 
HETATM    9  O   UNK N   1      40.407  47.028  45.107  0.00  0.00    -0.260 OA
BRANCH   8  10
HETATM   10  C   UNK N   1      39.856  48.433  46.929  0.00  0.00     0.083 C 
HETATM   11  C   UNK N   1      39.134  49.413  46.342  0.00  0.00     0.017 C 
BRANCH  11  12
HETATM   12  C   UNK N   1      39.084  49.715  44.893  0.00  0.00    -0.033 A 
HETATM   13  C   UNK N   1      38.115  49.076  44.108  0.00  0.00     0.050 A 
HETATM   14  C   UNK N   1      38.037  49.320  42.735  0.00  0.00     0.099 A 
HETATM   15  C   UNK N   1      38.908  50.250  42.137  0.00  0.00     0.098 A 
HETATM   16  C   UNK N   1      39.857  50.919  42.928  0.00  0.00     0.040 A 
HETATM   17  C   UNK N   1      39.950  50.648  44.296  0.00  0.00     0.014 A 
BRANCH  14  18
HETATM   18  O   UNK N   1      37.125  48.647  42.000  0.00  0.00    -0.358 OA
HETATM   19  H   UNK N   1      36.399  48.152  42.402  0.00  0.00     0.218 HD
ENDBRANCH  14  18
BRANCH  15  20
HETATM   20  O   UNK N   1      38.827  50.500  40.815  0.00  0.00    -0.358 OA
HETATM   21  H   UNK N   1      39.526  50.973  40.341  0.00  0.00     0.218 HD
ENDBRANCH  15  20
ENDBRANCH  11  12
ENDBRANCH   8  10
ENDBRANCH   7   8
ENDBRANCH   1   7
BRANCH   2  22
HETATM   22  O   UNK N   1      42.631  47.801  49.390  0.00  0.00    -0.390 OA
HETATM   23  H   UNK N   1      43.301  48.212  48.784  0.00  0.00     0.210 HD
ENDBRANCH   2  22
BRANCH   3  24
HETATM   24  O   UNK N   1      41.384  45.972  51.157  0.00  0.00    -0.393 OA
HETATM   25  H   UNK N   1      40.915  46.677  50.641  0.00  0.00     0.210 HD
ENDBRANCH   3  24
BRANCH   5  26
HETATM   26  O   UNK N   1      41.460  42.362  48.809  0.00  0.00    -0.379 OA
HETATM   27  H   UNK N   1      41.100  41.809  49.551  0.00  0.00     0.211 HD
ENDBRANCH   5  26
BRANCH   5  28
HETATM   28  C   UNK N   1      39.982  43.857  49.908  0.00  0.00     0.176 C 
HETATM   29  O   UNK N   1      39.915  43.525  51.083  0.00  0.00    -0.648 OA
BRANCH  28  30
HETATM   30  O   UNK N   1      38.878  44.324  49.285  0.00  0.00    -0.774 OA
HETATM   31  H   UNK N   1      38.159  44.734  49.786  0.00  0.00     0.167 HD
ENDBRANCH  28  30
ENDBRANCH   5  28
TORSDOF 11
ENDMDL
MODEL 3
REMARK VINA RESULT:      -6.8      1.135      1.911
REMARK  11 active torsions:
REMARK  status: ('A' for Active; 'I' for Inactive)
REMARK    1  A    between atoms: C_2  and  O_3 
REMARK    2  A    between atoms: C_2  and  C_20 
REMARK    3  A    between atoms: O_3  and  C_4 
REMARK    4  A    between atoms: C_5  and  O_6 
REMARK    5  A    between atoms: C_8  and  O_9 
REMARK    6  A    between atoms: C_12  and  O_13 
REMARK    7  A    between atoms: C_12  and  C_15 
REMARK    8  A    between atoms: C_15  and  O_17 
REMARK    9  A    between atoms: C_21  and  C_22 
REMARK   10  A    between atoms: C_24  and  O_25 
REMARK   11  A    between atoms: C_27  and  O_28 
ROOT
HETATM    1  C   UNK N   1      41.490  45.532  47.076  0.00  0.00     0.166 C 
HETATM    2  C   UNK N   1      41.342  44.115  46.484  0.00  0.00     0.176 C 
HETATM    3  C   UNK N   1      41.504  43.035  47.579  0.00  0.00     0.152 C 
HETATM    4  C   UNK N   1      40.468  43.270  48.697  0.00  0.00     0.083 C 
HETATM    5  C   UNK N   1      40.591  44.674  49.347  0.00  0.00     0.147 C 
HETATM    6  C   UNK N   1      40.478  45.740  48.219  0.00  0.00     0.084 C 
ENDROOT
BRANCH   1   7
HETATM    7  O   UNK N   1      41.221  46.465  46.087  0.00  0.00    -0.310 OA
BRANCH   7   8
HETATM    8  C   UNK N   1      41.380  47.810  46.201  0.00  0.00     0.283 C 
HETATM    9  O   UNK N   1      42.307  48.372  45.642  0.00  0.00    -0.260 OA
BRANCH   8  10
HETATM   10  C   UNK N   1      40.324  48.574  46.916  0.00  0.00     0.083 C 
HETATM   11  C   UNK N   1      39.353  49.330  46.357  0.00  0.00     0.017 C 
BRANCH  11  12
HETATM   12  C   UNK N   1      39.206  49.640  44.917  0.00  0.00    -0.033 A 
HETATM   13  C   UNK N   1      38.234  48.952  44.179  0.00  0.00     0.050 A 
HETATM   14  C   UNK N   1      38.066  49.201  42.814  0.00  0.00     0.099 A 
HETATM   15  C   UNK N   1      38.847  50.185  42.180  0.00  0.00     0.098 A 
HETATM   16  C   UNK N   1      39.799  50.901  42.925  0.00  0.00     0.040 A 
HETATM   17  C   UNK N   1      39.983  50.626  44.283  0.00  0.00     0.014 A 
BRANCH  14  18
HETATM   18  O   UNK N   1      37.155  48.483  42.123  0.00  0.00    -0.358 OA
HETATM   19  H   UNK N   1      36.330  48.869  41.797  0.00  0.00     0.218 HD
ENDBRANCH  14  18
BRANCH  15  20
HETATM   20  O   UNK N   1      38.679  50.440  40.867  0.00  0.00    -0.358 OA
HETATM   21  H   UNK N   1      37.836  50.760  40.513  0.00  0.00     0.218 HD
ENDBRANCH  15  20
ENDBRANCH  11  12
ENDBRANCH   8  10
ENDBRANCH   7   8
ENDBRANCH   1   7
BRANCH   2  22
HETATM   22  O   UNK N   1      42.292  43.928  45.467  0.00  0.00    -0.390 OA
HETATM   23  H   UNK N   1      42.591  42.983  45.522  0.00  0.00     0.210 HD
ENDBRANCH   2  22
BRANCH   3  24
HETATM   24  O   UNK N   1      42.806  43.050  48.111  0.00  0.00    -0.393 OA
HETATM   25  H   UNK N   1      42.726  42.869  49.083  0.00  0.00     0.210 HD
ENDBRANCH   3  24
BRANCH   5  26
HETATM   26  O   UNK N   1      39.511  44.833  50.235  0.00  0.00    -0.379 OA
HETATM   27  H   UNK N   1      39.373  45.806  50.379  0.00  0.00     0.211 HD
ENDBRANCH   5  26
BRANCH   5  28
HETATM   28  C   UNK N   1      41.881  44.774  50.153  0.00  0.00     0.176 C 
HETATM   29  O   UNK N   1      42.070  44.002  51.083  0.00  0.00    -0.648 OA
BRANCH  28  30
HETATM   30  O   UNK N   1      42.809  45.713  49.870  0.00  0.00    -0.774 OA
HETATM   31  H   UNK N   1      42.706  46.625  50.179  0.00  0.00     0.167 HD
ENDBRANCH  28  30
ENDBRANCH   5  28
TORSDOF 11
ENDMDL
MODEL 4
REMARK VINA RESULT:      -6.5      4.152      7.473
REMARK  11 active torsions:
REMARK  status: ('A' for Active; 'I' for Inactive)
REMARK    1  A    between atoms: C_2  and  O_3 
REMARK    2  A    between atoms: C_2  and  C_20 
REMARK    3  A    between atoms: O_3  and  C_4 
REMARK    4  A    between atoms: C_5  and  O_6 
REMARK    5  A    between atoms: C_8  and  O_9 
REMARK    6  A    between atoms: C_12  and  O_13 
REMARK    7  A    between atoms: C_12  and  C_15 
REMARK    8  A    between atoms: C_15  and  O_17 
REMARK    9  A    between atoms: C_21  and  C_22 
REMARK   10  A    between atoms: C_24  and  O_25 
REMARK   11  A    between atoms: C_27  and  O_28 
ROOT
HETATM    1  C   UNK N   1      42.162  44.314  46.749  0.00  0.00     0.166 C 
HETATM    2  C   UNK N   1      41.204  44.415  45.544  0.00  0.00     0.176 C 
HETATM    3  C   UNK N   1      41.712  43.563  44.357  0.00  0.00     0.152 C 
HETATM    4  C   UNK N   1      41.874  42.096  44.804  0.00  0.00     0.083 C 
HETATM    5  C   UNK N   1      42.851  41.934  45.999  0.00  0.00     0.147 C 
HETATM    6  C   UNK N   1      42.349  42.840  47.159  0.00  0.00     0.084 C 
ENDROOT
BRANCH   1   7
HETATM    7  O   UNK N   1      41.610  44.994  47.823  0.00  0.00    -0.310 OA
BRANCH   7   8
HETATM    8  C   UNK N   1      41.691  46.334  48.039  0.00  0.00     0.283 C 
HETATM    9  O   UNK N   1      40.902  47.095  47.504  0.00  0.00    -0.260 OA
BRANCH   8  10
HETATM   10  C   UNK N   1      42.681  46.815  49.038  0.00  0.00     0.083 C 
HETATM   11  C   UNK N   1      42.813  46.392  50.315  0.00  0.00     0.017 C 
BRANCH  11  12
HETATM   12  C   UNK N   1      41.928  45.433  51.016  0.00  0.00    -0.033 A 
HETATM   13  C   UNK N   1      42.183  45.148  52.363  0.00  0.00     0.050 A 
HETATM   14  C   UNK N   1      41.383  44.240  53.063  0.00  0.00     0.099 A 
HETATM   15  C   UNK N   1      40.282  43.639  52.425  0.00  0.00     0.098 A 
HETATM   16  C   UNK N   1      40.003  43.950  51.084  0.00  0.00     0.040 A 
HETATM   17  C   UNK N   1      40.825  44.835  50.380  0.00  0.00     0.014 A 
BRANCH  14  18
HETATM   18  O   UNK N   1      41.688  43.949  54.346  0.00  0.00    -0.358 OA
HETATM   19  H   UNK N   1      42.161  44.569  54.919  0.00  0.00     0.218 HD
ENDBRANCH  14  18
BRANCH  15  20
HETATM   20  O   UNK N   1      39.498  42.774  53.100  0.00  0.00    -0.358 OA
HETATM   21  H   UNK N   1      39.013  42.068  52.650  0.00  0.00     0.218 HD
ENDBRANCH  15  20
ENDBRANCH  11  12
ENDBRANCH   8  10
ENDBRANCH   7   8
ENDBRANCH   1   7
BRANCH   2  22
HETATM   22  O   UNK N   1      41.071  45.760  45.160  0.00  0.00    -0.390 OA
HETATM   23  H   UNK N   1      40.156  45.863  44.790  0.00  0.00     0.210 HD
ENDBRANCH   2  22
BRANCH   3  24
HETATM   24  O   UNK N   1      42.933  44.060  43.867  0.00  0.00    -0.393 OA
HETATM   25  H   UNK N   1      42.768  44.381  42.943  0.00  0.00     0.210 HD
ENDBRANCH   3  24
BRANCH   5  26
HETATM   26  O   UNK N   1      42.802  40.590  46.415  0.00  0.00    -0.379 OA
HETATM   27  H   UNK N   1      42.710  40.023  45.605  0.00  0.00     0.211 HD
ENDBRANCH   5  26
BRANCH   5  28
HETATM   28  C   UNK N   1      44.279  42.239  45.561  0.00  0.00     0.176 C 
HETATM   29  O   UNK N   1      44.518  42.420  44.376  0.00  0.00    -0.648 OA
BRANCH  28  30
HETATM   30  O   UNK N   1      45.287  42.293  46.459  0.00  0.00    -0.774 OA
HETATM   31  H   UNK N   1      45.225  42.854  47.245  0.00  0.00     0.167 HD
ENDBRANCH  28  30
ENDBRANCH   5  28
TORSDOF 11
ENDMDL
MODEL 5
REMARK VINA RESULT:      -6.4      2.309      3.544
REMARK  11 active torsions:
REMARK  status: ('A' for Active; 'I' for Inactive)
REMARK    1  A    between atoms: C_2  and  O_3 
REMARK    2  A    between atoms: C_2  and  C_20 
REMARK    3  A    between atoms: O_3  and  C_4 
REMARK    4  A    between atoms: C_5  and  O_6 
REMARK    5  A    between atoms: C_8  and  O_9 
REMARK    6  A    between atoms: C_12  and  O_13 
REMARK    7  A    between atoms: C_12  and  C_15 
REMARK    8  A    between atoms: C_15  and  O_17 
REMARK    9  A    between atoms: C_21  and  C_22 
REMARK   10  A    between atoms: C_24  and  O_25 
REMARK   11  A    between atoms: C_27  and  O_28 
ROOT
HETATM    1  C   UNK N   1      40.123  46.627  46.226  0.00  0.00     0.166 C 
HETATM    2  C   UNK N   1      40.648  45.310  45.617  0.00  0.00     0.176 C 
HETATM    3  C   UNK N   1      41.436  44.489  46.664  0.00  0.00     0.152 C 
HETATM    4  C   UNK N   1      40.536  44.206  47.885  0.00  0.00     0.083 C 
HETATM    5  C   UNK N   1      40.002  45.500  48.553  0.00  0.00     0.147 C 
HETATM    6  C   UNK N   1      39.261  46.333  47.469  0.00  0.00     0.084 C 
ENDROOT
BRANCH   1   7
HETATM    7  O   UNK N   1      39.327  47.271  45.291  0.00  0.00    -0.310 OA
BRANCH   7   8
HETATM    8  C   UNK N   1      39.273  48.613  45.086  0.00  0.00     0.283 C 
HETATM    9  O   UNK N   1      39.144  49.377  46.029  0.00  0.00    -0.260 OA
BRANCH   8  10
HETATM   10  C   UNK N   1      39.501  49.113  43.705  0.00  0.00     0.083 C 
HETATM   11  C   UNK N   1      38.555  49.439  42.796  0.00  0.00     0.017 C 
BRANCH  11  12
HETATM   12  C   UNK N   1      37.093  49.265  42.953  0.00  0.00    -0.033 A 
HETATM   13  C   UNK N   1      36.303  50.400  43.175  0.00  0.00     0.050 A 
HETATM   14  C   UNK N   1      34.921  50.285  43.342  0.00  0.00     0.099 A 
HETATM   15  C   UNK N   1      34.305  49.023  43.241  0.00  0.00     0.098 A 
HETATM   16  C   UNK N   1      35.091  47.888  42.984  0.00  0.00     0.040 A 
HETATM   17  C   UNK N   1      36.477  48.005  42.848  0.00  0.00     0.014 A 
BRANCH  14  18
HETATM   18  O   UNK N   1      34.197  51.394  43.606  0.00  0.00    -0.358 OA
HETATM   19  H   UNK N   1      34.075  52.100  42.956  0.00  0.00     0.218 HD
ENDBRANCH  14  18
BRANCH  15  20
HETATM   20  O   UNK N   1      32.970  48.908  43.387  0.00  0.00    -0.358 OA
HETATM   21  H   UNK N   1      32.365  49.006  42.637  0.00  0.00     0.218 HD
ENDBRANCH  15  20
ENDBRANCH  11  12
ENDBRANCH   8  10
ENDBRANCH   7   8
ENDBRANCH   1   7
BRANCH   2  22
HETATM   22  O   UNK N   1      41.459  45.595  44.507  0.00  0.00    -0.390 OA
HETATM   23  H   UNK N   1      42.250  46.089  44.848  0.00  0.00     0.210 HD
ENDBRANCH   2  22
BRANCH   3  24
HETATM   24  O   UNK N   1      42.600  45.169  47.065  0.00  0.00    -0.393 OA
HETATM   25  H   UNK N   1      42.318  45.884  47.693  0.00  0.00     0.210 HD
ENDBRANCH   3  24
BRANCH   5  26
HETATM   26  O   UNK N   1      39.081  45.122  49.548  0.00  0.00    -0.379 OA
HETATM   27  H   UNK N   1      39.194  45.738  50.319  0.00  0.00     0.211 HD
ENDBRANCH   5  26
BRANCH   5  28
HETATM   28  C   UNK N   1      41.141  46.256  49.230  0.00  0.00     0.176 C 
HETATM   29  O   UNK N   1      41.551  45.877  50.318  0.00  0.00    -0.648 OA
BRANCH  28  30
HETATM   30  O   UNK N   1      41.689  47.349  48.656  0.00  0.00    -0.774 OA
HETATM   31  H   UNK N   1      41.705  47.452  47.694  0.00  0.00     0.167 HD
ENDBRANCH  28  30
ENDBRANCH   5  28
TORSDOF 11
ENDMDL
MODEL 6
REMARK VINA RESULT:      -6.1      2.050      3.789
REMARK  11 active torsions:
REMARK  status: ('A' for Active; 'I' for Inactive)
REMARK    1  A    between atoms: C_2  and  O_3 
REMARK    2  A    between atoms: C_2  and  C_20 
REMARK    3  A    between atoms: O_3  and  C_4 
REMARK    4  A    between atoms: C_5  and  O_6 
REMARK    5  A    between atoms: C_8  and  O_9 
REMARK    6  A    between atoms: C_12  and  O_13 
REMARK    7  A    between atoms: C_12  and  C_15 
REMARK    8  A    between atoms: C_15  and  O_17 
REMARK    9  A    between atoms: C_21  and  C_22 
REMARK   10  A    between atoms: C_24  and  O_25 
REMARK   11  A    between atoms: C_27  and  O_28 
ROOT
HETATM    1  C   UNK N   1      40.684  47.676  46.267  0.00  0.00     0.166 C 
HETATM    2  C   UNK N   1      42.099  47.280  46.740  0.00  0.00     0.176 C 
HETATM    3  C   UNK N   1      42.051  46.033  47.653  0.00  0.00     0.152 C 
HETATM    4  C   UNK N   1      41.380  44.865  46.901  0.00  0.00     0.083 C 
HETATM    5  C   UNK N   1      39.941  45.202  46.426  0.00  0.00     0.147 C 
HETATM    6  C   UNK N   1      40.009  46.488  45.555  0.00  0.00     0.084 C 
ENDROOT
BRANCH   1   7
HETATM    7  O   UNK N   1      40.787  48.721  45.362  0.00  0.00    -0.310 OA
BRANCH   7   8
HETATM    8  C   UNK N   1      39.785  49.574  45.019  0.00  0.00     0.283 C 
HETATM    9  O   UNK N   1      38.919  49.866  45.826  0.00  0.00    -0.260 OA
BRANCH   8  10
HETATM   10  C   UNK N   1      39.858  50.225  43.685  0.00  0.00     0.083 C 
HETATM   11  C   UNK N   1      38.849  50.364  42.796  0.00  0.00     0.017 C 
BRANCH  11  12
HETATM   12  C   UNK N   1      37.486  49.801  42.924  0.00  0.00    -0.033 A 
HETATM   13  C   UNK N   1      36.427  50.669  43.218  0.00  0.00     0.050 A 
HETATM   14  C   UNK N   1      35.125  50.182  43.361  0.00  0.00     0.099 A 
HETATM   15  C   UNK N   1      34.862  48.813  43.163  0.00  0.00     0.098 A 
HETATM   16  C   UNK N   1      35.917  47.946  42.835  0.00  0.00     0.040 A 
HETATM   17  C   UNK N   1      37.222  48.434  42.723  0.00  0.00     0.014 A 
BRANCH  14  18
HETATM   18  O   UNK N   1      34.136  51.039  43.695  0.00  0.00    -0.358 OA
HETATM   19  H   UNK N   1      34.285  51.802  44.271  0.00  0.00     0.218 HD
ENDBRANCH  14  18
BRANCH  15  20
HETATM   20  O   UNK N   1      33.606  48.341  43.286  0.00  0.00    -0.358 OA
HETATM   21  H   UNK N   1      32.839  48.844  42.975  0.00  0.00     0.218 HD
ENDBRANCH  15  20
ENDBRANCH  11  12
ENDBRANCH   8  10
ENDBRANCH   7   8
ENDBRANCH   1   7
BRANCH   2  22
HETATM   22  O   UNK N   1      42.688  48.361  47.417  0.00  0.00    -0.390 OA
HETATM   23  H   UNK N   1      41.947  48.943  47.727  0.00  0.00     0.210 HD
ENDBRANCH   2  22
BRANCH   3  24
HETATM   24  O   UNK N   1      41.356  46.308  48.844  0.00  0.00    -0.393 OA
HETATM   25  H   UNK N   1      40.414  46.030  48.703  0.00  0.00     0.210 HD
ENDBRANCH   3  24
BRANCH   5  26
HETATM   26  O   UNK N   1      39.491  44.133  45.629  0.00  0.00    -0.379 OA
HETATM   27  H   UNK N   1      40.143  44.007  44.890  0.00  0.00     0.211 HD
ENDBRANCH   5  26
BRANCH   5  28
HETATM   28  C   UNK N   1      39.004  45.324  47.622  0.00  0.00     0.176 C 
HETATM   29  O   UNK N   1      38.356  46.350  47.776  0.00  0.00    -0.648 OA
BRANCH  28  30
HETATM   30  O   UNK N   1      38.893  44.325  48.525  0.00  0.00    -0.774 OA
HETATM   31  H   UNK N   1      38.652  43.429  48.250  0.00  0.00     0.167 HD
ENDBRANCH  28  30
ENDBRANCH   5  28
TORSDOF 11
ENDMDL
MODEL 7
REMARK VINA RESULT:      -6.0      8.668     13.310
REMARK  11 active torsions:
REMARK  status: ('A' for Active; 'I' for Inactive)
REMARK    1  A    between atoms: C_2  and  O_3 
REMARK    2  A    between atoms: C_2  and  C_20 
REMARK    3  A    between atoms: O_3  and  C_4 
REMARK    4  A    between atoms: C_5  and  O_6 
REMARK    5  A    between atoms: C_8  and  O_9 
REMARK    6  A    between atoms: C_12  and  O_13 
REMARK    7  A    between atoms: C_12  and  C_15 
REMARK    8  A    between atoms: C_15  and  O_17 
REMARK    9  A    between atoms: C_21  and  C_22 
REMARK   10  A    between atoms: C_24  and  O_25 
REMARK   11  A    between atoms: C_27  and  O_28 
ROOT
HETATM    1  C   UNK N   1      30.171  54.957  41.465  0.00  0.00     0.166 C 
HETATM    2  C   UNK N   1      29.844  55.936  40.318  0.00  0.00     0.176 C 
HETATM    3  C   UNK N   1      29.170  55.202  39.136  0.00  0.00     0.152 C 
HETATM    4  C   UNK N   1      27.892  54.491  39.628  0.00  0.00     0.083 C 
HETATM    5  C   UNK N   1      28.169  53.473  40.765  0.00  0.00     0.147 C 
HETATM    6  C   UNK N   1      28.894  54.223  41.919  0.00  0.00     0.084 C 
ENDROOT
BRANCH   1   7
HETATM    7  O   UNK N   1      30.663  55.675  42.544  0.00  0.00    -0.310 OA
BRANCH   7   8
HETATM    8  C   UNK N   1      31.564  55.220  43.455  0.00  0.00     0.283 C 
HETATM    9  O   UNK N   1      32.760  55.371  43.269  0.00  0.00    -0.260 OA
BRANCH   8  10
HETATM   10  C   UNK N   1      31.039  54.654  44.725  0.00  0.00     0.083 C 
HETATM   11  C   UNK N   1      31.413  53.495  45.310  0.00  0.00     0.017 C 
BRANCH  11  12
HETATM   12  C   UNK N   1      32.349  52.494  44.751  0.00  0.00    -0.033 A 
HETATM   13  C   UNK N   1      31.860  51.559  43.829  0.00  0.00     0.050 A 
HETATM   14  C   UNK N   1      32.702  50.587  43.284  0.00  0.00     0.099 A 
HETATM   15  C   UNK N   1      34.067  50.572  43.625  0.00  0.00     0.098 A 
HETATM   16  C   UNK N   1      34.569  51.529  44.522  0.00  0.00     0.040 A 
HETATM   17  C   UNK N   1      33.715  52.480  45.088  0.00  0.00     0.014 A 
BRANCH  14  18
HETATM   18  O   UNK N   1      32.185  49.670  42.438  0.00  0.00    -0.358 OA
HETATM   19  H   UNK N   1      32.741  49.082  41.909  0.00  0.00     0.218 HD
ENDBRANCH  14  18
BRANCH  15  20
HETATM   20  O   UNK N   1      34.888  49.645  43.090  0.00  0.00    -0.358 OA
HETATM   21  H   UNK N   1      34.634  49.126  42.313  0.00  0.00     0.218 HD
ENDBRANCH  15  20
ENDBRANCH  11  12
ENDBRANCH   8  10
ENDBRANCH   7   8
ENDBRANCH   1   7
BRANCH   2  22
HETATM   22  O   UNK N   1      31.022  56.572  39.892  0.00  0.00    -0.390 OA
HETATM   23  H   UNK N   1      30.983  56.615  38.902  0.00  0.00     0.210 HD
ENDBRANCH   2  22
BRANCH   3  24
HETATM   24  O   UNK N   1      30.051  54.272  38.553  0.00  0.00    -0.393 OA
HETATM   25  H   UNK N   1      30.576  53.867  39.290  0.00  0.00     0.210 HD
ENDBRANCH   3  24
BRANCH   5  26
HETATM   26  O   UNK N   1      26.927  53.004  41.234  0.00  0.00    -0.379 OA
HETATM   27  H   UNK N   1      26.998  52.885  42.218  0.00  0.00     0.211 HD
ENDBRANCH   5  26
BRANCH   5  28
HETATM   28  C   UNK N   1      28.950  52.278  40.229  0.00  0.00     0.176 C 
HETATM   29  O   UNK N   1      28.447  51.569  39.369  0.00  0.00    -0.648 OA
BRANCH  28  30
HETATM   30  O   UNK N   1      30.179  51.979  40.704  0.00  0.00    -0.774 OA
HETATM   31  H   UNK N   1      30.463  51.060  40.809  0.00  0.00     0.167 HD
ENDBRANCH  28  30
ENDBRANCH   5  28
TORSDOF 11
ENDMDL
MODEL 8
REMARK VINA RESULT:      -5.9      2.358      3.495
REMARK  11 active torsions:
REMARK  status: ('A' for Active; 'I' for Inactive)
REMARK    1  A    between atoms: C_2  and  O_3 
REMARK    2  A    between atoms: C_2  and  C_20 
REMARK    3  A    between atoms: O_3  and  C_4 
REMARK    4  A    between atoms: C_5  and  O_6 
REMARK    5  A    between atoms: C_8  and  O_9 
REMARK    6  A    between atoms: C_12  and  O_13 
REMARK    7  A    between atoms: C_12  and  C_15 
REMARK    8  A    between atoms: C_15  and  O_17 
REMARK    9  A    between atoms: C_21  and  C_22 
REMARK   10  A    between atoms: C_24  and  O_25 
REMARK   11  A    between atoms: C_27  and  O_28 
ROOT
HETATM    1  C   UNK N   1      39.490  47.319  46.223  0.00  0.00     0.166 C 
HETATM    2  C   UNK N   1      38.471  46.282  46.738  0.00  0.00     0.176 C 
HETATM    3  C   UNK N   1      39.116  44.882  46.859  0.00  0.00     0.152 C 
HETATM    4  C   UNK N   1      40.341  44.955  47.794  0.00  0.00     0.083 C 
HETATM    5  C   UNK N   1      41.412  45.966  47.306  0.00  0.00     0.147 C 
HETATM    6  C   UNK N   1      40.727  47.352  47.141  0.00  0.00     0.084 C 
ENDROOT
BRANCH   1   7
HETATM    7  O   UNK N   1      38.904  48.576  46.242  0.00  0.00    -0.310 OA
BRANCH   7   8
HETATM    8  C   UNK N   1      39.106  49.559  45.325  0.00  0.00     0.283 C 
HETATM    9  O   UNK N   1      39.126  50.729  45.668  0.00  0.00    -0.260 OA
BRANCH   8  10
HETATM   10  C   UNK N   1      39.423  49.151  43.931  0.00  0.00     0.083 C 
HETATM   11  C   UNK N   1      38.541  48.939  42.929  0.00  0.00     0.017 C 
BRANCH  11  12
HETATM   12  C   UNK N   1      37.064  48.969  43.042  0.00  0.00    -0.033 A 
HETATM   13  C   UNK N   1      36.429  50.206  43.203  0.00  0.00     0.050 A 
HETATM   14  C   UNK N   1      35.039  50.283  43.327  0.00  0.00     0.099 A 
HETATM   15  C   UNK N   1      34.262  49.113  43.243  0.00  0.00     0.098 A 
HETATM   16  C   UNK N   1      34.894  47.874  43.046  0.00  0.00     0.040 A 
HETATM   17  C   UNK N   1      36.287  47.800  42.954  0.00  0.00     0.014 A 
BRANCH  14  18
HETATM   18  O   UNK N   1      34.464  51.488  43.533  0.00  0.00    -0.358 OA
HETATM   19  H   UNK N   1      33.675  51.774  43.053  0.00  0.00     0.218 HD
ENDBRANCH  14  18
BRANCH  15  20
HETATM   20  O   UNK N   1      32.920  49.183  43.347  0.00  0.00    -0.358 OA
HETATM   21  H   UNK N   1      32.407  49.863  42.887  0.00  0.00     0.218 HD
ENDBRANCH  15  20
ENDBRANCH  11  12
ENDBRANCH   8  10
ENDBRANCH   7   8
ENDBRANCH   1   7
BRANCH   2  22
HETATM   22  O   UNK N   1      37.365  46.239  45.873  0.00  0.00    -0.390 OA
HETATM   23  H   UNK N   1      36.817  45.458  46.146  0.00  0.00     0.210 HD
ENDBRANCH   2  22
BRANCH   3  24
HETATM   24  O   UNK N   1      39.495  44.392  45.597  0.00  0.00    -0.393 OA
HETATM   25  H   UNK N   1      39.550  43.404  45.672  0.00  0.00     0.210 HD
ENDBRANCH   3  24
BRANCH   5  26
HETATM   26  O   UNK N   1      42.400  46.060  48.303  0.00  0.00    -0.379 OA
HETATM   27  H   UNK N   1      43.011  45.284  48.202  0.00  0.00     0.211 HD
ENDBRANCH   5  26
BRANCH   5  28
HETATM   28  C   UNK N   1      42.078  45.458  46.031  0.00  0.00     0.176 C 
HETATM   29  O   UNK N   1      42.031  46.140  45.017  0.00  0.00    -0.648 OA
BRANCH  28  30
HETATM   30  O   UNK N   1      42.699  44.260  45.999  0.00  0.00    -0.774 OA
HETATM   31  H   UNK N   1      42.535  43.632  45.281  0.00  0.00     0.167 HD
ENDBRANCH  28  30
ENDBRANCH   5  28
TORSDOF 11
ENDMDL
MODEL 9
REMARK VINA RESULT:      -5.9      9.087     13.692
REMARK  11 active torsions:
REMARK  status: ('A' for Active; 'I' for Inactive)
REMARK    1  A    between atoms: C_2  and  O_3 
REMARK    2  A    between atoms: C_2  and  C_20 
REMARK    3  A    between atoms: O_3  and  C_4 
REMARK    4  A    between atoms: C_5  and  O_6 
REMARK    5  A    between atoms: C_8  and  O_9 
REMARK    6  A    between atoms: C_12  and  O_13 
REMARK    7  A    between atoms: C_12  and  C_15 
REMARK    8  A    between atoms: C_15  and  O_17 
REMARK    9  A    between atoms: C_21  and  C_22 
REMARK   10  A    between atoms: C_24  and  O_25 
REMARK   11  A    between atoms: C_27  and  O_28 
ROOT
HETATM    1  C   UNK N   1      29.597  53.404  41.213  0.00  0.00     0.166 C 
HETATM    2  C   UNK N   1      29.780  52.333  40.118  0.00  0.00     0.176 C 
HETATM    3  C   UNK N   1      28.428  51.975  39.459  0.00  0.00     0.152 C 
HETATM    4  C   UNK N   1      27.783  53.249  38.874  0.00  0.00     0.083 C 
HETATM    5  C   UNK N   1      27.551  54.351  39.942  0.00  0.00     0.147 C 
HETATM    6  C   UNK N   1      28.914  54.655  40.626  0.00  0.00     0.084 C 
ENDROOT
BRANCH   1   7
HETATM    7  O   UNK N   1      30.843  53.777  41.692  0.00  0.00    -0.310 OA
BRANCH   7   8
HETATM    8  C   UNK N   1      31.084  54.778  42.580  0.00  0.00     0.283 C 
HETATM    9  O   UNK N   1      31.474  55.867  42.192  0.00  0.00    -0.260 OA
BRANCH   8  10
HETATM   10  C   UNK N   1      30.738  54.538  44.005  0.00  0.00     0.083 C 
HETATM   11  C   UNK N   1      31.284  53.614  44.826  0.00  0.00     0.017 C 
BRANCH  11  12
HETATM   12  C   UNK N   1      32.269  52.576  44.444  0.00  0.00    -0.033 A 
HETATM   13  C   UNK N   1      31.833  51.488  43.676  0.00  0.00     0.050 A 
HETATM   14  C   UNK N   1      32.723  50.478  43.302  0.00  0.00     0.099 A 
HETATM   15  C   UNK N   1      34.081  50.573  43.659  0.00  0.00     0.098 A 
HETATM   16  C   UNK N   1      34.528  51.680  44.399  0.00  0.00     0.040 A 
HETATM   17  C   UNK N   1      33.627  52.672  44.796  0.00  0.00     0.014 A 
BRANCH  14  18
HETATM   18  O   UNK N   1      32.258  49.418  42.606  0.00  0.00    -0.358 OA
HETATM   19  H   UNK N   1      31.748  48.709  43.021  0.00  0.00     0.218 HD
ENDBRANCH  14  18
BRANCH  15  20
HETATM   20  O   UNK N   1      34.947  49.608  43.287  0.00  0.00    -0.358 OA
HETATM   21  H   UNK N   1      34.697  48.673  43.280  0.00  0.00     0.218 HD
ENDBRANCH  15  20
ENDBRANCH  11  12
ENDBRANCH   8  10
ENDBRANCH   7   8
ENDBRANCH   1   7
BRANCH   2  22
HETATM   22  O   UNK N   1      30.372  51.187  40.675  0.00  0.00    -0.390 OA
HETATM   23  H   UNK N   1      29.848  50.959  41.487  0.00  0.00     0.210 HD
ENDBRANCH   2  22
BRANCH   3  24
HETATM   24  O   UNK N   1      27.560  51.372  40.386  0.00  0.00    -0.393 OA
HETATM   25  H   UNK N   1      26.646  51.417  40.003  0.00  0.00     0.210 HD
ENDBRANCH   3  24
BRANCH   5  26
HETATM   26  O   UNK N   1      27.107  55.509  39.275  0.00  0.00    -0.379 OA
HETATM   27  H   UNK N   1      26.974  55.278  38.318  0.00  0.00     0.211 HD
ENDBRANCH   5  26
BRANCH   5  28
HETATM   28  C   UNK N   1      26.460  53.923  40.917  0.00  0.00     0.176 C 
HETATM   29  O   UNK N   1      26.537  54.261  42.090  0.00  0.00    -0.648 OA
BRANCH  28  30
HETATM   30  O   UNK N   1      25.423  53.160  40.511  0.00  0.00    -0.774 OA
HETATM   31  H   UNK N   1      25.480  52.194  40.523  0.00  0.00     0.167 HD
ENDBRANCH  28  30
ENDBRANCH   5  28
TORSDOF 11
ENDMDL
