MODEL 1
REMARK VINA RESULT:      -5.7      0.000      0.000
REMARK  5 active torsions:
REMARK  status: ('A' for Active; 'I' for Inactive)
REMARK    1  A    between atoms: C_3  and  O_4 
REMARK    2  A    between atoms: C_6  and  C_20 
REMARK    3  A    between atoms: C_10  and  O_11 
REMARK    4  A    between atoms: C_15  and  O_18 
REMARK    5  A    between atoms: C_23  and  O_24 
ROOT
HETATM    1  O   UNK N   1      31.298  55.165  43.415  0.00  0.00    -0.284 OA
HETATM    2  C   UNK N   1      31.130  54.138  42.791  0.00  0.00     0.223 A 
HETATM    3  C   UNK N   1      30.211  54.133  41.717  0.00  0.00     0.154 A 
HETATM    4  C   UNK N   1      30.064  52.954  40.958  0.00  0.00     0.123 A 
HETATM    5  O   UNK N   1      30.712  51.859  41.330  0.00  0.00    -0.305 OA
HETATM    6  C   UNK N   1      31.567  51.802  42.345  0.00  0.00     0.102 A 
HETATM    7  C   UNK N   1      31.849  52.953  43.115  0.00  0.00     0.085 A 
HETATM    8  C   UNK N   1      32.817  52.850  44.171  0.00  0.00     0.091 A 
HETATM    9  C   UNK N   1      33.450  51.612  44.434  0.00  0.00     0.006 A 
HETATM   10  C   UNK N   1      34.451  51.568  45.573  0.00  0.00     0.054 C 
HETATM   11  C   UNK N   1      33.136  50.471  43.650  0.00  0.00     0.083 A 
HETATM   12  C   UNK N   1      32.192  50.576  42.615  0.00  0.00     0.007 A 
HETATM   13  C   UNK N   1      31.827  49.374  41.774  0.00  0.00     0.054 C 
ENDROOT
BRANCH   4  14
HETATM   14  C   UNK N   1      29.211  52.859  39.732  0.00  0.00     0.001 A 
HETATM   15  C   UNK N   1      29.585  53.436  38.497  0.00  0.00     0.017 A 
HETATM   16  C   UNK N   1      28.785  53.272  37.365  0.00  0.00     0.037 A 
HETATM   17  C   UNK N   1      27.597  52.536  37.440  0.00  0.00     0.065 A 
HETATM   18  C   UNK N   1      27.216  51.960  38.654  0.00  0.00     0.037 A 
HETATM   19  C   UNK N   1      28.019  52.109  39.789  0.00  0.00     0.017 A 
BRANCH  17  20
HETATM   20  O   UNK N   1      26.822  52.368  36.350  0.00  0.00    -0.361 OA
HETATM   21  H   UNK N   1      25.983  51.886  36.392  0.00  0.00     0.217 HD
ENDBRANCH  17  20
ENDBRANCH   4  14
BRANCH   3  22
HETATM   22  O   UNK N   1      29.454  55.222  41.414  0.00  0.00    -0.350 OA
HETATM   23  C   UNK N   1      28.203  55.514  41.929  0.00  0.00     0.210 C 
ENDBRANCH   3  22
BRANCH   8  24
HETATM   24  O   UNK N   1      33.179  53.900  44.953  0.00  0.00    -0.359 OA
HETATM   25  H   UNK N   1      32.985  54.830  44.815  0.00  0.00     0.218 HD
ENDBRANCH   8  24
BRANCH  11  26
HETATM   26  O   UNK N   1      33.725  49.268  43.855  0.00  0.00    -0.359 OA
HETATM   27  H   UNK N   1      33.298  48.409  43.775  0.00  0.00     0.217 HD
ENDBRANCH  11  26
TORSDOF 5
ENDMDL
MODEL 2
REMARK VINA RESULT:      -5.3      2.056      7.400
REMARK  5 active torsions:
REMARK  status: ('A' for Active; 'I' for Inactive)
REMARK    1  A    between atoms: C_3  and  O_4 
REMARK    2  A    between atoms: C_6  and  C_20 
REMARK    3  A    between atoms: C_10  and  O_11 
REMARK    4  A    between atoms: C_15  and  O_18 
REMARK    5  A    between atoms: C_23  and  O_24 
ROOT
HETATM    1  O   UNK N   1      29.686  51.641  39.598  0.00  0.00    -0.284 OA
HETATM    2  C   UNK N   1      29.472  52.492  40.437  0.00  0.00     0.223 A 
HETATM    3  C   UNK N   1      30.481  52.792  41.380  0.00  0.00     0.154 A 
HETATM    4  C   UNK N   1      30.249  53.821  42.314  0.00  0.00     0.123 A 
HETATM    5  O   UNK N   1      29.062  54.410  42.349  0.00  0.00    -0.305 OA
HETATM    6  C   UNK N   1      28.071  54.149  41.504  0.00  0.00     0.102 A 
HETATM    7  C   UNK N   1      28.234  53.194  40.475  0.00  0.00     0.085 A 
HETATM    8  C   UNK N   1      27.150  52.983  39.557  0.00  0.00     0.091 A 
HETATM    9  C   UNK N   1      25.945  53.711  39.706  0.00  0.00     0.006 A 
HETATM   10  C   UNK N   1      24.833  53.430  38.713  0.00  0.00     0.054 C 
HETATM   11  C   UNK N   1      25.808  54.655  40.758  0.00  0.00     0.083 A 
HETATM   12  C   UNK N   1      26.872  54.861  41.651  0.00  0.00     0.007 A 
HETATM   13  C   UNK N   1      26.749  55.849  42.788  0.00  0.00     0.054 C 
ENDROOT
BRANCH   4  14
HETATM   14  C   UNK N   1      31.280  54.307  43.285  0.00  0.00     0.001 A 
HETATM   15  C   UNK N   1      32.440  55.004  42.879  0.00  0.00     0.017 A 
HETATM   16  C   UNK N   1      33.345  55.488  43.826  0.00  0.00     0.037 A 
HETATM   17  C   UNK N   1      33.116  55.285  45.192  0.00  0.00     0.065 A 
HETATM   18  C   UNK N   1      31.973  54.598  45.606  0.00  0.00     0.037 A 
HETATM   19  C   UNK N   1      31.056  54.122  44.664  0.00  0.00     0.017 A 
BRANCH  17  20
HETATM   20  O   UNK N   1      33.982  55.755  46.111  0.00  0.00    -0.361 OA
HETATM   21  H   UNK N   1      33.717  55.901  47.032  0.00  0.00     0.217 HD
ENDBRANCH  17  20
ENDBRANCH   4  14
BRANCH   3  22
HETATM   22  O   UNK N   1      31.653  52.101  41.423  0.00  0.00    -0.350 OA
HETATM   23  C   UNK N   1      31.872  50.909  42.091  0.00  0.00     0.210 C 
ENDBRANCH   3  22
BRANCH   8  24
HETATM   24  O   UNK N   1      27.212  52.109  38.520  0.00  0.00    -0.359 OA
HETATM   25  H   UNK N   1      26.630  51.366  38.342  0.00  0.00     0.218 HD
ENDBRANCH   8  24
BRANCH  11  26
HETATM   26  O   UNK N   1      24.679  55.384  40.932  0.00  0.00    -0.359 OA
HETATM   27  H   UNK N   1      24.074  55.663  40.237  0.00  0.00     0.217 HD
ENDBRANCH  11  26
TORSDOF 5
ENDMDL
MODEL 3
REMARK VINA RESULT:      -5.2     17.407     20.004
REMARK  5 active torsions:
REMARK  status: ('A' for Active; 'I' for Inactive)
REMARK    1  A    between atoms: C_3  and  O_4 
REMARK    2  A    between atoms: C_6  and  C_20 
REMARK    3  A    between atoms: C_10  and  O_11 
REMARK    4  A    between atoms: C_15  and  O_18 
REMARK    5  A    between atoms: C_23  and  O_24 
ROOT
HETATM    1  O   UNK N   1      52.678  58.550  41.952  0.00  0.00    -0.284 OA
HETATM    2  C   UNK N   1      51.771  57.755  42.101  0.00  0.00     0.223 A 
HETATM    3  C   UNK N   1      50.860  57.551  41.040  0.00  0.00     0.154 A 
HETATM    4  C   UNK N   1      49.847  56.585  41.196  0.00  0.00     0.123 A 
HETATM    5  O   UNK N   1      49.713  55.967  42.361  0.00  0.00    -0.305 OA
HETATM    6  C   UNK N   1      50.525  56.140  43.398  0.00  0.00     0.102 A 
HETATM    7  C   UNK N   1      51.625  57.024  43.313  0.00  0.00     0.085 A 
HETATM    8  C   UNK N   1      52.500  57.139  44.445  0.00  0.00     0.091 A 
HETATM    9  C   UNK N   1      52.243  56.391  45.619  0.00  0.00     0.006 A 
HETATM   10  C   UNK N   1      53.198  56.570  46.784  0.00  0.00     0.054 C 
HETATM   11  C   UNK N   1      51.122  55.521  45.677  0.00  0.00     0.083 A 
HETATM   12  C   UNK N   1      50.270  55.407  44.566  0.00  0.00     0.007 A 
HETATM   13  C   UNK N   1      49.062  54.500  44.606  0.00  0.00     0.054 C 
ENDROOT
BRANCH   4  14
HETATM   14  C   UNK N   1      48.896  56.198  40.106  0.00  0.00     0.001 A 
HETATM   15  C   UNK N   1      49.314  55.539  38.928  0.00  0.00     0.017 A 
HETATM   16  C   UNK N   1      48.382  55.146  37.965  0.00  0.00     0.037 A 
HETATM   17  C   UNK N   1      47.020  55.405  38.153  0.00  0.00     0.065 A 
HETATM   18  C   UNK N   1      46.594  56.056  39.312  0.00  0.00     0.037 A 
HETATM   19  C   UNK N   1      47.519  56.440  40.287  0.00  0.00     0.017 A 
BRANCH  17  20
HETATM   20  O   UNK N   1      46.114  55.023  37.230  0.00  0.00    -0.361 OA
HETATM   21  H   UNK N   1      45.424  55.626  36.916  0.00  0.00     0.217 HD
ENDBRANCH  17  20
ENDBRANCH   4  14
BRANCH   3  22
HETATM   22  O   UNK N   1      50.923  58.276  39.889  0.00  0.00    -0.350 OA
HETATM   23  C   UNK N   1      50.275  59.473  39.644  0.00  0.00     0.210 C 
ENDBRANCH   3  22
BRANCH   8  24
HETATM   24  O   UNK N   1      53.598  57.939  44.459  0.00  0.00    -0.359 OA
HETATM   25  H   UNK N   1      53.626  58.898  44.434  0.00  0.00     0.218 HD
ENDBRANCH   8  24
BRANCH  11  26
HETATM   26  O   UNK N   1      50.842  54.774  46.773  0.00  0.00    -0.359 OA
HETATM   27  H   UNK N   1      51.488  54.349  47.346  0.00  0.00     0.217 HD
ENDBRANCH  11  26
TORSDOF 5
ENDMDL
MODEL 4
REMARK VINA RESULT:      -5.1     17.256     20.171
REMARK  5 active torsions:
REMARK  status: ('A' for Active; 'I' for Inactive)
REMARK    1  A    between atoms: C_3  and  O_4 
REMARK    2  A    between atoms: C_6  and  C_20 
REMARK    3  A    between atoms: C_10  and  O_11 
REMARK    4  A    between atoms: C_15  and  O_18 
REMARK    5  A    between atoms: C_23  and  O_24 
ROOT
HETATM    1  O   UNK N   1      52.703  55.916  41.996  0.00  0.00    -0.284 OA
HETATM    2  C   UNK N   1      51.499  56.071  41.982  0.00  0.00     0.223 A 
HETATM    3  C   UNK N   1      50.853  56.517  43.157  0.00  0.00     0.154 A 
HETATM    4  C   UNK N   1      49.465  56.753  43.118  0.00  0.00     0.123 A 
HETATM    5  O   UNK N   1      48.788  56.457  42.017  0.00  0.00    -0.305 OA
HETATM    6  C   UNK N   1      49.340  56.012  40.894  0.00  0.00     0.102 A 
HETATM    7  C   UNK N   1      50.739  55.825  40.804  0.00  0.00     0.085 A 
HETATM    8  C   UNK N   1      51.292  55.387  39.553  0.00  0.00     0.091 A 
HETATM    9  C   UNK N   1      50.441  55.136  38.451  0.00  0.00     0.006 A 
HETATM   10  C   UNK N   1      51.088  54.662  37.163  0.00  0.00     0.054 C 
HETATM   11  C   UNK N   1      49.039  55.322  38.577  0.00  0.00     0.083 A 
HETATM   12  C   UNK N   1      48.501  55.754  39.801  0.00  0.00     0.007 A 
HETATM   13  C   UNK N   1      47.011  55.946  39.968  0.00  0.00     0.054 C 
ENDROOT
BRANCH   4  14
HETATM   14  C   UNK N   1      48.690  57.333  44.259  0.00  0.00     0.001 A 
HETATM   15  C   UNK N   1      48.541  58.726  44.450  0.00  0.00     0.017 A 
HETATM   16  C   UNK N   1      47.760  59.220  45.497  0.00  0.00     0.037 A 
HETATM   17  C   UNK N   1      47.117  58.341  46.375  0.00  0.00     0.065 A 
HETATM   18  C   UNK N   1      47.256  56.963  46.198  0.00  0.00     0.037 A 
HETATM   19  C   UNK N   1      48.025  56.460  45.144  0.00  0.00     0.017 A 
BRANCH  17  20
HETATM   20  O   UNK N   1      46.357  58.811  47.385  0.00  0.00    -0.361 OA
HETATM   21  H   UNK N   1      46.647  59.553  47.936  0.00  0.00     0.217 HD
ENDBRANCH  17  20
ENDBRANCH   4  14
BRANCH   3  22
HETATM   22  O   UNK N   1      51.530  56.702  44.324  0.00  0.00    -0.350 OA
HETATM   23  C   UNK N   1      52.239  57.834  44.684  0.00  0.00     0.210 C 
ENDBRANCH   3  22
BRANCH   8  24
HETATM   24  O   UNK N   1      52.622  55.201  39.353  0.00  0.00    -0.359 OA
HETATM   25  H   UNK N   1      53.229  55.767  38.870  0.00  0.00     0.218 HD
ENDBRANCH   8  24
BRANCH  11  26
HETATM   26  O   UNK N   1      48.185  55.107  37.547  0.00  0.00    -0.359 OA
HETATM   27  H   UNK N   1      47.431  55.659  37.314  0.00  0.00     0.217 HD
ENDBRANCH  11  26
TORSDOF 5
ENDMDL
MODEL 5
REMARK VINA RESULT:      -5.0     21.618     23.430
REMARK  5 active torsions:
REMARK  status: ('A' for Active; 'I' for Inactive)
REMARK    1  A    between atoms: C_3  and  O_4 
REMARK    2  A    between atoms: C_6  and  C_20 
REMARK    3  A    between atoms: C_10  and  O_11 
REMARK    4  A    between atoms: C_15  and  O_18 
REMARK    5  A    between atoms: C_23  and  O_24 
ROOT
HETATM    1  O   UNK N   1      31.300  45.992  63.529  0.00  0.00    -0.284 OA
HETATM    2  C   UNK N   1      32.149  45.293  63.013  0.00  0.00     0.223 A 
HETATM    3  C   UNK N   1      33.508  45.531  63.317  0.00  0.00     0.154 A 
HETATM    4  C   UNK N   1      34.484  44.679  62.762  0.00  0.00     0.123 A 
HETATM    5  O   UNK N   1      34.113  43.746  61.896  0.00  0.00    -0.305 OA
HETATM    6  C   UNK N   1      32.854  43.496  61.557  0.00  0.00     0.102 A 
HETATM    7  C   UNK N   1      31.794  44.239  62.125  0.00  0.00     0.085 A 
HETATM    8  C   UNK N   1      30.447  43.898  61.761  0.00  0.00     0.091 A 
HETATM    9  C   UNK N   1      30.205  42.852  60.839  0.00  0.00     0.006 A 
HETATM   10  C   UNK N   1      28.760  42.553  60.486  0.00  0.00     0.054 C 
HETATM   11  C   UNK N   1      31.293  42.133  60.276  0.00  0.00     0.083 A 
HETATM   12  C   UNK N   1      32.609  42.466  60.637  0.00  0.00     0.007 A 
HETATM   13  C   UNK N   1      33.786  41.727  60.043  0.00  0.00     0.054 C 
ENDROOT
BRANCH   4  14
HETATM   14  C   UNK N   1      35.940  44.758  63.097  0.00  0.00     0.001 A 
HETATM   15  C   UNK N   1      36.904  45.266  62.196  0.00  0.00     0.017 A 
HETATM   16  C   UNK N   1      38.243  45.374  62.575  0.00  0.00     0.037 A 
HETATM   17  C   UNK N   1      38.651  44.975  63.853  0.00  0.00     0.065 A 
HETATM   18  C   UNK N   1      37.710  44.472  64.752  0.00  0.00     0.037 A 
HETATM   19  C   UNK N   1      36.364  44.373  64.385  0.00  0.00     0.017 A 
BRANCH  17  20
HETATM   20  O   UNK N   1      39.942  45.082  64.227  0.00  0.00    -0.361 OA
HETATM   21  H   UNK N   1      40.289  45.893  64.628  0.00  0.00     0.217 HD
ENDBRANCH  17  20
ENDBRANCH   4  14
BRANCH   3  22
HETATM   22  O   UNK N   1      33.897  46.569  64.107  0.00  0.00    -0.350 OA
HETATM   23  C   UNK N   1      34.220  47.844  63.678  0.00  0.00     0.210 C 
ENDBRANCH   3  22
BRANCH   8  24
HETATM   24  O   UNK N   1      29.357  44.531  62.267  0.00  0.00    -0.359 OA
HETATM   25  H   UNK N   1      28.533  44.733  61.818  0.00  0.00     0.218 HD
ENDBRANCH   8  24
BRANCH  11  26
HETATM   26  O   UNK N   1      31.111  41.115  59.400  0.00  0.00    -0.359 OA
HETATM   27  H   UNK N   1      31.396  41.105  58.481  0.00  0.00     0.217 HD
ENDBRANCH  11  26
TORSDOF 5
ENDMDL
MODEL 6
REMARK VINA RESULT:      -4.9     16.438     19.167
REMARK  5 active torsions:
REMARK  status: ('A' for Active; 'I' for Inactive)
REMARK    1  A    between atoms: C_3  and  O_4 
REMARK    2  A    between atoms: C_6  and  C_20 
REMARK    3  A    between atoms: C_10  and  O_11 
REMARK    4  A    between atoms: C_15  and  O_18 
REMARK    5  A    between atoms: C_23  and  O_24 
ROOT
HETATM    1  O   UNK N   1      29.388  45.420  61.916  0.00  0.00    -0.284 OA
HETATM    2  C   UNK N   1      29.628  45.703  60.760  0.00  0.00     0.223 A 
HETATM    3  C   UNK N   1      29.968  44.668  59.860  0.00  0.00     0.154 A 
HETATM    4  C   UNK N   1      30.187  44.995  58.506  0.00  0.00     0.123 A 
HETATM    5  O   UNK N   1      30.166  46.267  58.134  0.00  0.00    -0.305 OA
HETATM    6  C   UNK N   1      29.877  47.279  58.943  0.00  0.00     0.102 A 
HETATM    7  C   UNK N   1      29.557  47.049  60.301  0.00  0.00     0.085 A 
HETATM    8  C   UNK N   1      29.205  48.173  61.123  0.00  0.00     0.091 A 
HETATM    9  C   UNK N   1      29.200  49.477  60.574  0.00  0.00     0.006 A 
HETATM   10  C   UNK N   1      28.833  50.622  61.500  0.00  0.00     0.054 C 
HETATM   11  C   UNK N   1      29.538  49.677  59.210  0.00  0.00     0.083 A 
HETATM   12  C   UNK N   1      29.878  48.575  58.408  0.00  0.00     0.007 A 
HETATM   13  C   UNK N   1      30.256  48.761  56.956  0.00  0.00     0.054 C 
ENDROOT
BRANCH   4  14
HETATM   14  C   UNK N   1      30.441  43.977  57.439  0.00  0.00     0.001 A 
HETATM   15  C   UNK N   1      29.402  43.241  56.825  0.00  0.00     0.017 A 
HETATM   16  C   UNK N   1      29.682  42.343  55.792  0.00  0.00     0.037 A 
HETATM   17  C   UNK N   1      30.998  42.156  55.355  0.00  0.00     0.065 A 
HETATM   18  C   UNK N   1      32.033  42.877  55.954  0.00  0.00     0.037 A 
HETATM   19  C   UNK N   1      31.760  43.788  56.978  0.00  0.00     0.017 A 
BRANCH  17  20
HETATM   20  O   UNK N   1      31.274  41.296  54.355  0.00  0.00    -0.361 OA
HETATM   21  H   UNK N   1      30.617  40.659  54.035  0.00  0.00     0.217 HD
ENDBRANCH  17  20
ENDBRANCH   4  14
BRANCH   3  22
HETATM   22  O   UNK N   1      30.112  43.378  60.268  0.00  0.00    -0.350 OA
HETATM   23  C   UNK N   1      31.280  42.794  60.727  0.00  0.00     0.210 C 
ENDBRANCH   3  22
BRANCH   8  24
HETATM   24  O   UNK N   1      28.857  48.058  62.431  0.00  0.00    -0.359 OA
HETATM   25  H   UNK N   1      29.284  47.529  63.108  0.00  0.00     0.218 HD
ENDBRANCH   8  24
BRANCH  11  26
HETATM   26  O   UNK N   1      29.535  50.906  58.636  0.00  0.00    -0.359 OA
HETATM   27  H   UNK N   1      28.997  51.176  57.885  0.00  0.00     0.217 HD
ENDBRANCH  11  26
TORSDOF 5
ENDMDL
MODEL 7
REMARK VINA RESULT:      -4.9     15.846     18.843
REMARK  5 active torsions:
REMARK  status: ('A' for Active; 'I' for Inactive)
REMARK    1  A    between atoms: C_3  and  O_4 
REMARK    2  A    between atoms: C_6  and  C_20 
REMARK    3  A    between atoms: C_10  and  O_11 
REMARK    4  A    between atoms: C_15  and  O_18 
REMARK    5  A    between atoms: C_23  and  O_24 
ROOT
HETATM    1  O   UNK N   1      29.488  39.168  58.197  0.00  0.00    -0.284 OA
HETATM    2  C   UNK N   1      29.595  40.281  57.723  0.00  0.00     0.223 A 
HETATM    3  C   UNK N   1      29.270  40.479  56.362  0.00  0.00     0.154 A 
HETATM    4  C   UNK N   1      29.340  41.784  55.834  0.00  0.00     0.123 A 
HETATM    5  O   UNK N   1      29.800  42.768  56.595  0.00  0.00    -0.305 OA
HETATM    6  C   UNK N   1      30.142  42.632  57.870  0.00  0.00     0.102 A 
HETATM    7  C   UNK N   1      30.027  41.380  58.518  0.00  0.00     0.085 A 
HETATM    8  C   UNK N   1      30.364  41.296  59.911  0.00  0.00     0.091 A 
HETATM    9  C   UNK N   1      30.818  42.446  60.601  0.00  0.00     0.006 A 
HETATM   10  C   UNK N   1      31.172  42.286  62.067  0.00  0.00     0.054 C 
HETATM   11  C   UNK N   1      30.935  43.686  59.919  0.00  0.00     0.083 A 
HETATM   12  C   UNK N   1      30.600  43.765  58.557  0.00  0.00     0.007 A 
HETATM   13  C   UNK N   1      30.729  45.069  57.802  0.00  0.00     0.054 C 
ENDROOT
BRANCH   4  14
HETATM   14  C   UNK N   1      28.913  42.139  54.444  0.00  0.00     0.001 A 
HETATM   15  C   UNK N   1      29.758  41.975  53.323  0.00  0.00     0.017 A 
HETATM   16  C   UNK N   1      29.296  42.266  52.037  0.00  0.00     0.037 A 
HETATM   17  C   UNK N   1      27.990  42.729  51.843  0.00  0.00     0.065 A 
HETATM   18  C   UNK N   1      27.146  42.894  52.942  0.00  0.00     0.037 A 
HETATM   19  C   UNK N   1      27.596  42.592  54.231  0.00  0.00     0.017 A 
BRANCH  17  20
HETATM   20  O   UNK N   1      27.536  43.005  50.604  0.00  0.00    -0.361 OA
HETATM   21  H   UNK N   1      26.896  42.431  50.157  0.00  0.00     0.217 HD
ENDBRANCH  17  20
ENDBRANCH   4  14
BRANCH   3  22
HETATM   22  O   UNK N   1      28.918  39.446  55.550  0.00  0.00    -0.350 OA
HETATM   23  C   UNK N   1      29.785  38.557  54.940  0.00  0.00     0.210 C 
ENDBRANCH   3  22
BRANCH   8  24
HETATM   24  O   UNK N   1      30.265  40.150  60.633  0.00  0.00    -0.359 OA
HETATM   25  H   UNK N   1      30.886  39.807  61.279  0.00  0.00     0.218 HD
ENDBRANCH   8  24
BRANCH  11  26
HETATM   26  O   UNK N   1      31.353  44.816  60.539  0.00  0.00    -0.359 OA
HETATM   27  H   UNK N   1      32.045  45.408  60.227  0.00  0.00     0.217 HD
ENDBRANCH  11  26
TORSDOF 5
ENDMDL
MODEL 8
REMARK VINA RESULT:      -4.7      9.329     12.745
REMARK  5 active torsions:
REMARK  status: ('A' for Active; 'I' for Inactive)
REMARK    1  A    between atoms: C_3  and  O_4 
REMARK    2  A    between atoms: C_6  and  C_20 
REMARK    3  A    between atoms: C_10  and  O_11 
REMARK    4  A    between atoms: C_15  and  O_18 
REMARK    5  A    between atoms: C_23  and  O_24 
ROOT
HETATM    1  O   UNK N   1      43.494  47.605  48.154  0.00  0.00    -0.284 OA
HETATM    2  C   UNK N   1      42.365  47.499  47.719  0.00  0.00     0.223 A 
HETATM    3  C   UNK N   1      41.941  48.376  46.695  0.00  0.00     0.154 A 
HETATM    4  C   UNK N   1      40.651  48.209  46.153  0.00  0.00     0.123 A 
HETATM    5  O   UNK N   1      39.837  47.305  46.681  0.00  0.00    -0.305 OA
HETATM    6  C   UNK N   1      40.175  46.474  47.659  0.00  0.00     0.102 A 
HETATM    7  C   UNK N   1      41.476  46.502  48.213  0.00  0.00     0.085 A 
HETATM    8  C   UNK N   1      41.807  45.550  49.236  0.00  0.00     0.091 A 
HETATM    9  C   UNK N   1      40.835  44.623  49.681  0.00  0.00     0.006 A 
HETATM   10  C   UNK N   1      41.244  43.654  50.775  0.00  0.00     0.054 C 
HETATM   11  C   UNK N   1      39.533  44.628  49.114  0.00  0.00     0.083 A 
HETATM   12  C   UNK N   1      39.214  45.558  48.111  0.00  0.00     0.007 A 
HETATM   13  C   UNK N   1      37.832  45.595  47.499  0.00  0.00     0.054 C 
ENDROOT
BRANCH   4  14
HETATM   14  C   UNK N   1      40.132  48.998  44.992  0.00  0.00     0.001 A 
HETATM   15  C   UNK N   1      40.705  50.224  44.586  0.00  0.00     0.017 A 
HETATM   16  C   UNK N   1      40.223  50.896  43.461  0.00  0.00     0.037 A 
HETATM   17  C   UNK N   1      39.160  50.365  42.722  0.00  0.00     0.065 A 
HETATM   18  C   UNK N   1      38.585  49.154  43.112  0.00  0.00     0.037 A 
HETATM   19  C   UNK N   1      39.071  48.469  44.229  0.00  0.00     0.017 A 
BRANCH  17  20
HETATM   20  O   UNK N   1      38.693  51.006  41.631  0.00  0.00    -0.361 OA
HETATM   21  H   UNK N   1      39.288  51.329  40.938  0.00  0.00     0.217 HD
ENDBRANCH  17  20
ENDBRANCH   4  14
BRANCH   3  22
HETATM   22  O   UNK N   1      42.733  49.384  46.239  0.00  0.00    -0.350 OA
HETATM   23  C   UNK N   1      44.113  49.355  46.139  0.00  0.00     0.210 C 
ENDBRANCH   3  22
BRANCH   8  24
HETATM   24  O   UNK N   1      43.033  45.476  49.815  0.00  0.00    -0.359 OA
HETATM   25  H   UNK N   1      43.244  45.207  50.712  0.00  0.00     0.218 HD
ENDBRANCH   8  24
BRANCH  11  26
HETATM   26  O   UNK N   1      38.574  43.751  49.498  0.00  0.00    -0.359 OA
HETATM   27  H   UNK N   1      38.222  43.031  48.966  0.00  0.00     0.217 HD
ENDBRANCH  11  26
TORSDOF 5
ENDMDL
MODEL 9
REMARK VINA RESULT:      -4.7      2.155      7.354
REMARK  5 active torsions:
REMARK  status: ('A' for Active; 'I' for Inactive)
REMARK    1  A    between atoms: C_3  and  O_4 
REMARK    2  A    between atoms: C_6  and  C_20 
REMARK    3  A    between atoms: C_10  and  O_11 
REMARK    4  A    between atoms: C_15  and  O_18 
REMARK    5  A    between atoms: C_23  and  O_24 
ROOT
HETATM    1  O   UNK N   1      31.269  50.835  41.775  0.00  0.00    -0.284 OA
HETATM    2  C   UNK N   1      31.182  52.028  41.985  0.00  0.00     0.223 A 
HETATM    3  C   UNK N   1      31.906  52.588  43.062  0.00  0.00     0.154 A 
HETATM    4  C   UNK N   1      31.847  53.981  43.264  0.00  0.00     0.123 A 
HETATM    5  O   UNK N   1      31.042  54.713  42.506  0.00  0.00    -0.305 OA
HETATM    6  C   UNK N   1      30.321  54.235  41.499  0.00  0.00     0.102 A 
HETATM    7  C   UNK N   1      30.377  52.863  41.160  0.00  0.00     0.085 A 
HETATM    8  C   UNK N   1      29.616  52.405  40.032  0.00  0.00     0.091 A 
HETATM    9  C   UNK N   1      28.818  53.315  39.298  0.00  0.00     0.006 A 
HETATM   10  C   UNK N   1      28.027  52.763  38.128  0.00  0.00     0.054 C 
HETATM   11  C   UNK N   1      28.773  54.684  39.672  0.00  0.00     0.083 A 
HETATM   12  C   UNK N   1      29.523  55.130  40.773  0.00  0.00     0.007 A 
HETATM   13  C   UNK N   1      29.483  56.579  41.202  0.00  0.00     0.054 C 
ENDROOT
BRANCH   4  14
HETATM   14  C   UNK N   1      32.657  54.704  44.295  0.00  0.00     0.001 A 
HETATM   15  C   UNK N   1      33.934  55.244  44.020  0.00  0.00     0.017 A 
HETATM   16  C   UNK N   1      34.627  55.961  44.998  0.00  0.00     0.037 A 
HETATM   17  C   UNK N   1      34.067  56.150  46.266  0.00  0.00     0.065 A 
HETATM   18  C   UNK N   1      32.806  55.622  46.550  0.00  0.00     0.037 A 
HETATM   19  C   UNK N   1      32.100  54.915  45.572  0.00  0.00     0.017 A 
BRANCH  17  20
HETATM   20  O   UNK N   1      34.728  56.845  47.213  0.00  0.00    -0.361 OA
HETATM   21  H   UNK N   1      34.306  57.093  48.050  0.00  0.00     0.217 HD
ENDBRANCH  17  20
ENDBRANCH   4  14
BRANCH   3  22
HETATM   22  O   UNK N   1      32.634  51.818  43.916  0.00  0.00    -0.350 OA
HETATM   23  C   UNK N   1      33.932  51.382  43.715  0.00  0.00     0.210 C 
ENDBRANCH   3  22
BRANCH   8  24
HETATM   24  O   UNK N   1      29.619  51.115  39.607  0.00  0.00    -0.359 OA
HETATM   25  H   UNK N   1      28.865  50.530  39.496  0.00  0.00     0.218 HD
ENDBRANCH   8  24
BRANCH  11  26
HETATM   26  O   UNK N   1      28.035  55.596  38.993  0.00  0.00    -0.359 OA
HETATM   27  H   UNK N   1      28.379  56.268  38.395  0.00  0.00     0.217 HD
ENDBRANCH  11  26
TORSDOF 5
ENDMDL
