MODEL 1
REMARK VINA RESULT:      -5.3      0.000      0.000
REMARK  8 active torsions:
REMARK  status: ('A' for Active; 'I' for Inactive)
REMARK    1  A    between atoms: C_2  and  O_3 
REMARK    2  A    between atoms: C_2  and  C_23 
REMARK    3  A    between atoms: O_3  and  C_4 
REMARK    4  A    between atoms: C_6  and  O_7 
REMARK    5  A    between atoms: C_6  and  C_9 
REMARK    6  A    between atoms: C_13  and  O_14 
REMARK    7  A    between atoms: C_25  and  O_26 
REMARK    8  A    between atoms: C_28  and  O_29 
ROOT
HETATM    1  C   UNK N   1      30.917  52.194  41.969  0.00  0.00     0.144 C 
HETATM    2  C   UNK N   1      31.563  53.492  42.522  0.00  0.00     0.061 C 
HETATM    3  C   UNK N   1      30.621  54.756  42.496  0.00  0.00     0.070 C 
HETATM    4  C   UNK N   1      31.292  55.648  43.551  0.00  0.00     0.071 C 
HETATM    5  C   UNK N   1      31.504  54.663  44.690  0.00  0.00     0.130 C 
HETATM    6  C   UNK N   1      32.122  53.415  43.998  0.00  0.00    -0.006 C 
HETATM    7  C   UNK N   1      31.679  52.148  44.779  0.00  0.00     0.039 C 
HETATM    8  C   UNK N   1      32.371  50.873  44.367  0.00  0.00    -0.023 C 
HETATM    9  C   UNK N   1      32.459  50.370  43.114  0.00  0.00    -0.085 C 
HETATM   10  C   UNK N   1      31.877  50.995  41.862  0.00  0.00     0.066 C 
HETATM   11  C   UNK N   1      33.213  49.077  42.907  0.00  0.00     0.043 C 
HETATM   12  C   UNK N   1      33.674  53.525  43.975  0.00  0.00     0.019 C 
ENDROOT
BRANCH   1  13
HETATM   13  O   UNK N   1      30.428  52.448  40.701  0.00  0.00    -0.311 OA
BRANCH  13  14
HETATM   14  C   UNK N   1      29.227  51.997  40.246  0.00  0.00     0.293 C 
HETATM   15  O   UNK N   1      28.974  50.800  40.247  0.00  0.00    -0.259 OA
BRANCH  14  16
HETATM   16  C   UNK N   1      28.214  52.965  39.780  0.00  0.00     0.042 A 
HETATM   17  C   UNK N   1      27.327  53.558  40.690  0.00  0.00     0.057 A 
HETATM   18  C   UNK N   1      26.361  54.469  40.248  0.00  0.00     0.102 A 
HETATM   19  C   UNK N   1      26.266  54.793  38.887  0.00  0.00     0.101 A 
HETATM   20  C   UNK N   1      27.162  54.201  37.974  0.00  0.00     0.040 A 
HETATM   21  C   UNK N   1      28.127  53.298  38.418  0.00  0.00     0.020 A 
BRANCH  18  22
HETATM   22  O   UNK N   1      25.516  55.033  41.138  0.00  0.00    -0.353 OA
HETATM   23  C   UNK N   1      25.883  56.142  41.868  0.00  0.00     0.210 C 
ENDBRANCH  18  22
BRANCH  19  24
HETATM   24  O   UNK N   1      25.311  55.676  38.491  0.00  0.00    -0.353 OA
HETATM   25  C   UNK N   1      25.563  56.919  37.948  0.00  0.00     0.210 C 
ENDBRANCH  19  24
ENDBRANCH  14  16
ENDBRANCH  13  14
ENDBRANCH   1  13
BRANCH   3  26
HETATM   26  O   UNK N   1      29.344  54.405  42.993  0.00  0.00    -0.389 OA
HETATM   27  H   UNK N   1      29.424  53.557  43.503  0.00  0.00     0.210 HD
ENDBRANCH   3  26
BRANCH   3  28
HETATM   28  C   UNK N   1      30.444  55.487  41.103  0.00  0.00     0.012 C 
HETATM   29  C   UNK N   1      29.642  56.793  41.250  0.00  0.00     0.012 C 
HETATM   30  C   UNK N   1      31.762  55.799  40.364  0.00  0.00     0.012 C 
ENDBRANCH   3  28
BRANCH   5  31
HETATM   31  O   UNK N   1      32.299  55.175  45.729  0.00  0.00    -0.395 OA
HETATM   32  H   UNK N   1      32.052  56.131  45.833  0.00  0.00     0.210 HD
ENDBRANCH   5  31
TORSDOF 8
ENDMDL
MODEL 2
REMARK VINA RESULT:      -5.2      1.906      7.115
REMARK  8 active torsions:
REMARK  status: ('A' for Active; 'I' for Inactive)
REMARK    1  A    between atoms: C_2  and  O_3 
REMARK    2  A    between atoms: C_2  and  C_23 
REMARK    3  A    between atoms: O_3  and  C_4 
REMARK    4  A    between atoms: C_6  and  O_7 
REMARK    5  A    between atoms: C_6  and  C_9 
REMARK    6  A    between atoms: C_13  and  O_14 
REMARK    7  A    between atoms: C_25  and  O_26 
REMARK    8  A    between atoms: C_28  and  O_29 
ROOT
HETATM    1  C   UNK N   1      28.025  53.110  40.185  0.00  0.00     0.144 C 
HETATM    2  C   UNK N   1      27.363  54.360  39.546  0.00  0.00     0.061 C 
HETATM    3  C   UNK N   1      28.381  55.432  38.996  0.00  0.00     0.070 C 
HETATM    4  C   UNK N   1      27.499  56.193  37.995  0.00  0.00     0.071 C 
HETATM    5  C   UNK N   1      26.845  55.049  37.236  0.00  0.00     0.130 C 
HETATM    6  C   UNK N   1      26.362  54.084  38.356  0.00  0.00    -0.006 C 
HETATM    7  C   UNK N   1      26.411  52.631  37.808  0.00  0.00     0.039 C 
HETATM    8  C   UNK N   1      25.767  51.595  38.695  0.00  0.00    -0.023 C 
HETATM    9  C   UNK N   1      26.033  51.373  40.003  0.00  0.00    -0.085 C 
HETATM   10  C   UNK N   1      27.039  52.132  40.848  0.00  0.00     0.066 C 
HETATM   11  C   UNK N   1      25.264  50.290  40.723  0.00  0.00     0.043 C 
HETATM   12  C   UNK N   1      24.915  54.449  38.796  0.00  0.00     0.019 C 
ENDROOT
BRANCH   1  13
HETATM   13  O   UNK N   1      28.911  53.529  41.160  0.00  0.00    -0.311 OA
BRANCH  13  14
HETATM   14  C   UNK N   1      30.192  53.077  41.265  0.00  0.00     0.293 C 
HETATM   15  O   UNK N   1      30.636  52.278  40.452  0.00  0.00    -0.259 OA
BRANCH  14  16
HETATM   16  C   UNK N   1      31.055  53.582  42.352  0.00  0.00     0.042 A 
HETATM   17  C   UNK N   1      31.827  52.695  43.115  0.00  0.00     0.057 A 
HETATM   18  C   UNK N   1      32.638  53.171  44.152  0.00  0.00     0.102 A 
HETATM   19  C   UNK N   1      32.682  54.543  44.440  0.00  0.00     0.101 A 
HETATM   20  C   UNK N   1      31.910  55.434  43.668  0.00  0.00     0.040 A 
HETATM   21  C   UNK N   1      31.107  54.957  42.633  0.00  0.00     0.020 A 
BRANCH  18  22
HETATM   22  O   UNK N   1      33.377  52.304  44.876  0.00  0.00    -0.353 OA
HETATM   23  C   UNK N   1      34.046  51.260  44.276  0.00  0.00     0.210 C 
ENDBRANCH  18  22
BRANCH  19  24
HETATM   24  O   UNK N   1      33.475  54.971  45.458  0.00  0.00    -0.353 OA
HETATM   25  C   UNK N   1      34.039  56.227  45.543  0.00  0.00     0.210 C 
ENDBRANCH  19  24
ENDBRANCH  14  16
ENDBRANCH  13  14
ENDBRANCH   1  13
BRANCH   3  26
HETATM   26  O   UNK N   1      29.396  54.783  38.253  0.00  0.00    -0.389 OA
HETATM   27  H   UNK N   1      29.942  55.473  37.794  0.00  0.00     0.210 HD
ENDBRANCH   3  26
BRANCH   3  28
HETATM   28  C   UNK N   1      29.059  56.387  40.062  0.00  0.00     0.012 C 
HETATM   29  C   UNK N   1      29.802  57.552  39.382  0.00  0.00     0.012 C 
HETATM   30  C   UNK N   1      28.094  56.966  41.117  0.00  0.00     0.012 C 
ENDBRANCH   3  28
BRANCH   5  31
HETATM   31  O   UNK N   1      25.814  55.467  36.378  0.00  0.00    -0.395 OA
HETATM   32  H   UNK N   1      24.971  55.420  36.900  0.00  0.00     0.210 HD
ENDBRANCH   5  31
TORSDOF 8
ENDMDL
MODEL 3
REMARK VINA RESULT:      -5.2      1.801      2.655
REMARK  8 active torsions:
REMARK  status: ('A' for Active; 'I' for Inactive)
REMARK    1  A    between atoms: C_2  and  O_3 
REMARK    2  A    between atoms: C_2  and  C_23 
REMARK    3  A    between atoms: O_3  and  C_4 
REMARK    4  A    between atoms: C_6  and  O_7 
REMARK    5  A    between atoms: C_6  and  C_9 
REMARK    6  A    between atoms: C_13  and  O_14 
REMARK    7  A    between atoms: C_25  and  O_26 
REMARK    8  A    between atoms: C_28  and  O_29 
ROOT
HETATM    1  C   UNK N   1      31.127  52.064  42.448  0.00  0.00     0.144 C 
HETATM    2  C   UNK N   1      32.502  52.315  43.125  0.00  0.00     0.061 C 
HETATM    3  C   UNK N   1      32.505  53.475  44.193  0.00  0.00     0.070 C 
HETATM    4  C   UNK N   1      33.745  53.112  45.022  0.00  0.00     0.071 C 
HETATM    5  C   UNK N   1      33.529  51.625  45.257  0.00  0.00     0.130 C 
HETATM    6  C   UNK N   1      33.155  51.074  43.852  0.00  0.00    -0.006 C 
HETATM    7  C   UNK N   1      32.194  49.868  44.036  0.00  0.00     0.039 C 
HETATM    8  C   UNK N   1      31.910  49.083  42.779  0.00  0.00    -0.023 C 
HETATM    9  C   UNK N   1      31.462  49.576  41.602  0.00  0.00    -0.085 C 
HETATM   10  C   UNK N   1      31.154  51.032  41.307  0.00  0.00     0.066 C 
HETATM   11  C   UNK N   1      31.253  48.620  40.451  0.00  0.00     0.043 C 
HETATM   12  C   UNK N   1      34.436  50.635  43.086  0.00  0.00     0.019 C 
ENDROOT
BRANCH   1  13
HETATM   13  O   UNK N   1      30.671  53.257  41.918  0.00  0.00    -0.311 OA
BRANCH  13  14
HETATM   14  C   UNK N   1      30.283  53.411  40.622  0.00  0.00     0.293 C 
HETATM   15  O   UNK N   1      31.108  53.655  39.752  0.00  0.00    -0.259 OA
BRANCH  14  16
HETATM   16  C   UNK N   1      28.858  53.250  40.265  0.00  0.00     0.042 A 
HETATM   17  C   UNK N   1      27.884  54.073  40.847  0.00  0.00     0.057 A 
HETATM   18  C   UNK N   1      26.533  53.915  40.518  0.00  0.00     0.102 A 
HETATM   19  C   UNK N   1      26.140  52.926  39.604  0.00  0.00     0.101 A 
HETATM   20  C   UNK N   1      27.122  52.104  39.014  0.00  0.00     0.040 A 
HETATM   21  C   UNK N   1      28.467  52.267  39.341  0.00  0.00     0.020 A 
BRANCH  18  22
HETATM   22  O   UNK N   1      25.607  54.717  41.086  0.00  0.00    -0.353 OA
HETATM   23  C   UNK N   1      25.950  55.943  41.613  0.00  0.00     0.210 C 
ENDBRANCH  18  22
BRANCH  19  24
HETATM   24  O   UNK N   1      24.819  52.796  39.311  0.00  0.00    -0.353 OA
HETATM   25  C   UNK N   1      24.229  53.197  38.130  0.00  0.00     0.210 C 
ENDBRANCH  19  24
ENDBRANCH  14  16
ENDBRANCH  13  14
ENDBRANCH   1  13
BRANCH   3  26
HETATM   26  O   UNK N   1      31.379  53.341  45.040  0.00  0.00    -0.389 OA
HETATM   27  H   UNK N   1      31.201  54.217  45.471  0.00  0.00     0.210 HD
ENDBRANCH   3  26
BRANCH   3  28
HETATM   28  C   UNK N   1      32.554  54.957  43.638  0.00  0.00     0.012 C 
HETATM   29  C   UNK N   1      31.162  55.616  43.668  0.00  0.00     0.012 C 
HETATM   30  C   UNK N   1      33.554  55.885  44.359  0.00  0.00     0.012 C 
ENDBRANCH   3  28
BRANCH   5  31
HETATM   31  O   UNK N   1      34.639  50.983  45.830  0.00  0.00    -0.395 OA
HETATM   32  H   UNK N   1      34.332  50.084  46.119  0.00  0.00     0.210 HD
ENDBRANCH   5  31
TORSDOF 8
ENDMDL
MODEL 4
REMARK VINA RESULT:      -5.0     16.520     20.011
REMARK  8 active torsions:
REMARK  status: ('A' for Active; 'I' for Inactive)
REMARK    1  A    between atoms: C_2  and  O_3 
REMARK    2  A    between atoms: C_2  and  C_23 
REMARK    3  A    between atoms: O_3  and  C_4 
REMARK    4  A    between atoms: C_6  and  O_7 
REMARK    5  A    between atoms: C_6  and  C_9 
REMARK    6  A    between atoms: C_13  and  O_14 
REMARK    7  A    between atoms: C_25  and  O_26 
REMARK    8  A    between atoms: C_28  and  O_29 
ROOT
HETATM    1  C   UNK N   1      30.830  44.702  60.011  0.00  0.00     0.144 C 
HETATM    2  C   UNK N   1      30.355  43.225  59.982  0.00  0.00     0.061 C 
HETATM    3  C   UNK N   1      30.232  42.604  58.538  0.00  0.00     0.070 C 
HETATM    4  C   UNK N   1      30.303  41.103  58.853  0.00  0.00     0.071 C 
HETATM    5  C   UNK N   1      31.494  41.047  59.797  0.00  0.00     0.130 C 
HETATM    6  C   UNK N   1      31.227  42.199  60.807  0.00  0.00    -0.006 C 
HETATM    7  C   UNK N   1      32.593  42.764  61.282  0.00  0.00     0.039 C 
HETATM    8  C   UNK N   1      32.513  43.740  62.430  0.00  0.00    -0.023 C 
HETATM    9  C   UNK N   1      31.751  44.857  62.490  0.00  0.00    -0.085 C 
HETATM   10  C   UNK N   1      30.815  45.353  61.405  0.00  0.00     0.066 C 
HETATM   11  C   UNK N   1      31.803  45.699  63.743  0.00  0.00     0.043 C 
HETATM   12  C   UNK N   1      30.405  41.673  62.019  0.00  0.00     0.019 C 
ENDROOT
BRANCH   1  13
HETATM   13  O   UNK N   1      30.001  45.450  59.195  0.00  0.00    -0.311 OA
BRANCH  13  14
HETATM   14  C   UNK N   1      30.451  46.338  58.266  0.00  0.00     0.293 C 
HETATM   15  O   UNK N   1      31.191  45.970  57.364  0.00  0.00    -0.259 OA
BRANCH  14  16
HETATM   16  C   UNK N   1      30.015  47.748  58.335  0.00  0.00     0.042 A 
HETATM   17  C   UNK N   1      30.017  48.548  57.183  0.00  0.00     0.057 A 
HETATM   18  C   UNK N   1      29.613  49.886  57.248  0.00  0.00     0.102 A 
HETATM   19  C   UNK N   1      29.207  50.442  58.470  0.00  0.00     0.101 A 
HETATM   20  C   UNK N   1      29.199  49.635  59.626  0.00  0.00     0.040 A 
HETATM   21  C   UNK N   1      29.598  48.300  59.556  0.00  0.00     0.020 A 
BRANCH  18  22
HETATM   22  O   UNK N   1      29.618  50.642  56.130  0.00  0.00    -0.353 OA
HETATM   23  C   UNK N   1      30.778  50.861  55.420  0.00  0.00     0.210 C 
ENDBRANCH  18  22
BRANCH  19  24
HETATM   24  O   UNK N   1      28.827  51.747  58.500  0.00  0.00    -0.353 OA
HETATM   25  C   UNK N   1      28.107  52.336  59.519  0.00  0.00     0.210 C 
ENDBRANCH  19  24
ENDBRANCH  14  16
ENDBRANCH  13  14
ENDBRANCH   1  13
BRANCH   3  26
HETATM   26  O   UNK N   1      31.384  42.929  57.783  0.00  0.00    -0.389 OA
HETATM   27  H   UNK N   1      31.858  43.675  58.234  0.00  0.00     0.210 HD
ENDBRANCH   3  26
BRANCH   3  28
HETATM   28  C   UNK N   1      28.945  42.991  57.700  0.00  0.00     0.012 C 
HETATM   29  C   UNK N   1      28.914  42.260  56.345  0.00  0.00     0.012 C 
HETATM   30  C   UNK N   1      27.605  42.746  58.423  0.00  0.00     0.012 C 
ENDBRANCH   3  28
BRANCH   5  31
HETATM   31  O   UNK N   1      31.661  39.795  60.411  0.00  0.00    -0.395 OA
HETATM   32  H   UNK N   1      31.387  39.903  61.359  0.00  0.00     0.210 HD
ENDBRANCH   5  31
TORSDOF 8
ENDMDL
MODEL 5
REMARK VINA RESULT:      -4.9     18.445     22.606
REMARK  8 active torsions:
REMARK  status: ('A' for Active; 'I' for Inactive)
REMARK    1  A    between atoms: C_2  and  O_3 
REMARK    2  A    between atoms: C_2  and  C_23 
REMARK    3  A    between atoms: O_3  and  C_4 
REMARK    4  A    between atoms: C_6  and  O_7 
REMARK    5  A    between atoms: C_6  and  C_9 
REMARK    6  A    between atoms: C_13  and  O_14 
REMARK    7  A    between atoms: C_25  and  O_26 
REMARK    8  A    between atoms: C_28  and  O_29 
ROOT
HETATM    1  C   UNK N   1      30.850  44.790  61.332  0.00  0.00     0.144 C 
HETATM    2  C   UNK N   1      31.230  44.396  59.879  0.00  0.00     0.061 C 
HETATM    3  C   UNK N   1      31.526  42.861  59.673  0.00  0.00     0.070 C 
HETATM    4  C   UNK N   1      31.313  42.719  58.158  0.00  0.00     0.071 C 
HETATM    5  C   UNK N   1      29.993  43.450  57.968  0.00  0.00     0.130 C 
HETATM    6  C   UNK N   1      30.181  44.775  58.761  0.00  0.00    -0.006 C 
HETATM    7  C   UNK N   1      28.798  45.219  59.311  0.00  0.00     0.039 C 
HETATM    8  C   UNK N   1      28.768  46.600  59.918  0.00  0.00    -0.023 C 
HETATM    9  C   UNK N   1      29.582  47.073  60.889  0.00  0.00    -0.085 C 
HETATM   10  C   UNK N   1      30.700  46.304  61.566  0.00  0.00     0.066 C 
HETATM   11  C   UNK N   1      29.399  48.500  61.353  0.00  0.00     0.043 C 
HETATM   12  C   UNK N   1      30.777  45.876  57.838  0.00  0.00     0.019 C 
ENDROOT
BRANCH   1  13
HETATM   13  O   UNK N   1      31.838  44.334  62.186  0.00  0.00    -0.311 OA
BRANCH  13  14
HETATM   14  C   UNK N   1      32.325  45.053  63.235  0.00  0.00     0.293 C 
HETATM   15  O   UNK N   1      31.627  45.266  64.217  0.00  0.00    -0.259 OA
BRANCH  14  16
HETATM   16  C   UNK N   1      33.715  45.549  63.194  0.00  0.00     0.042 A 
HETATM   17  C   UNK N   1      34.012  46.860  63.594  0.00  0.00     0.057 A 
HETATM   18  C   UNK N   1      35.328  47.335  63.547  0.00  0.00     0.102 A 
HETATM   19  C   UNK N   1      36.362  46.504  63.093  0.00  0.00     0.101 A 
HETATM   20  C   UNK N   1      36.063  45.184  62.699  0.00  0.00     0.040 A 
HETATM   21  C   UNK N   1      34.752  44.713  62.751  0.00  0.00     0.020 A 
BRANCH  18  22
HETATM   22  O   UNK N   1      35.598  48.599  63.937  0.00  0.00    -0.353 OA
HETATM   23  C   UNK N   1      34.964  49.677  63.358  0.00  0.00     0.210 C 
ENDBRANCH  18  22
BRANCH  19  24
HETATM   24  O   UNK N   1      37.629  46.999  63.054  0.00  0.00    -0.353 OA
HETATM   25  C   UNK N   1      38.154  47.740  62.016  0.00  0.00     0.210 C 
ENDBRANCH  19  24
ENDBRANCH  14  16
ENDBRANCH  13  14
ENDBRANCH   1  13
BRANCH   3  26
HETATM   26  O   UNK N   1      30.522  42.095  60.311  0.00  0.00    -0.389 OA
HETATM   27  H   UNK N   1      30.416  41.239  59.820  0.00  0.00     0.210 HD
ENDBRANCH   3  26
BRANCH   3  28
HETATM   28  C   UNK N   1      32.945  42.337  60.141  0.00  0.00     0.012 C 
HETATM   29  C   UNK N   1      33.017  40.799  60.106  0.00  0.00     0.012 C 
HETATM   30  C   UNK N   1      34.138  42.905  59.345  0.00  0.00     0.012 C 
ENDBRANCH   3  28
BRANCH   5  31
HETATM   31  O   UNK N   1      29.657  43.652  56.618  0.00  0.00    -0.395 OA
HETATM   32  H   UNK N   1      30.474  43.458  56.088  0.00  0.00     0.210 HD
ENDBRANCH   5  31
TORSDOF 8
ENDMDL
MODEL 6
REMARK VINA RESULT:      -4.9     15.865     19.656
REMARK  8 active torsions:
REMARK  status: ('A' for Active; 'I' for Inactive)
REMARK    1  A    between atoms: C_2  and  O_3 
REMARK    2  A    between atoms: C_2  and  C_23 
REMARK    3  A    between atoms: O_3  and  C_4 
REMARK    4  A    between atoms: C_6  and  O_7 
REMARK    5  A    between atoms: C_6  and  C_9 
REMARK    6  A    between atoms: C_13  and  O_14 
REMARK    7  A    between atoms: C_25  and  O_26 
REMARK    8  A    between atoms: C_28  and  O_29 
ROOT
HETATM    1  C   UNK N   1      28.928  40.201  54.296  0.00  0.00     0.144 C 
HETATM    2  C   UNK N   1      27.397  40.235  54.043  0.00  0.00     0.061 C 
HETATM    3  C   UNK N   1      26.957  41.103  52.802  0.00  0.00     0.070 C 
HETATM    4  C   UNK N   1      25.573  40.509  52.500  0.00  0.00     0.071 C 
HETATM    5  C   UNK N   1      25.868  39.018  52.540  0.00  0.00     0.130 C 
HETATM    6  C   UNK N   1      26.695  38.834  53.844  0.00  0.00    -0.006 C 
HETATM    7  C   UNK N   1      27.682  37.652  53.639  0.00  0.00     0.039 C 
HETATM    8  C   UNK N   1      28.404  37.203  54.885  0.00  0.00    -0.023 C 
HETATM    9  C   UNK N   1      29.123  37.980  55.727  0.00  0.00    -0.085 C 
HETATM   10  C   UNK N   1      29.347  39.473  55.586  0.00  0.00     0.066 C 
HETATM   11  C   UNK N   1      29.761  37.336  56.936  0.00  0.00     0.043 C 
HETATM   12  C   UNK N   1      25.749  38.549  55.047  0.00  0.00     0.019 C 
ENDROOT
BRANCH   1  13
HETATM   13  O   UNK N   1      29.390  41.501  54.385  0.00  0.00    -0.311 OA
BRANCH  13  14
HETATM   14  C   UNK N   1      30.619  41.838  54.865  0.00  0.00     0.293 C 
HETATM   15  O   UNK N   1      31.630  41.541  54.242  0.00  0.00    -0.259 OA
BRANCH  14  16
HETATM   16  C   UNK N   1      30.726  42.594  56.129  0.00  0.00     0.042 A 
HETATM   17  C   UNK N   1      31.979  42.830  56.711  0.00  0.00     0.057 A 
HETATM   18  C   UNK N   1      32.081  43.538  57.914  0.00  0.00     0.102 A 
HETATM   19  C   UNK N   1      30.927  44.014  58.552  0.00  0.00     0.101 A 
HETATM   20  C   UNK N   1      29.668  43.783  57.962  0.00  0.00     0.040 A 
HETATM   21  C   UNK N   1      29.570  43.081  56.761  0.00  0.00     0.020 A 
BRANCH  18  22
HETATM   22  O   UNK N   1      33.296  43.758  58.461  0.00  0.00    -0.353 OA
HETATM   23  C   UNK N   1      33.990  42.749  59.091  0.00  0.00     0.210 C 
ENDBRANCH  18  22
BRANCH  19  24
HETATM   24  O   UNK N   1      31.061  44.693  59.723  0.00  0.00    -0.353 OA
HETATM   25  C   UNK N   1      30.841  44.157  60.975  0.00  0.00     0.210 C 
ENDBRANCH  19  24
ENDBRANCH  14  16
ENDBRANCH  13  14
ENDBRANCH   1  13
BRANCH   3  26
HETATM   26  O   UNK N   1      27.791  40.808  51.698  0.00  0.00    -0.389 OA
HETATM   27  H   UNK N   1      28.240  39.938  51.864  0.00  0.00     0.210 HD
ENDBRANCH   3  26
BRANCH   3  28
HETATM   28  C   UNK N   1      26.915  42.672  53.007  0.00  0.00     0.012 C 
HETATM   29  C   UNK N   1      27.834  43.395  52.004  0.00  0.00     0.012 C 
HETATM   30  C   UNK N   1      25.508  43.298  52.926  0.00  0.00     0.012 C 
ENDBRANCH   3  28
BRANCH   5  31
HETATM   31  O   UNK N   1      24.713  38.219  52.495  0.00  0.00    -0.395 OA
HETATM   32  H   UNK N   1      24.020  38.747  52.018  0.00  0.00     0.210 HD
ENDBRANCH   5  31
TORSDOF 8
ENDMDL
MODEL 7
REMARK VINA RESULT:      -4.7     16.472     19.627
REMARK  8 active torsions:
REMARK  status: ('A' for Active; 'I' for Inactive)
REMARK    1  A    between atoms: C_2  and  O_3 
REMARK    2  A    between atoms: C_2  and  C_23 
REMARK    3  A    between atoms: O_3  and  C_4 
REMARK    4  A    between atoms: C_6  and  O_7 
REMARK    5  A    between atoms: C_6  and  C_9 
REMARK    6  A    between atoms: C_13  and  O_14 
REMARK    7  A    between atoms: C_25  and  O_26 
REMARK    8  A    between atoms: C_28  and  O_29 
ROOT
HETATM    1  C   UNK N   1      30.957  42.492  57.778  0.00  0.00     0.144 C 
HETATM    2  C   UNK N   1      29.838  42.951  58.752  0.00  0.00     0.061 C 
HETATM    3  C   UNK N   1      28.387  42.486  58.347  0.00  0.00     0.070 C 
HETATM    4  C   UNK N   1      27.656  42.588  59.695  0.00  0.00     0.071 C 
HETATM    5  C   UNK N   1      28.637  41.890  60.625  0.00  0.00     0.130 C 
HETATM    6  C   UNK N   1      30.011  42.520  60.261  0.00  0.00    -0.006 C 
HETATM    7  C   UNK N   1      31.118  41.455  60.495  0.00  0.00     0.039 C 
HETATM    8  C   UNK N   1      32.531  41.974  60.398  0.00  0.00    -0.023 C 
HETATM    9  C   UNK N   1      33.069  42.665  59.367  0.00  0.00    -0.085 C 
HETATM   10  C   UNK N   1      32.352  43.062  58.092  0.00  0.00     0.066 C 
HETATM   11  C   UNK N   1      34.509  43.111  59.471  0.00  0.00     0.043 C 
HETATM   12  C   UNK N   1      30.276  43.779  61.136  0.00  0.00     0.019 C 
ENDROOT
BRANCH   1  13
HETATM   13  O   UNK N   1      30.622  42.895  56.499  0.00  0.00    -0.311 OA
BRANCH  13  14
HETATM   14  C   UNK N   1      30.963  42.208  55.373  0.00  0.00     0.293 C 
HETATM   15  O   UNK N   1      32.116  42.221  54.965  0.00  0.00    -0.259 OA
BRANCH  14  16
HETATM   16  C   UNK N   1      29.936  41.418  54.664  0.00  0.00     0.042 A 
HETATM   17  C   UNK N   1      29.278  41.951  53.546  0.00  0.00     0.057 A 
HETATM   18  C   UNK N   1      28.298  41.207  52.879  0.00  0.00     0.102 A 
HETATM   19  C   UNK N   1      27.960  39.922  53.327  0.00  0.00     0.101 A 
HETATM   20  C   UNK N   1      28.627  39.385  54.447  0.00  0.00     0.040 A 
HETATM   21  C   UNK N   1      29.606  40.127  55.107  0.00  0.00     0.020 A 
BRANCH  18  22
HETATM   22  O   UNK N   1      27.676  41.733  51.802  0.00  0.00    -0.353 OA
HETATM   23  C   UNK N   1      26.854  42.833  51.919  0.00  0.00     0.210 C 
ENDBRANCH  18  22
BRANCH  19  24
HETATM   24  O   UNK N   1      26.998  39.230  52.660  0.00  0.00    -0.353 OA
HETATM   25  C   UNK N   1      25.691  39.093  53.078  0.00  0.00     0.210 C 
ENDBRANCH  19  24
ENDBRANCH  14  16
ENDBRANCH  13  14
ENDBRANCH   1  13
BRANCH   3  26
HETATM   26  O   UNK N   1      28.411  41.119  57.986  0.00  0.00    -0.389 OA
HETATM   27  H   UNK N   1      28.615  41.050  57.017  0.00  0.00     0.210 HD
ENDBRANCH   3  26
BRANCH   3  28
HETATM   28  C   UNK N   1      27.667  43.306  57.200  0.00  0.00     0.012 C 
HETATM   29  C   UNK N   1      26.766  42.400  56.340  0.00  0.00     0.012 C 
HETATM   30  C   UNK N   1      26.833  44.508  57.690  0.00  0.00     0.012 C 
ENDBRANCH   3  28
BRANCH   5  31
HETATM   31  O   UNK N   1      28.306  42.021  61.984  0.00  0.00    -0.395 OA
HETATM   32  H   UNK N   1      27.938  42.936  62.102  0.00  0.00     0.210 HD
ENDBRANCH   5  31
TORSDOF 8
ENDMDL
MODEL 8
REMARK VINA RESULT:      -4.7     16.503     20.184
REMARK  8 active torsions:
REMARK  status: ('A' for Active; 'I' for Inactive)
REMARK    1  A    between atoms: C_2  and  O_3 
REMARK    2  A    between atoms: C_2  and  C_23 
REMARK    3  A    between atoms: O_3  and  C_4 
REMARK    4  A    between atoms: C_6  and  O_7 
REMARK    5  A    between atoms: C_6  and  C_9 
REMARK    6  A    between atoms: C_13  and  O_14 
REMARK    7  A    between atoms: C_25  and  O_26 
REMARK    8  A    between atoms: C_28  and  O_29 
ROOT
HETATM    1  C   UNK N   1      30.191  42.660  57.468  0.00  0.00     0.144 C 
HETATM    2  C   UNK N   1      29.916  41.369  58.284  0.00  0.00     0.061 C 
HETATM    3  C   UNK N   1      29.665  41.608  59.823  0.00  0.00     0.070 C 
HETATM    4  C   UNK N   1      28.912  40.324  60.204  0.00  0.00     0.071 C 
HETATM    5  C   UNK N   1      27.880  40.236  59.090  0.00  0.00     0.130 C 
HETATM    6  C   UNK N   1      28.704  40.482  57.794  0.00  0.00    -0.006 C 
HETATM    7  C   UNK N   1      27.787  41.179  56.753  0.00  0.00     0.039 C 
HETATM    8  C   UNK N   1      28.369  41.290  55.365  0.00  0.00    -0.023 C 
HETATM    9  C   UNK N   1      29.568  41.823  55.032  0.00  0.00    -0.085 C 
HETATM   10  C   UNK N   1      30.575  42.417  55.997  0.00  0.00     0.066 C 
HETATM   11  C   UNK N   1      29.977  41.826  53.578  0.00  0.00     0.043 C 
HETATM   12  C   UNK N   1      29.239  39.134  57.231  0.00  0.00     0.019 C 
ENDROOT
BRANCH   1  13
HETATM   13  O   UNK N   1      31.234  43.345  58.061  0.00  0.00    -0.311 OA
BRANCH  13  14
HETATM   14  C   UNK N   1      31.591  44.618  57.732  0.00  0.00     0.293 C 
HETATM   15  O   UNK N   1      32.549  44.823  57.000  0.00  0.00    -0.259 OA
BRANCH  14  16
HETATM   16  C   UNK N   1      30.793  45.752  58.240  0.00  0.00     0.042 A 
HETATM   17  C   UNK N   1      30.542  46.864  57.424  0.00  0.00     0.057 A 
HETATM   18  C   UNK N   1      29.794  47.944  57.907  0.00  0.00     0.102 A 
HETATM   19  C   UNK N   1      29.294  47.926  59.217  0.00  0.00     0.101 A 
HETATM   20  C   UNK N   1      29.542  46.805  60.034  0.00  0.00     0.040 A 
HETATM   21  C   UNK N   1      30.283  45.728  59.548  0.00  0.00     0.020 A 
BRANCH  18  22
HETATM   22  O   UNK N   1      29.558  49.006  57.108  0.00  0.00    -0.353 OA
HETATM   23  C   UNK N   1      30.585  49.649  56.452  0.00  0.00     0.210 C 
ENDBRANCH  18  22
BRANCH  19  24
HETATM   24  O   UNK N   1      28.577  48.995  59.657  0.00  0.00    -0.353 OA
HETATM   25  C   UNK N   1      29.075  50.004  60.455  0.00  0.00     0.210 C 
ENDBRANCH  19  24
ENDBRANCH  14  16
ENDBRANCH  13  14
ENDBRANCH   1  13
BRANCH   3  26
HETATM   26  O   UNK N   1      28.766  42.687  59.993  0.00  0.00    -0.389 OA
HETATM   27  H   UNK N   1      27.948  42.506  59.461  0.00  0.00     0.210 HD
ENDBRANCH   3  26
BRANCH   3  28
HETATM   28  C   UNK N   1      30.941  41.857  60.725  0.00  0.00     0.012 C 
HETATM   29  C   UNK N   1      30.578  41.874  62.222  0.00  0.00     0.012 C 
HETATM   30  C   UNK N   1      32.092  40.853  60.509  0.00  0.00     0.012 C 
ENDBRANCH   3  28
BRANCH   5  31
HETATM   31  O   UNK N   1      27.174  39.021  59.079  0.00  0.00    -0.395 OA
HETATM   32  H   UNK N   1      27.168  38.703  58.138  0.00  0.00     0.210 HD
ENDBRANCH   5  31
TORSDOF 8
ENDMDL
MODEL 9
REMARK VINA RESULT:      -4.6     15.806     19.747
REMARK  8 active torsions:
REMARK  status: ('A' for Active; 'I' for Inactive)
REMARK    1  A    between atoms: C_2  and  O_3 
REMARK    2  A    between atoms: C_2  and  C_23 
REMARK    3  A    between atoms: O_3  and  C_4 
REMARK    4  A    between atoms: C_6  and  O_7 
REMARK    5  A    between atoms: C_6  and  C_9 
REMARK    6  A    between atoms: C_13  and  O_14 
REMARK    7  A    between atoms: C_25  and  O_26 
REMARK    8  A    between atoms: C_28  and  O_29 
ROOT
HETATM    1  C   UNK N   1      28.959  48.569  58.697  0.00  0.00     0.144 C 
HETATM    2  C   UNK N   1      27.504  49.082  58.530  0.00  0.00     0.061 C 
HETATM    3  C   UNK N   1      26.606  48.936  59.818  0.00  0.00     0.070 C 
HETATM    4  C   UNK N   1      25.509  49.973  59.535  0.00  0.00     0.071 C 
HETATM    5  C   UNK N   1      26.334  51.176  59.101  0.00  0.00     0.130 C 
HETATM    6  C   UNK N   1      27.346  50.587  58.077  0.00  0.00    -0.006 C 
HETATM    7  C   UNK N   1      28.659  51.414  58.151  0.00  0.00     0.039 C 
HETATM    8  C   UNK N   1      29.663  51.111  57.067  0.00  0.00    -0.023 C 
HETATM    9  C   UNK N   1      30.158  49.895  56.741  0.00  0.00    -0.085 C 
HETATM   10  C   UNK N   1      29.795  48.580  57.404  0.00  0.00     0.066 C 
HETATM   11  C   UNK N   1      31.151  49.800  55.607  0.00  0.00     0.043 C 
HETATM   12  C   UNK N   1      26.751  50.640  56.640  0.00  0.00     0.019 C 
ENDROOT
BRANCH   1  13
HETATM   13  O   UNK N   1      28.919  47.265  59.154  0.00  0.00    -0.311 OA
BRANCH  13  14
HETATM   14  C   UNK N   1      29.664  46.803  60.196  0.00  0.00     0.293 C 
HETATM   15  O   UNK N   1      29.687  47.410  61.258  0.00  0.00    -0.259 OA
BRANCH  14  16
HETATM   16  C   UNK N   1      30.421  45.543  60.048  0.00  0.00     0.042 A 
HETATM   17  C   UNK N   1      30.693  45.025  58.774  0.00  0.00     0.057 A 
HETATM   18  C   UNK N   1      31.402  43.827  58.633  0.00  0.00     0.102 A 
HETATM   19  C   UNK N   1      31.841  43.129  59.767  0.00  0.00     0.101 A 
HETATM   20  C   UNK N   1      31.572  43.654  61.047  0.00  0.00     0.040 A 
HETATM   21  C   UNK N   1      30.870  44.851  61.184  0.00  0.00     0.020 A 
BRANCH  18  22
HETATM   22  O   UNK N   1      31.659  43.342  57.399  0.00  0.00    -0.353 OA
HETATM   23  C   UNK N   1      30.677  42.727  56.654  0.00  0.00     0.210 C 
ENDBRANCH  18  22
BRANCH  19  24
HETATM   24  O   UNK N   1      32.522  41.963  59.594  0.00  0.00    -0.353 OA
HETATM   25  C   UNK N   1      33.869  41.793  59.836  0.00  0.00     0.210 C 
ENDBRANCH  19  24
ENDBRANCH  14  16
ENDBRANCH  13  14
ENDBRANCH   1  13
BRANCH   3  26
HETATM   26  O   UNK N   1      27.325  49.384  60.950  0.00  0.00    -0.389 OA
HETATM   27  H   UNK N   1      26.773  49.227  61.760  0.00  0.00     0.210 HD
ENDBRANCH   3  26
BRANCH   3  28
HETATM   28  C   UNK N   1      26.020  47.497  60.120  0.00  0.00     0.012 C 
HETATM   29  C   UNK N   1      24.938  47.548  61.215  0.00  0.00     0.012 C 
HETATM   30  C   UNK N   1      25.444  46.761  58.893  0.00  0.00     0.012 C 
ENDBRANCH   3  28
BRANCH   5  31
HETATM   31  O   UNK N   1      25.560  52.225  58.579  0.00  0.00    -0.395 OA
HETATM   32  H   UNK N   1      24.616  52.031  58.821  0.00  0.00     0.210 HD
ENDBRANCH   5  31
TORSDOF 8
ENDMDL
