MODEL 1
REMARK VINA RESULT:      -6.1      0.000      0.000
REMARK  2 active torsions:
REMARK  status: ('A' for Active; 'I' for Inactive)
REMARK       I    between atoms: N_5  and  C_6 
REMARK    1  A    between atoms: C_6  and  C_8 
REMARK    2  A    between atoms: C_11  and  C_15 
ROOT
HETATM    1 Br   UNK N   1      33.546  55.122  45.306  0.00  0.00    -0.051 Br
HETATM    2  C   UNK N   1      32.195  54.781  44.000  0.00  0.00     0.013 A 
HETATM    3  C   UNK N   1      32.104  53.508  43.407  0.00  0.00     0.050 A 
HETATM    4  C   UNK N   1      31.103  53.288  42.448  0.00  0.00     0.054 A 
HETATM    5  N   UNK N   1      30.840  52.167  41.721  0.00  0.00    -0.291 N 
HETATM    6  C   UNK N   1      31.529  50.963  41.709  0.00  0.00     0.228 C 
HETATM    7  O   UNK N   1      32.536  50.821  42.386  0.00  0.00    -0.273 OA
HETATM    8  C   UNK N   1      29.784  52.473  40.922  0.00  0.00     0.112 A 
HETATM    9  C   UNK N   1      29.389  53.783  41.132  0.00  0.00    -0.005 A 
HETATM   10  C   UNK N   1      30.230  54.294  42.098  0.00  0.00     0.003 A 
HETATM   11  C   UNK N   1      30.305  55.567  42.663  0.00  0.00     0.016 A 
HETATM   12  C   UNK N   1      31.299  55.807  43.628  0.00  0.00     0.020 A 
ENDROOT
BRANCH   9  13
HETATM   13  C   UNK N   1      28.388  54.488  40.315  0.00  0.00     0.049 C 
HETATM   14  C   UNK N   1      28.617  55.123  39.151  0.00  0.00     0.120 A 
HETATM   15  N   UNK N   1      29.820  55.208  38.394  0.00  0.00    -0.182 N 
HETATM   16  C   UNK N   1      27.603  55.908  38.424  0.00  0.00     0.289 A 
HETATM   17  C   UNK N   1      29.511  56.022  37.272  0.00  0.00     0.683 A 
HETATM   18  C   UNK N   1      31.097  54.582  38.666  0.00  0.00     0.176 C 
HETATM   19  N   UNK N   1      30.349  56.335  36.350  0.00  0.00    -0.234 N 
HETATM   20  N   UNK N   1      28.158  56.444  37.314  0.00  0.00    -0.150 N 
HETATM   21  H   UNK N   1      30.072  56.933  35.557  0.00  0.00     0.174 HD
ATOM     22  HN  UNK N   1      31.306  55.986  36.403  1.00  0.00     0.174 HD
HETATM   23  C   UNK N   1      27.491  57.306  36.358  0.00  0.00     0.179 C 
HETATM   24  O   UNK N   1      26.444  56.082  38.767  0.00  0.00    -0.265 OA
ENDBRANCH   9  13
BRANCH   6  25
HETATM   25  C   UNK N   1      31.099  49.815  40.824  0.00  0.00     0.099 C 
HETATM   26  C   UNK N   1      31.366  48.473  41.499  0.00  0.00     0.014 C 
ENDBRANCH   6  25
TORSDOF 2
ENDMDL
MODEL 2
REMARK VINA RESULT:      -6.0      3.060      4.537
REMARK  2 active torsions:
REMARK  status: ('A' for Active; 'I' for Inactive)
REMARK       I    between atoms: N_5  and  C_6 
REMARK    1  A    between atoms: C_6  and  C_8 
REMARK    2  A    between atoms: C_11  and  C_15 
ROOT
HETATM    1 Br   UNK N   1      30.845  49.480  40.866  0.00  0.00    -0.051 Br
HETATM    2  C   UNK N   1      30.745  51.383  41.004  0.00  0.00     0.013 A 
HETATM    3  C   UNK N   1      31.288  52.029  42.130  0.00  0.00     0.050 A 
HETATM    4  C   UNK N   1      31.197  53.427  42.206  0.00  0.00     0.054 A 
HETATM    5  N   UNK N   1      31.612  54.264  43.197  0.00  0.00    -0.291 N 
HETATM    6  C   UNK N   1      32.193  53.940  44.414  0.00  0.00     0.228 C 
HETATM    7  O   UNK N   1      32.355  52.772  44.729  0.00  0.00    -0.273 OA
HETATM    8  C   UNK N   1      31.276  55.519  42.797  0.00  0.00     0.112 A 
HETATM    9  C   UNK N   1      30.642  55.477  41.568  0.00  0.00    -0.005 A 
HETATM   10  C   UNK N   1      30.592  54.149  41.199  0.00  0.00     0.003 A 
HETATM   11  C   UNK N   1      30.038  53.532  40.079  0.00  0.00     0.016 A 
HETATM   12  C   UNK N   1      30.122  52.131  39.983  0.00  0.00     0.020 A 
ENDROOT
BRANCH   9  13
HETATM   13  C   UNK N   1      29.999  56.635  40.927  0.00  0.00     0.049 C 
HETATM   14  C   UNK N   1      28.691  56.947  40.978  0.00  0.00     0.120 A 
HETATM   15  N   UNK N   1      27.642  56.312  41.702  0.00  0.00    -0.182 N 
HETATM   16  C   UNK N   1      28.076  58.058  40.229  0.00  0.00     0.289 A 
HETATM   17  C   UNK N   1      26.461  57.029  41.374  0.00  0.00     0.683 A 
HETATM   18  C   UNK N   1      27.733  55.192  42.614  0.00  0.00     0.176 C 
HETATM   19  N   UNK N   1      25.293  56.752  41.833  0.00  0.00    -0.234 N 
HETATM   20  N   UNK N   1      26.746  58.083  40.469  0.00  0.00    -0.150 N 
HETATM   21  H   UNK N   1      24.466  57.305  41.559  0.00  0.00     0.174 HD
ATOM     22  HN  UNK N   1      25.181  55.971  42.480  1.00  0.00     0.174 HD
HETATM   23  C   UNK N   1      25.792  59.008  39.890  0.00  0.00     0.179 C 
HETATM   24  O   UNK N   1      28.655  58.831  39.480  0.00  0.00    -0.265 OA
ENDBRANCH   9  13
BRANCH   6  25
HETATM   25  C   UNK N   1      32.587  55.007  45.410  0.00  0.00     0.099 C 
HETATM   26  C   UNK N   1      34.007  55.503  45.150  0.00  0.00     0.014 C 
ENDBRANCH   6  25
TORSDOF 2
ENDMDL
MODEL 3
REMARK VINA RESULT:      -5.8      1.802      2.445
REMARK  2 active torsions:
REMARK  status: ('A' for Active; 'I' for Inactive)
REMARK       I    between atoms: N_5  and  C_6 
REMARK    1  A    between atoms: C_6  and  C_8 
REMARK    2  A    between atoms: C_11  and  C_15 
ROOT
HETATM    1 Br   UNK N   1      32.730  54.905  45.349  0.00  0.00    -0.051 Br
HETATM    2  C   UNK N   1      31.756  54.618  43.732  0.00  0.00     0.013 A 
HETATM    3  C   UNK N   1      31.712  53.332  43.163  0.00  0.00     0.050 A 
HETATM    4  C   UNK N   1      30.990  53.153  41.972  0.00  0.00     0.054 A 
HETATM    5  N   UNK N   1      30.831  52.026  41.225  0.00  0.00    -0.291 N 
HETATM    6  C   UNK N   1      31.383  50.769  41.427  0.00  0.00     0.228 C 
HETATM    7  O   UNK N   1      32.153  50.575  42.355  0.00  0.00    -0.273 OA
HETATM    8  C   UNK N   1      30.062  52.382  40.162  0.00  0.00     0.112 A 
HETATM    9  C   UNK N   1      29.747  53.728  40.229  0.00  0.00    -0.005 A 
HETATM   10  C   UNK N   1      30.340  54.211  41.377  0.00  0.00     0.003 A 
HETATM   11  C   UNK N   1      30.377  55.498  41.914  0.00  0.00     0.016 A 
HETATM   12  C   UNK N   1      31.092  55.697  43.109  0.00  0.00     0.020 A 
ENDROOT
BRANCH   9  13
HETATM   13  C   UNK N   1      29.073  54.476  39.156  0.00  0.00     0.049 C 
HETATM   14  C   UNK N   1      27.748  54.679  39.041  0.00  0.00     0.120 A 
HETATM   15  N   UNK N   1      26.700  54.309  39.930  0.00  0.00    -0.182 N 
HETATM   16  C   UNK N   1      27.111  55.343  37.888  0.00  0.00     0.289 A 
HETATM   17  C   UNK N   1      25.498  54.738  39.308  0.00  0.00     0.683 A 
HETATM   18  C   UNK N   1      26.806  53.661  41.221  0.00  0.00     0.176 C 
HETATM   19  N   UNK N   1      24.325  54.579  39.807  0.00  0.00    -0.234 N 
HETATM   20  N   UNK N   1      25.770  55.358  38.062  0.00  0.00    -0.150 N 
HETATM   21  H   UNK N   1      23.483  54.908  39.310  0.00  0.00     0.174 HD
ATOM     22  HN  UNK N   1      24.224  54.119  40.712  1.00  0.00     0.174 HD
HETATM   23  C   UNK N   1      24.796  55.894  37.131  0.00  0.00     0.179 C 
HETATM   24  O   UNK N   1      27.683  55.791  36.907  0.00  0.00    -0.265 OA
ENDBRANCH   9  13
BRANCH   6  25
HETATM   25  C   UNK N   1      31.104  49.623  40.482  0.00  0.00     0.099 C 
HETATM   26  C   UNK N   1      31.099  48.289  41.225  0.00  0.00     0.014 C 
ENDBRANCH   6  25
TORSDOF 2
ENDMDL
MODEL 4
REMARK VINA RESULT:      -5.7      2.028      3.594
REMARK  2 active torsions:
REMARK  status: ('A' for Active; 'I' for Inactive)
REMARK       I    between atoms: N_5  and  C_6 
REMARK    1  A    between atoms: C_6  and  C_8 
REMARK    2  A    between atoms: C_11  and  C_15 
ROOT
HETATM    1 Br   UNK N   1      31.413  48.670  41.348  0.00  0.00    -0.051 Br
HETATM    2  C   UNK N   1      30.920  50.515  41.327  0.00  0.00     0.013 A 
HETATM    3  C   UNK N   1      31.501  51.403  42.251  0.00  0.00     0.050 A 
HETATM    4  C   UNK N   1      31.116  52.752  42.212  0.00  0.00     0.054 A 
HETATM    5  N   UNK N   1      31.508  53.781  43.014  0.00  0.00    -0.291 N 
HETATM    6  C   UNK N   1      32.358  53.748  44.109  0.00  0.00     0.228 C 
HETATM    7  O   UNK N   1      32.831  52.689  44.491  0.00  0.00    -0.273 OA
HETATM    8  C   UNK N   1      30.834  54.878  42.577  0.00  0.00     0.112 A 
HETATM    9  C   UNK N   1      30.012  54.544  41.515  0.00  0.00    -0.005 A 
HETATM   10  C   UNK N   1      30.193  53.195  41.290  0.00  0.00     0.003 A 
HETATM   11  C   UNK N   1      29.595  52.334  40.371  0.00  0.00     0.016 A 
HETATM   12  C   UNK N   1      29.970  50.979  40.391  0.00  0.00     0.020 A 
ENDROOT
BRANCH   9  13
HETATM   13  C   UNK N   1      29.022  55.453  40.916  0.00  0.00     0.049 C 
HETATM   14  C   UNK N   1      29.060  55.958  39.669  0.00  0.00     0.120 A 
HETATM   15  N   UNK N   1      29.984  55.695  38.619  0.00  0.00    -0.182 N 
HETATM   16  C   UNK N   1      28.101  56.952  39.151  0.00  0.00     0.289 A 
HETATM   17  C   UNK N   1      29.577  56.515  37.534  0.00  0.00     0.683 A 
HETATM   18  C   UNK N   1      31.095  54.767  38.615  0.00  0.00     0.176 C 
HETATM   19  N   UNK N   1      30.170  56.561  36.395  0.00  0.00    -0.234 N 
HETATM   20  N   UNK N   1      28.433  57.279  37.882  0.00  0.00    -0.150 N 
HETATM   21  H   UNK N   1      29.833  57.178  35.641  0.00  0.00     0.174 HD
ATOM     22  HN  UNK N   1      30.990  55.976  36.234  1.00  0.00     0.174 HD
HETATM   23  C   UNK N   1      27.752  58.246  37.044  0.00  0.00     0.179 C 
HETATM   24  O   UNK N   1      27.164  57.438  39.765  0.00  0.00    -0.265 OA
ENDBRANCH   9  13
BRANCH   6  25
HETATM   25  C   UNK N   1      32.680  54.997  44.898  0.00  0.00     0.099 C 
HETATM   26  C   UNK N   1      34.120  55.440  44.660  0.00  0.00     0.014 C 
ENDBRANCH   6  25
TORSDOF 2
ENDMDL
MODEL 5
REMARK VINA RESULT:      -5.5      3.718      5.255
REMARK  2 active torsions:
REMARK  status: ('A' for Active; 'I' for Inactive)
REMARK       I    between atoms: N_5  and  C_6 
REMARK    1  A    between atoms: C_6  and  C_8 
REMARK    2  A    between atoms: C_11  and  C_15 
ROOT
HETATM    1 Br   UNK N   1      32.988  51.454  43.982  0.00  0.00    -0.051 Br
HETATM    2  C   UNK N   1      31.818  51.925  42.547  0.00  0.00     0.013 A 
HETATM    3  C   UNK N   1      31.312  53.235  42.462  0.00  0.00     0.050 A 
HETATM    4  C   UNK N   1      30.453  53.551  41.398  0.00  0.00     0.054 A 
HETATM    5  N   UNK N   1      29.819  54.724  41.124  0.00  0.00    -0.291 N 
HETATM    6  C   UNK N   1      29.823  55.901  41.858  0.00  0.00     0.228 C 
HETATM    7  O   UNK N   1      30.423  55.964  42.920  0.00  0.00    -0.273 OA
HETATM    8  C   UNK N   1      29.091  54.507  39.996  0.00  0.00     0.112 A 
HETATM    9  C   UNK N   1      29.254  53.202  39.566  0.00  0.00    -0.005 A 
HETATM   10  C   UNK N   1      30.116  52.600  40.459  0.00  0.00     0.003 A 
HETATM   11  C   UNK N   1      30.595  51.293  40.527  0.00  0.00     0.016 A 
HETATM   12  C   UNK N   1      31.460  50.957  41.584  0.00  0.00     0.020 A 
ENDROOT
BRANCH   9  13
HETATM   13  C   UNK N   1      28.480  52.586  38.476  0.00  0.00     0.049 C 
HETATM   14  C   UNK N   1      27.272  52.003  38.590  0.00  0.00     0.120 A 
HETATM   15  N   UNK N   1      26.425  51.904  39.729  0.00  0.00    -0.182 N 
HETATM   16  C   UNK N   1      26.585  51.303  37.489  0.00  0.00     0.289 A 
HETATM   17  C   UNK N   1      25.290  51.165  39.301  0.00  0.00     0.683 A 
HETATM   18  C   UNK N   1      26.631  52.458  41.051  0.00  0.00     0.176 C 
HETATM   19  N   UNK N   1      24.294  50.863  40.054  0.00  0.00    -0.234 N 
HETATM   20  N   UNK N   1      25.412  50.802  37.936  0.00  0.00    -0.150 N 
HETATM   21  H   UNK N   1      23.495  50.321  39.692  0.00  0.00     0.174 HD
ATOM     22  HN  UNK N   1      24.293  51.166  41.028  1.00  0.00     0.174 HD
HETATM   23  C   UNK N   1      24.467  50.022  37.161  0.00  0.00     0.179 C 
HETATM   24  O   UNK N   1      27.005  51.163  36.350  0.00  0.00    -0.265 OA
ENDBRANCH   9  13
BRANCH   6  25
HETATM   25  C   UNK N   1      29.047  57.117  41.406  0.00  0.00     0.099 C 
HETATM   26  C   UNK N   1      29.615  57.679  40.106  0.00  0.00     0.014 C 
ENDBRANCH   6  25
TORSDOF 2
ENDMDL
MODEL 6
REMARK VINA RESULT:      -5.4     17.036     19.615
REMARK  2 active torsions:
REMARK  status: ('A' for Active; 'I' for Inactive)
REMARK       I    between atoms: N_5  and  C_6 
REMARK    1  A    between atoms: C_6  and  C_8 
REMARK    2  A    between atoms: C_11  and  C_15 
ROOT
HETATM    1 Br   UNK N   1      25.450  42.920  49.665  0.00  0.00    -0.051 Br
HETATM    2  C   UNK N   1      26.724  42.405  50.992  0.00  0.00     0.013 A 
HETATM    3  C   UNK N   1      26.655  41.120  51.563  0.00  0.00     0.050 A 
HETATM    4  C   UNK N   1      27.603  40.772  52.538  0.00  0.00     0.054 A 
HETATM    5  N   UNK N   1      27.720  39.617  53.249  0.00  0.00    -0.291 N 
HETATM    6  C   UNK N   1      26.898  38.500  53.225  0.00  0.00     0.228 C 
HETATM    7  O   UNK N   1      25.897  38.485  52.526  0.00  0.00    -0.273 OA
HETATM    8  C   UNK N   1      28.786  39.787  54.075  0.00  0.00     0.112 A 
HETATM    9  C   UNK N   1      29.333  41.046  53.897  0.00  0.00    -0.005 A 
HETATM   10  C   UNK N   1      28.578  41.666  52.924  0.00  0.00     0.003 A 
HETATM   11  C   UNK N   1      28.662  42.947  52.381  0.00  0.00     0.016 A 
HETATM   12  C   UNK N   1      27.723  43.315  51.401  0.00  0.00     0.020 A 
ENDROOT
BRANCH   9  13
HETATM   13  C   UNK N   1      30.390  41.617  54.746  0.00  0.00     0.049 C 
HETATM   14  C   UNK N   1      30.204  42.375  55.844  0.00  0.00     0.120 A 
HETATM   15  N   UNK N   1      28.990  42.739  56.490  0.00  0.00    -0.182 N 
HETATM   16  C   UNK N   1      31.296  43.016  56.600  0.00  0.00     0.289 A 
HETATM   17  C   UNK N   1      29.368  43.569  57.579  0.00  0.00     0.683 A 
HETATM   18  C   UNK N   1      27.640  42.338  56.155  0.00  0.00     0.176 C 
HETATM   19  N   UNK N   1      28.542  44.103  58.406  0.00  0.00    -0.234 N 
HETATM   20  N   UNK N   1      30.776  43.731  57.622  0.00  0.00    -0.150 N 
HETATM   21  H   UNK N   1      28.872  44.701  59.179  0.00  0.00     0.174 HD
ATOM     22  HN  UNK N   1      27.543  43.933  58.296  1.00  0.00     0.174 HD
HETATM   23  C   UNK N   1      31.526  44.530  58.572  0.00  0.00     0.179 C 
HETATM   24  O   UNK N   1      32.488  42.947  56.343  0.00  0.00    -0.265 OA
ENDBRANCH   9  13
BRANCH   6  25
HETATM   25  C   UNK N   1      27.174  37.296  54.097  0.00  0.00     0.099 C 
HETATM   26  C   UNK N   1      27.724  36.136  53.272  0.00  0.00     0.014 C 
ENDBRANCH   6  25
TORSDOF 2
ENDMDL
MODEL 7
REMARK VINA RESULT:      -5.2     16.961     20.149
REMARK  2 active torsions:
REMARK  status: ('A' for Active; 'I' for Inactive)
REMARK       I    between atoms: N_5  and  C_6 
REMARK    1  A    between atoms: C_6  and  C_8 
REMARK    2  A    between atoms: C_11  and  C_15 
ROOT
HETATM    1 Br   UNK N   1      28.344  49.965  63.051  0.00  0.00    -0.051 Br
HETATM    2  C   UNK N   1      28.995  48.963  61.560  0.00  0.00     0.013 A 
HETATM    3  C   UNK N   1      28.979  49.537  60.275  0.00  0.00     0.050 A 
HETATM    4  C   UNK N   1      29.461  48.775  59.199  0.00  0.00     0.054 A 
HETATM    5  N   UNK N   1      29.516  49.095  57.877  0.00  0.00    -0.291 N 
HETATM    6  C   UNK N   1      29.065  50.245  57.246  0.00  0.00     0.228 C 
HETATM    7  O   UNK N   1      28.499  51.118  57.885  0.00  0.00    -0.273 OA
HETATM    8  C   UNK N   1      30.048  48.013  57.248  0.00  0.00     0.112 A 
HETATM    9  C   UNK N   1      30.316  47.011  58.164  0.00  0.00    -0.005 A 
HETATM   10  C   UNK N   1      29.939  47.499  59.398  0.00  0.00     0.003 A 
HETATM   11  C   UNK N   1      29.956  46.904  60.659  0.00  0.00     0.016 A 
HETATM   12  C   UNK N   1      29.480  47.652  61.751  0.00  0.00     0.020 A 
ENDROOT
BRANCH   9  13
HETATM   13  C   UNK N   1      30.737  45.649  57.802  0.00  0.00     0.049 C 
HETATM   14  C   UNK N   1      29.938  44.570  57.701  0.00  0.00     0.120 A 
HETATM   15  N   UNK N   1      28.524  44.483  57.833  0.00  0.00    -0.182 N 
HETATM   16  C   UNK N   1      30.424  43.203  57.441  0.00  0.00     0.289 A 
HETATM   17  C   UNK N   1      28.205  43.109  57.662  0.00  0.00     0.683 A 
HETATM   18  C   UNK N   1      27.576  45.554  58.059  0.00  0.00     0.176 C 
HETATM   19  N   UNK N   1      27.015  42.628  57.716  0.00  0.00    -0.234 N 
HETATM   20  N   UNK N   1      29.378  42.346  57.433  0.00  0.00    -0.150 N 
HETATM   21  H   UNK N   1      26.841  41.620  57.587  0.00  0.00     0.174 HD
ATOM     22  HN  UNK N   1      26.229  43.254  57.888  1.00  0.00     0.174 HD
HETATM   23  C   UNK N   1      29.453  40.911  57.243  0.00  0.00     0.179 C 
HETATM   24  O   UNK N   1      31.589  42.869  57.282  0.00  0.00    -0.265 OA
ENDBRANCH   9  13
BRANCH   6  25
HETATM   25  C   UNK N   1      29.200  50.431  55.751  0.00  0.00     0.099 C 
HETATM   26  C   UNK N   1      30.598  50.923  55.385  0.00  0.00     0.014 C 
ENDBRANCH   6  25
TORSDOF 2
ENDMDL
MODEL 8
REMARK VINA RESULT:      -5.2     18.372     20.511
REMARK  2 active torsions:
REMARK  status: ('A' for Active; 'I' for Inactive)
REMARK       I    between atoms: N_5  and  C_6 
REMARK    1  A    between atoms: C_6  and  C_8 
REMARK    2  A    between atoms: C_11  and  C_15 
ROOT
HETATM    1 Br   UNK N   1      28.500  51.521  58.894  0.00  0.00    -0.051 Br
HETATM    2  C   UNK N   1      29.152  49.733  58.736  0.00  0.00     0.013 A 
HETATM    3  C   UNK N   1      29.320  48.947  59.892  0.00  0.00     0.050 A 
HETATM    4  C   UNK N   1      29.804  47.638  59.744  0.00  0.00     0.054 A 
HETATM    5  N   UNK N   1      30.077  46.710  60.701  0.00  0.00    -0.291 N 
HETATM    6  C   UNK N   1      29.991  46.838  62.080  0.00  0.00     0.228 C 
HETATM    7  O   UNK N   1      29.669  47.904  62.581  0.00  0.00    -0.273 OA
HETATM    8  C   UNK N   1      30.539  45.613  60.044  0.00  0.00     0.112 A 
HETATM    9  C   UNK N   1      30.569  45.849  58.681  0.00  0.00    -0.005 A 
HETATM   10  C   UNK N   1      30.104  47.135  58.497  0.00  0.00     0.003 A 
HETATM   11  C   UNK N   1      29.957  47.896  57.338  0.00  0.00     0.016 A 
HETATM   12  C   UNK N   1      29.470  49.209  57.464  0.00  0.00     0.020 A 
ENDROOT
BRANCH   9  13
HETATM   13  C   UNK N   1      31.171  44.938  57.695  0.00  0.00     0.049 C 
HETATM   14  C   UNK N   1      30.540  43.943  57.043  0.00  0.00     0.120 A 
HETATM   15  N   UNK N   1      29.165  43.578  57.073  0.00  0.00    -0.182 N 
HETATM   16  C   UNK N   1      31.213  42.987  56.145  0.00  0.00     0.289 A 
HETATM   17  C   UNK N   1      29.050  42.444  56.227  0.00  0.00     0.683 A 
HETATM   18  C   UNK N   1      28.081  44.226  57.781  0.00  0.00     0.176 C 
HETATM   19  N   UNK N   1      27.952  41.817  55.997  0.00  0.00    -0.234 N 
HETATM   20  N   UNK N   1      30.310  42.096  55.678  0.00  0.00    -0.150 N 
HETATM   21  H   UNK N   1      27.925  40.996  55.374  0.00  0.00     0.174 HD
ATOM     22  HN  UNK N   1      27.090  42.139  56.438  1.00  0.00     0.174 HD
HETATM   23  C   UNK N   1      30.591  40.981  54.795  0.00  0.00     0.179 C 
HETATM   24  O   UNK N   1      32.404  42.968  55.873  0.00  0.00    -0.265 OA
ENDBRANCH   9  13
BRANCH   6  25
HETATM   25  C   UNK N   1      30.347  45.696  63.004  0.00  0.00     0.099 C 
HETATM   26  C   UNK N   1      31.786  45.817  63.497  0.00  0.00     0.014 C 
ENDBRANCH   6  25
TORSDOF 2
ENDMDL
MODEL 9
REMARK VINA RESULT:      -5.2     17.093     20.663
REMARK  2 active torsions:
REMARK  status: ('A' for Active; 'I' for Inactive)
REMARK       I    between atoms: N_5  and  C_6 
REMARK    1  A    between atoms: C_6  and  C_8 
REMARK    2  A    between atoms: C_11  and  C_15 
ROOT
HETATM    1 Br   UNK N   1      27.349  35.902  53.456  0.00  0.00    -0.051 Br
HETATM    2  C   UNK N   1      28.084  37.595  53.947  0.00  0.00     0.013 A 
HETATM    3  C   UNK N   1      27.724  38.747  53.225  0.00  0.00     0.050 A 
HETATM    4  C   UNK N   1      28.283  39.977  53.607  0.00  0.00     0.054 A 
HETATM    5  N   UNK N   1      28.117  41.207  53.050  0.00  0.00    -0.291 N 
HETATM    6  C   UNK N   1      27.384  41.555  51.925  0.00  0.00     0.228 C 
HETATM    7  O   UNK N   1      26.811  40.696  51.272  0.00  0.00    -0.273 OA
HETATM    8  C   UNK N   1      28.887  42.060  53.777  0.00  0.00     0.112 A 
HETATM    9  C   UNK N   1      29.546  41.371  54.781  0.00  0.00    -0.005 A 
HETATM   10  C   UNK N   1      29.161  40.052  54.667  0.00  0.00     0.003 A 
HETATM   11  C   UNK N   1      29.542  38.923  55.392  0.00  0.00     0.016 A 
HETATM   12  C   UNK N   1      28.990  37.683  55.026  0.00  0.00     0.020 A 
ENDROOT
BRANCH   9  13
HETATM   13  C   UNK N   1      30.585  41.956  55.642  0.00  0.00     0.049 C 
HETATM   14  C   UNK N   1      30.425  42.371  56.912  0.00  0.00     0.120 A 
HETATM   15  N   UNK N   1      29.277  42.283  57.749  0.00  0.00    -0.182 N 
HETATM   16  C   UNK N   1      31.471  43.051  57.698  0.00  0.00     0.289 A 
HETATM   17  C   UNK N   1      29.645  42.899  58.974  0.00  0.00     0.683 A 
HETATM   18  C   UNK N   1      27.998  41.671  57.455  0.00  0.00     0.176 C 
HETATM   19  N   UNK N   1      28.868  43.019  59.989  0.00  0.00    -0.234 N 
HETATM   20  N   UNK N   1      30.983  43.367  58.919  0.00  0.00    -0.150 N 
HETATM   21  H   UNK N   1      29.187  43.479  60.856  0.00  0.00     0.174 HD
ATOM     22  HN  UNK N   1      27.917  42.653  59.938  1.00  0.00     0.174 HD
HETATM   23  C   UNK N   1      31.696  44.072  59.966  0.00  0.00     0.179 C 
HETATM   24  O   UNK N   1      32.599  43.322  57.316  0.00  0.00    -0.265 OA
ENDBRANCH   9  13
BRANCH   6  25
HETATM   25  C   UNK N   1      27.315  42.984  51.436  0.00  0.00     0.099 C 
HETATM   26  C   UNK N   1      26.102  43.705  52.017  0.00  0.00     0.014 C 
ENDBRANCH   6  25
TORSDOF 2
ENDMDL
