MODEL 1
REMARK VINA RESULT:      -6.7      0.000      0.000
REMARK  7 active torsions:
REMARK  status: ('A' for Active; 'I' for Inactive)
REMARK    1  A    between atoms: C_2  and  O_3 
REMARK    2  A    between atoms: C_2  and  C_15 
REMARK    3  A    between atoms: O_3  and  C_4 
REMARK    4  A    between atoms: C_12  and  O_13 
REMARK    5  A    between atoms: C_15  and  C_16 
REMARK    6  A    between atoms: C_15  and  C_19 
REMARK    7  A    between atoms: C_16  and  O_17 
ROOT
HETATM    1  O   UNK N   1      38.681  44.384  49.464  0.00  0.00    -0.264 OA
HETATM    2  C   UNK N   1      39.731  44.065  48.926  0.00  0.00     0.270 C 
ENDROOT
BRANCH   2   3
HETATM    3  O   UNK N   1      39.996  44.435  47.648  0.00  0.00    -0.315 OA
BRANCH   3   4
HETATM    4  C   UNK N   1      40.176  45.736  47.221  0.00  0.00     0.136 C 
HETATM    5  C   UNK N   1      40.976  45.716  45.911  0.00  0.00     0.071 C 
HETATM    6  C   UNK N   1      41.421  47.146  45.503  0.00  0.00     0.254 C 
HETATM    7  N   UNK N   1      42.319  47.625  46.565  0.00  0.00     0.096 N 
HETATM    8  C   UNK N   1      40.260  48.164  45.474  0.00  0.00     0.153 C 
HETATM    9  C   UNK N   1      43.157  48.763  46.150  0.00  0.00     0.310 C 
HETATM   10  C   UNK N   1      41.362  47.957  47.633  0.00  0.00     0.228 C 
HETATM   11  C   UNK N   1      40.909  46.611  48.266  0.00  0.00     0.068 C 
HETATM   12  C   UNK N   1      40.194  48.680  46.931  0.00  0.00     0.069 C 
BRANCH   8  13
HETATM   13  O   UNK N   1      39.062  47.613  44.998  0.00  0.00    -0.393 OA
HETATM   14  H   UNK N   1      38.672  47.097  45.750  0.00  0.00     0.210 HD
ENDBRANCH   8  13
ENDBRANCH   3   4
ENDBRANCH   2   3
BRANCH   2  15
HETATM   15  C   UNK N   1      40.762  43.281  49.709  0.00  0.00     0.142 C 
BRANCH  15  16
HETATM   16  C   UNK N   1      42.133  43.289  49.003  0.00  0.00     0.183 C 
BRANCH  16  17
HETATM   17  O   UNK N   1      42.044  42.670  47.749  0.00  0.00    -0.400 OA
HETATM   18  H   UNK N   1      42.703  41.926  47.757  0.00  0.00     0.209 HD
ENDBRANCH  16  17
ENDBRANCH  15  16
BRANCH  15  19
HETATM   19  C   UNK N   1      40.884  43.816  51.131  0.00  0.00    -0.043 A 
HETATM   20  C   UNK N   1      41.799  44.845  51.418  0.00  0.00     0.008 A 
HETATM   21  C   UNK N   1      41.922  45.340  52.721  0.00  0.00     0.001 A 
HETATM   22  C   UNK N   1      41.129  44.820  53.748  0.00  0.00     0.000 A 
HETATM   23  C   UNK N   1      40.211  43.806  53.476  0.00  0.00     0.001 A 
HETATM   24  C   UNK N   1      40.086  43.306  52.181  0.00  0.00     0.008 A 
ENDBRANCH  15  19
ENDBRANCH   2  15
TORSDOF 7
ENDMDL
MODEL 2
REMARK VINA RESULT:      -6.6      2.406      7.355
REMARK  7 active torsions:
REMARK  status: ('A' for Active; 'I' for Inactive)
REMARK    1  A    between atoms: C_2  and  O_3 
REMARK    2  A    between atoms: C_2  and  C_15 
REMARK    3  A    between atoms: O_3  and  C_4 
REMARK    4  A    between atoms: C_12  and  O_13 
REMARK    5  A    between atoms: C_15  and  C_16 
REMARK    6  A    between atoms: C_15  and  C_19 
REMARK    7  A    between atoms: C_16  and  O_17 
ROOT
HETATM    1  O   UNK N   1      40.726  46.975  45.032  0.00  0.00    -0.264 OA
HETATM    2  C   UNK N   1      40.408  47.645  46.004  0.00  0.00     0.270 C 
ENDROOT
BRANCH   2   3
HETATM    3  O   UNK N   1      41.127  47.584  47.153  0.00  0.00    -0.315 OA
BRANCH   3   4
HETATM    4  C   UNK N   1      41.376  46.431  47.872  0.00  0.00     0.136 C 
HETATM    5  C   UNK N   1      40.107  45.567  47.868  0.00  0.00     0.071 C 
HETATM    6  C   UNK N   1      40.237  44.375  48.853  0.00  0.00     0.254 C 
HETATM    7  N   UNK N   1      40.375  44.956  50.199  0.00  0.00     0.096 N 
HETATM    8  C   UNK N   1      41.523  43.544  48.646  0.00  0.00     0.153 C 
HETATM    9  C   UNK N   1      40.085  43.998  51.279  0.00  0.00     0.310 C 
HETATM   10  C   UNK N   1      41.773  45.416  50.179  0.00  0.00     0.228 C 
HETATM   11  C   UNK N   1      41.806  46.718  49.331  0.00  0.00     0.068 C 
HETATM   12  C   UNK N   1      42.573  44.278  49.510  0.00  0.00     0.069 C 
BRANCH   8  13
HETATM   13  O   UNK N   1      41.873  43.410  47.294  0.00  0.00    -0.393 OA
HETATM   14  H   UNK N   1      41.172  43.880  46.774  0.00  0.00     0.210 HD
ENDBRANCH   8  13
ENDBRANCH   3   4
ENDBRANCH   2   3
BRANCH   2  15
HETATM   15  C   UNK N   1      39.224  48.583  45.910  0.00  0.00     0.142 C 
BRANCH  15  16
HETATM   16  C   UNK N   1      39.173  49.551  47.108  0.00  0.00     0.183 C 
BRANCH  16  17
HETATM   17  O   UNK N   1      38.309  50.621  46.840  0.00  0.00    -0.400 OA
HETATM   18  H   UNK N   1      37.567  50.552  47.498  0.00  0.00     0.209 HD
ENDBRANCH  16  17
ENDBRANCH  15  16
BRANCH  15  19
HETATM   19  C   UNK N   1      39.247  49.354  44.594  0.00  0.00    -0.043 A 
HETATM   20  C   UNK N   1      40.205  50.363  44.389  0.00  0.00     0.008 A 
HETATM   21  C   UNK N   1      40.230  51.079  43.186  0.00  0.00     0.001 A 
HETATM   22  C   UNK N   1      39.309  50.790  42.176  0.00  0.00     0.000 A 
HETATM   23  C   UNK N   1      38.359  49.786  42.363  0.00  0.00     0.001 A 
HETATM   24  C   UNK N   1      38.325  49.070  43.559  0.00  0.00     0.008 A 
ENDBRANCH  15  19
ENDBRANCH   2  15
TORSDOF 7
ENDMDL
MODEL 3
REMARK VINA RESULT:      -6.5      0.957      1.685
REMARK  7 active torsions:
REMARK  status: ('A' for Active; 'I' for Inactive)
REMARK    1  A    between atoms: C_2  and  O_3 
REMARK    2  A    between atoms: C_2  and  C_15 
REMARK    3  A    between atoms: O_3  and  C_4 
REMARK    4  A    between atoms: C_12  and  O_13 
REMARK    5  A    between atoms: C_15  and  C_16 
REMARK    6  A    between atoms: C_15  and  C_19 
REMARK    7  A    between atoms: C_16  and  O_17 
ROOT
HETATM    1  O   UNK N   1      41.771  42.588  49.211  0.00  0.00    -0.264 OA
HETATM    2  C   UNK N   1      41.436  43.737  48.966  0.00  0.00     0.270 C 
ENDROOT
BRANCH   2   3
HETATM    3  O   UNK N   1      41.976  44.409  47.918  0.00  0.00    -0.315 OA
BRANCH   3   4
HETATM    4  C   UNK N   1      41.533  45.629  47.446  0.00  0.00     0.136 C 
HETATM    5  C   UNK N   1      41.857  45.721  45.948  0.00  0.00     0.071 C 
HETATM    6  C   UNK N   1      41.606  47.154  45.407  0.00  0.00     0.254 C 
HETATM    7  N   UNK N   1      42.540  48.041  46.119  0.00  0.00     0.096 N 
HETATM    8  C   UNK N   1      40.202  47.701  45.746  0.00  0.00     0.153 C 
HETATM    9  C   UNK N   1      42.741  49.336  45.447  0.00  0.00     0.310 C 
HETATM   10  C   UNK N   1      41.892  48.155  47.436  0.00  0.00     0.228 C 
HETATM   11  C   UNK N   1      42.172  46.826  48.191  0.00  0.00     0.068 C 
HETATM   12  C   UNK N   1      40.389  48.340  47.142  0.00  0.00     0.069 C 
BRANCH   8  13
HETATM   13  O   UNK N   1      39.204  46.718  45.686  0.00  0.00    -0.393 OA
HETATM   14  H   UNK N   1      38.338  47.199  45.642  0.00  0.00     0.210 HD
ENDBRANCH   8  13
ENDBRANCH   3   4
ENDBRANCH   2   3
BRANCH   2  15
HETATM   15  C   UNK N   1      40.377  44.404  49.818  0.00  0.00     0.142 C 
BRANCH  15  16
HETATM   16  C   UNK N   1      38.969  43.866  49.493  0.00  0.00     0.183 C 
BRANCH  16  17
HETATM   17  O   UNK N   1      38.224  44.828  48.798  0.00  0.00    -0.400 OA
HETATM   18  H   UNK N   1      37.956  45.511  49.468  0.00  0.00     0.209 HD
ENDBRANCH  16  17
ENDBRANCH  15  16
BRANCH  15  19
HETATM   19  C   UNK N   1      40.689  44.236  51.301  0.00  0.00    -0.043 A 
HETATM   20  C   UNK N   1      41.707  45.003  51.894  0.00  0.00     0.008 A 
HETATM   21  C   UNK N   1      42.004  44.853  53.254  0.00  0.00     0.001 A 
HETATM   22  C   UNK N   1      41.285  43.944  54.034  0.00  0.00     0.000 A 
HETATM   23  C   UNK N   1      40.268  43.182  53.460  0.00  0.00     0.001 A 
HETATM   24  C   UNK N   1      39.968  43.324  52.106  0.00  0.00     0.008 A 
ENDBRANCH  15  19
ENDBRANCH   2  15
TORSDOF 7
ENDMDL
MODEL 4
REMARK VINA RESULT:      -6.3     11.207     14.109
REMARK  7 active torsions:
REMARK  status: ('A' for Active; 'I' for Inactive)
REMARK    1  A    between atoms: C_2  and  O_3 
REMARK    2  A    between atoms: C_2  and  C_15 
REMARK    3  A    between atoms: O_3  and  C_4 
REMARK    4  A    between atoms: C_12  and  O_13 
REMARK    5  A    between atoms: C_15  and  C_16 
REMARK    6  A    between atoms: C_15  and  C_19 
REMARK    7  A    between atoms: C_16  and  O_17 
ROOT
HETATM    1  O   UNK N   1      31.550  49.858  42.222  0.00  0.00    -0.264 OA
HETATM    2  C   UNK N   1      32.001  50.945  42.554  0.00  0.00     0.270 C 
ENDROOT
BRANCH   2   3
HETATM    3  O   UNK N   1      31.825  52.037  41.768  0.00  0.00    -0.315 OA
BRANCH   3   4
HETATM    4  C   UNK N   1      30.618  52.445  41.236  0.00  0.00     0.136 C 
HETATM    5  C   UNK N   1      30.755  52.516  39.709  0.00  0.00     0.071 C 
HETATM    6  C   UNK N   1      29.516  53.196  39.065  0.00  0.00     0.254 C 
HETATM    7  N   UNK N   1      29.484  54.577  39.573  0.00  0.00     0.096 N 
HETATM    8  C   UNK N   1      28.174  52.576  39.514  0.00  0.00     0.153 C 
HETATM    9  C   UNK N   1      28.649  55.477  38.761  0.00  0.00     0.310 C 
HETATM   10  C   UNK N   1      28.976  54.376  40.940  0.00  0.00     0.228 C 
HETATM   11  C   UNK N   1      30.158  53.819  41.782  0.00  0.00     0.068 C 
HETATM   12  C   UNK N   1      27.833  53.348  40.809  0.00  0.00     0.069 C 
BRANCH   8  13
HETATM   13  O   UNK N   1      28.240  51.183  39.667  0.00  0.00    -0.393 OA
HETATM   14  H   UNK N   1      29.032  50.881  39.151  0.00  0.00     0.210 HD
ENDBRANCH   8  13
ENDBRANCH   3   4
ENDBRANCH   2   3
BRANCH   2  15
HETATM   15  C   UNK N   1      32.728  51.080  43.874  0.00  0.00     0.142 C 
BRANCH  15  16
HETATM   16  C   UNK N   1      34.175  50.558  43.778  0.00  0.00     0.183 C 
BRANCH  16  17
HETATM   17  O   UNK N   1      34.195  49.252  43.271  0.00  0.00    -0.400 OA
HETATM   18  H   UNK N   1      33.292  48.872  43.443  0.00  0.00     0.209 HD
ENDBRANCH  16  17
ENDBRANCH  15  16
BRANCH  15  19
HETATM   19  C   UNK N   1      32.706  52.526  44.359  0.00  0.00    -0.043 A 
HETATM   20  C   UNK N   1      31.546  53.047  44.958  0.00  0.00     0.008 A 
HETATM   21  C   UNK N   1      31.515  54.374  45.402  0.00  0.00     0.001 A 
HETATM   22  C   UNK N   1      32.642  55.189  45.260  0.00  0.00     0.000 A 
HETATM   23  C   UNK N   1      33.802  54.682  44.676  0.00  0.00     0.001 A 
HETATM   24  C   UNK N   1      33.839  53.362  44.228  0.00  0.00     0.008 A 
ENDBRANCH  15  19
ENDBRANCH   2  15
TORSDOF 7
ENDMDL
MODEL 5
REMARK VINA RESULT:      -6.3      2.702      7.535
REMARK  7 active torsions:
REMARK  status: ('A' for Active; 'I' for Inactive)
REMARK    1  A    between atoms: C_2  and  O_3 
REMARK    2  A    between atoms: C_2  and  C_15 
REMARK    3  A    between atoms: O_3  and  C_4 
REMARK    4  A    between atoms: C_12  and  O_13 
REMARK    5  A    between atoms: C_15  and  C_16 
REMARK    6  A    between atoms: C_15  and  C_19 
REMARK    7  A    between atoms: C_16  and  O_17 
ROOT
HETATM    1  O   UNK N   1      40.483  47.433  44.922  0.00  0.00    -0.264 OA
HETATM    2  C   UNK N   1      39.523  47.576  45.664  0.00  0.00     0.270 C 
ENDROOT
BRANCH   2   3
HETATM    3  O   UNK N   1      39.143  46.582  46.507  0.00  0.00    -0.315 OA
BRANCH   3   4
HETATM    4  C   UNK N   1      39.871  46.144  47.595  0.00  0.00     0.136 C 
HETATM    5  C   UNK N   1      40.851  45.060  47.125  0.00  0.00     0.071 C 
HETATM    6  C   UNK N   1      41.529  44.356  48.331  0.00  0.00     0.254 C 
HETATM    7  N   UNK N   1      40.456  43.688  49.085  0.00  0.00     0.096 N 
HETATM    8  C   UNK N   1      42.168  45.339  49.336  0.00  0.00     0.153 C 
HETATM    9  C   UNK N   1      40.948  42.640  49.995  0.00  0.00     0.310 C 
HETATM   10  C   UNK N   1      39.832  44.827  49.779  0.00  0.00     0.228 C 
HETATM   11  C   UNK N   1      38.975  45.582  48.725  0.00  0.00     0.068 C 
HETATM   12  C   UNK N   1      41.004  45.691  50.290  0.00  0.00     0.069 C 
BRANCH   8  13
HETATM   13  O   UNK N   1      42.764  46.446  48.713  0.00  0.00    -0.393 OA
HETATM   14  H   UNK N   1      42.609  46.337  47.740  0.00  0.00     0.210 HD
ENDBRANCH   8  13
ENDBRANCH   3   4
ENDBRANCH   2   3
BRANCH   2  15
HETATM   15  C   UNK N   1      38.774  48.891  45.672  0.00  0.00     0.142 C 
BRANCH  15  16
HETATM   16  C   UNK N   1      39.235  49.798  46.831  0.00  0.00     0.183 C 
BRANCH  16  17
HETATM   17  O   UNK N   1      38.258  50.759  47.121  0.00  0.00    -0.400 OA
HETATM   18  H   UNK N   1      38.543  51.201  47.965  0.00  0.00     0.209 HD
ENDBRANCH  16  17
ENDBRANCH  15  16
BRANCH  15  19
HETATM   19  C   UNK N   1      38.924  49.608  44.334  0.00  0.00    -0.043 A 
HETATM   20  C   UNK N   1      38.103  49.248  43.250  0.00  0.00     0.008 A 
HETATM   21  C   UNK N   1      38.236  49.897  42.017  0.00  0.00     0.001 A 
HETATM   22  C   UNK N   1      39.181  50.914  41.856  0.00  0.00     0.000 A 
HETATM   23  C   UNK N   1      39.995  51.287  42.925  0.00  0.00     0.001 A 
HETATM   24  C   UNK N   1      39.871  50.643  44.156  0.00  0.00     0.008 A 
ENDBRANCH  15  19
ENDBRANCH   2  15
TORSDOF 7
ENDMDL
MODEL 6
REMARK VINA RESULT:      -6.0      1.508      2.722
REMARK  7 active torsions:
REMARK  status: ('A' for Active; 'I' for Inactive)
REMARK    1  A    between atoms: C_2  and  O_3 
REMARK    2  A    between atoms: C_2  and  C_15 
REMARK    3  A    between atoms: O_3  and  C_4 
REMARK    4  A    between atoms: C_12  and  O_13 
REMARK    5  A    between atoms: C_15  and  C_16 
REMARK    6  A    between atoms: C_15  and  C_19 
REMARK    7  A    between atoms: C_16  and  O_17 
ROOT
HETATM    1  O   UNK N   1      41.272  42.594  48.851  0.00  0.00    -0.264 OA
HETATM    2  C   UNK N   1      41.383  43.811  48.860  0.00  0.00     0.270 C 
ENDROOT
BRANCH   2   3
HETATM    3  O   UNK N   1      42.309  44.429  48.084  0.00  0.00    -0.315 OA
BRANCH   3   4
HETATM    4  C   UNK N   1      42.104  45.606  47.390  0.00  0.00     0.136 C 
HETATM    5  C   UNK N   1      41.832  46.729  48.400  0.00  0.00     0.071 C 
HETATM    6  C   UNK N   1      41.358  48.023  47.686  0.00  0.00     0.254 C 
HETATM    7  N   UNK N   1      40.081  47.696  47.030  0.00  0.00     0.096 N 
HETATM    8  C   UNK N   1      42.291  48.468  46.539  0.00  0.00     0.153 C 
HETATM    9  C   UNK N   1      39.289  48.885  46.674  0.00  0.00     0.310 C 
HETATM   10  C   UNK N   1      40.539  46.922  45.865  0.00  0.00     0.228 C 
HETATM   11  C   UNK N   1      40.929  45.511  46.388  0.00  0.00     0.068 C 
HETATM   12  C   UNK N   1      41.761  47.686  45.315  0.00  0.00     0.069 C 
BRANCH   8  13
HETATM   13  O   UNK N   1      43.647  48.252  46.824  0.00  0.00    -0.393 OA
HETATM   14  H   UNK N   1      43.754  48.385  47.801  0.00  0.00     0.210 HD
ENDBRANCH   8  13
ENDBRANCH   3   4
ENDBRANCH   2   3
BRANCH   2  15
HETATM   15  C   UNK N   1      40.452  44.639  49.718  0.00  0.00     0.142 C 
BRANCH  15  16
HETATM   16  C   UNK N   1      38.973  44.351  49.389  0.00  0.00     0.183 C 
BRANCH  16  17
HETATM   17  O   UNK N   1      38.350  45.498  48.880  0.00  0.00    -0.400 OA
HETATM   18  H   UNK N   1      38.134  46.070  49.663  0.00  0.00     0.209 HD
ENDBRANCH  16  17
ENDBRANCH  15  16
BRANCH  15  19
HETATM   19  C   UNK N   1      40.729  44.407  51.199  0.00  0.00    -0.043 A 
HETATM   20  C   UNK N   1      39.985  43.449  51.911  0.00  0.00     0.008 A 
HETATM   21  C   UNK N   1      40.230  43.232  53.272  0.00  0.00     0.001 A 
HETATM   22  C   UNK N   1      41.222  43.961  53.933  0.00  0.00     0.000 A 
HETATM   23  C   UNK N   1      41.974  44.907  53.237  0.00  0.00     0.001 A 
HETATM   24  C   UNK N   1      41.734  45.131  51.882  0.00  0.00     0.008 A 
ENDBRANCH  15  19
ENDBRANCH   2  15
TORSDOF 7
ENDMDL
MODEL 7
REMARK VINA RESULT:      -5.9      2.162      6.293
REMARK  7 active torsions:
REMARK  status: ('A' for Active; 'I' for Inactive)
REMARK    1  A    between atoms: C_2  and  O_3 
REMARK    2  A    between atoms: C_2  and  C_15 
REMARK    3  A    between atoms: O_3  and  C_4 
REMARK    4  A    between atoms: C_12  and  O_13 
REMARK    5  A    between atoms: C_15  and  C_16 
REMARK    6  A    between atoms: C_15  and  C_19 
REMARK    7  A    between atoms: C_16  and  O_17 
ROOT
HETATM    1  O   UNK N   1      38.387  45.835  45.782  0.00  0.00    -0.264 OA
HETATM    2  C   UNK N   1      39.336  45.800  46.550  0.00  0.00     0.270 C 
ENDROOT
BRANCH   2   3
HETATM    3  O   UNK N   1      39.426  44.833  47.498  0.00  0.00    -0.315 OA
BRANCH   3   4
HETATM    4  C   UNK N   1      40.186  44.918  48.648  0.00  0.00     0.136 C 
HETATM    5  C   UNK N   1      41.367  43.946  48.528  0.00  0.00     0.071 C 
HETATM    6  C   UNK N   1      42.124  43.813  49.877  0.00  0.00     0.254 C 
HETATM    7  N   UNK N   1      41.170  43.237  50.838  0.00  0.00     0.096 N 
HETATM    8  C   UNK N   1      42.533  45.172  50.487  0.00  0.00     0.153 C 
HETATM    9  C   UNK N   1      41.820  42.655  52.025  0.00  0.00     0.310 C 
HETATM   10  C   UNK N   1      40.321  44.401  51.143  0.00  0.00     0.228 C 
HETATM   11  C   UNK N   1      39.374  44.597  49.926  0.00  0.00     0.068 C 
HETATM   12  C   UNK N   1      41.291  45.589  51.309  0.00  0.00     0.069 C 
BRANCH   8  13
HETATM   13  O   UNK N   1      42.931  46.107  49.520  0.00  0.00    -0.393 OA
HETATM   14  H   UNK N   1      43.817  45.808  49.188  0.00  0.00     0.210 HD
ENDBRANCH   8  13
ENDBRANCH   3   4
ENDBRANCH   2   3
BRANCH   2  15
HETATM   15  C   UNK N   1      40.444  46.823  46.416  0.00  0.00     0.142 C 
BRANCH  15  16
HETATM   16  C   UNK N   1      41.564  46.324  45.481  0.00  0.00     0.183 C 
BRANCH  16  17
HETATM   17  O   UNK N   1      41.253  45.055  44.975  0.00  0.00    -0.400 OA
HETATM   18  H   UNK N   1      40.559  44.676  45.577  0.00  0.00     0.209 HD
ENDBRANCH  16  17
ENDBRANCH  15  16
BRANCH  15  19
HETATM   19  C   UNK N   1      39.892  48.159  45.931  0.00  0.00    -0.043 A 
HETATM   20  C   UNK N   1      39.269  49.032  46.841  0.00  0.00     0.008 A 
HETATM   21  C   UNK N   1      38.755  50.258  46.404  0.00  0.00     0.001 A 
HETATM   22  C   UNK N   1      38.865  50.629  45.062  0.00  0.00     0.000 A 
HETATM   23  C   UNK N   1      39.489  49.777  44.151  0.00  0.00     0.001 A 
HETATM   24  C   UNK N   1      40.000  48.552  44.577  0.00  0.00     0.008 A 
ENDBRANCH  15  19
ENDBRANCH   2  15
TORSDOF 7
ENDMDL
MODEL 8
REMARK VINA RESULT:      -5.9     11.821     14.827
REMARK  7 active torsions:
REMARK  status: ('A' for Active; 'I' for Inactive)
REMARK    1  A    between atoms: C_2  and  O_3 
REMARK    2  A    between atoms: C_2  and  C_15 
REMARK    3  A    between atoms: O_3  and  C_4 
REMARK    4  A    between atoms: C_12  and  O_13 
REMARK    5  A    between atoms: C_15  and  C_16 
REMARK    6  A    between atoms: C_15  and  C_19 
REMARK    7  A    between atoms: C_16  and  O_17 
ROOT
HETATM    1  O   UNK N   1      31.134  54.547  45.530  0.00  0.00    -0.264 OA
HETATM    2  C   UNK N   1      31.503  54.867  44.409  0.00  0.00     0.270 C 
ENDROOT
BRANCH   2   3
HETATM    3  O   UNK N   1      30.711  55.624  43.609  0.00  0.00    -0.315 OA
BRANCH   3   4
HETATM    4  C   UNK N   1      30.075  55.174  42.468  0.00  0.00     0.136 C 
HETATM    5  C   UNK N   1      30.642  55.931  41.259  0.00  0.00     0.071 C 
HETATM    6  C   UNK N   1      29.808  55.651  39.981  0.00  0.00     0.254 C 
HETATM    7  N   UNK N   1      28.456  56.173  40.238  0.00  0.00     0.096 N 
HETATM    8  C   UNK N   1      29.605  54.146  39.698  0.00  0.00     0.153 C 
HETATM    9  C   UNK N   1      27.667  56.377  39.011  0.00  0.00     0.310 C 
HETATM   10  C   UNK N   1      27.905  55.137  41.127  0.00  0.00     0.228 C 
HETATM   11  C   UNK N   1      28.539  55.363  42.528  0.00  0.00     0.068 C 
HETATM   12  C   UNK N   1      28.340  53.790  40.512  0.00  0.00     0.069 C 
BRANCH   8  13
HETATM   13  O   UNK N   1      30.734  53.375  40.012  0.00  0.00    -0.393 OA
HETATM   14  H   UNK N   1      31.434  53.620  39.353  0.00  0.00     0.210 HD
ENDBRANCH   8  13
ENDBRANCH   3   4
ENDBRANCH   2   3
BRANCH   2  15
HETATM   15  C   UNK N   1      32.873  54.445  43.925  0.00  0.00     0.142 C 
BRANCH  15  16
HETATM   16  C   UNK N   1      33.993  55.150  44.716  0.00  0.00     0.183 C 
BRANCH  16  17
HETATM   17  O   UNK N   1      33.600  56.445  45.079  0.00  0.00    -0.400 OA
HETATM   18  H   UNK N   1      32.670  56.558  44.747  0.00  0.00     0.209 HD
ENDBRANCH  16  17
ENDBRANCH  15  16
BRANCH  15  19
HETATM   19  C   UNK N   1      33.032  52.931  43.999  0.00  0.00    -0.043 A 
HETATM   20  C   UNK N   1      34.021  52.368  44.824  0.00  0.00     0.008 A 
HETATM   21  C   UNK N   1      34.177  50.979  44.895  0.00  0.00     0.001 A 
HETATM   22  C   UNK N   1      33.344  50.139  44.150  0.00  0.00     0.000 A 
HETATM   23  C   UNK N   1      32.353  50.684  43.334  0.00  0.00     0.001 A 
HETATM   24  C   UNK N   1      32.193  52.066  43.256  0.00  0.00     0.008 A 
ENDBRANCH  15  19
ENDBRANCH   2  15
TORSDOF 7
ENDMDL
MODEL 9
REMARK VINA RESULT:      -5.9     11.640     14.702
REMARK  7 active torsions:
REMARK  status: ('A' for Active; 'I' for Inactive)
REMARK    1  A    between atoms: C_2  and  O_3 
REMARK    2  A    between atoms: C_2  and  C_15 
REMARK    3  A    between atoms: O_3  and  C_4 
REMARK    4  A    between atoms: C_12  and  O_13 
REMARK    5  A    between atoms: C_15  and  C_16 
REMARK    6  A    between atoms: C_15  and  C_19 
REMARK    7  A    between atoms: C_16  and  O_17 
ROOT
HETATM    1  O   UNK N   1      31.028  54.523  45.270  0.00  0.00    -0.264 OA
HETATM    2  C   UNK N   1      31.531  55.002  44.264  0.00  0.00     0.270 C 
ENDROOT
BRANCH   2   3
HETATM    3  O   UNK N   1      30.898  55.984  43.573  0.00  0.00    -0.315 OA
BRANCH   3   4
HETATM    4  C   UNK N   1      30.289  55.822  42.344  0.00  0.00     0.136 C 
HETATM    5  C   UNK N   1      29.501  54.504  42.357  0.00  0.00     0.071 C 
HETATM    6  C   UNK N   1      28.992  54.142  40.936  0.00  0.00     0.254 C 
HETATM    7  N   UNK N   1      30.186  53.938  40.101  0.00  0.00     0.096 N 
HETATM    8  C   UNK N   1      28.218  55.289  40.250  0.00  0.00     0.153 C 
HETATM    9  C   UNK N   1      29.911  53.187  38.865  0.00  0.00     0.310 C 
HETATM   10  C   UNK N   1      30.620  55.325  39.864  0.00  0.00     0.228 C 
HETATM   11  C   UNK N   1      31.301  55.813  41.173  0.00  0.00     0.068 C 
HETATM   12  C   UNK N   1      29.330  56.115  39.561  0.00  0.00     0.069 C 
BRANCH   8  13
HETATM   13  O   UNK N   1      27.421  56.020  41.143  0.00  0.00    -0.393 OA
HETATM   14  H   UNK N   1      26.496  55.985  40.787  0.00  0.00     0.210 HD
ENDBRANCH   8  13
ENDBRANCH   3   4
ENDBRANCH   2   3
BRANCH   2  15
HETATM   15  C   UNK N   1      32.892  54.523  43.809  0.00  0.00     0.142 C 
BRANCH  15  16
HETATM   16  C   UNK N   1      34.027  55.246  44.561  0.00  0.00     0.183 C 
BRANCH  16  17
HETATM   17  O   UNK N   1      33.572  56.463  45.085  0.00  0.00    -0.400 OA
HETATM   18  H   UNK N   1      34.377  56.943  45.416  0.00  0.00     0.209 HD
ENDBRANCH  16  17
ENDBRANCH  15  16
BRANCH  15  19
HETATM   19  C   UNK N   1      33.015  53.012  43.968  0.00  0.00    -0.043 A 
HETATM   20  C   UNK N   1      32.211  52.156  43.195  0.00  0.00     0.008 A 
HETATM   21  C   UNK N   1      32.314  50.768  43.338  0.00  0.00     0.001 A 
HETATM   22  C   UNK N   1      33.224  50.220  44.245  0.00  0.00     0.000 A 
HETATM   23  C   UNK N   1      34.035  51.056  45.012  0.00  0.00     0.001 A 
HETATM   24  C   UNK N   1      33.936  52.441  44.878  0.00  0.00     0.008 A 
ENDBRANCH  15  19
ENDBRANCH   2  15
TORSDOF 7
ENDMDL
