MODEL 1
REMARK VINA RESULT:      -7.9      0.000      0.000
REMARK  5 active torsions:
REMARK  status: ('A' for Active; 'I' for Inactive)
REMARK    1  A    between atoms: C_4  and  O_5 
REMARK    2  A    between atoms: C_7  and  O_8 
REMARK    3  A    between atoms: C_10  and  O_11 
REMARK    4  A    between atoms: C_16  and  C_18 
REMARK    5  A    between atoms: C_21  and  O_22 
ROOT
HETATM    1  O   UNK N   1      40.779  47.227  47.040  0.00  0.00    -0.287 OA
HETATM    2  C   UNK N   1      41.150  46.158  47.492  0.00  0.00     0.190 A 
HETATM    3  C   UNK N   1      41.571  45.107  46.646  0.00  0.00     0.084 A 
HETATM    4  C   UNK N   1      41.601  45.222  45.232  0.00  0.00     0.118 A 
HETATM    5  C   UNK N   1      42.084  44.132  44.453  0.00  0.00     0.133 A 
HETATM    6  C   UNK N   1      42.501  42.949  45.092  0.00  0.00     0.104 A 
HETATM    7  C   UNK N   1      42.438  42.840  46.479  0.00  0.00     0.077 A 
HETATM    8  C   UNK N   1      41.981  43.902  47.255  0.00  0.00     0.096 A 
HETATM    9  O   UNK N   1      41.946  43.763  48.576  0.00  0.00    -0.309 OA
HETATM   10  C   UNK N   1      41.573  44.737  49.403  0.00  0.00     0.090 A 
HETATM   11  C   UNK N   1      41.168  45.975  48.876  0.00  0.00     0.094 A 
ENDROOT
BRANCH  10  12
HETATM   12  C   UNK N   1      41.596  44.467  50.865  0.00  0.00    -0.002 A 
HETATM   13  C   UNK N   1      41.260  43.182  51.327  0.00  0.00     0.017 A 
HETATM   14  C   UNK N   1      41.266  42.893  52.693  0.00  0.00     0.037 A 
HETATM   15  C   UNK N   1      41.629  43.879  53.619  0.00  0.00     0.065 A 
HETATM   16  C   UNK N   1      41.979  45.157  53.170  0.00  0.00     0.037 A 
HETATM   17  C   UNK N   1      41.953  45.456  51.803  0.00  0.00     0.017 A 
BRANCH  15  18
HETATM   18  O   UNK N   1      41.647  43.609  54.939  0.00  0.00    -0.361 OA
HETATM   19  H   UNK N   1      41.795  44.304  55.598  0.00  0.00     0.217 HD
ENDBRANCH  15  18
ENDBRANCH  10  12
BRANCH   4  20
HETATM   20  O   UNK N   1      41.168  46.365  44.651  0.00  0.00    -0.357 OA
HETATM   21  H   UNK N   1      41.716  46.954  44.119  0.00  0.00     0.218 HD
ENDBRANCH   4  20
BRANCH   6  22
HETATM   22  O   UNK N   1      42.971  41.901  44.380  0.00  0.00    -0.358 OA
HETATM   23  H   UNK N   1      42.660  41.696  43.487  0.00  0.00     0.218 HD
ENDBRANCH   6  22
BRANCH   5  24
HETATM   24  O   UNK N   1      42.169  44.199  43.103  0.00  0.00    -0.356 OA
HETATM   25  H   UNK N   1      41.968  44.981  42.579  0.00  0.00     0.218 HD
ENDBRANCH   5  24
TORSDOF 5
ENDMDL
MODEL 2
REMARK VINA RESULT:      -7.5      2.884      3.386
REMARK  5 active torsions:
REMARK  status: ('A' for Active; 'I' for Inactive)
REMARK    1  A    between atoms: C_4  and  O_5 
REMARK    2  A    between atoms: C_7  and  O_8 
REMARK    3  A    between atoms: C_10  and  O_11 
REMARK    4  A    between atoms: C_16  and  C_18 
REMARK    5  A    between atoms: C_21  and  O_22 
ROOT
HETATM    1  O   UNK N   1      37.593  45.141  47.352  0.00  0.00    -0.287 OA
HETATM    2  C   UNK N   1      38.670  45.450  47.832  0.00  0.00     0.190 A 
HETATM    3  C   UNK N   1      39.547  46.334  47.165  0.00  0.00     0.084 A 
HETATM    4  C   UNK N   1      39.237  46.925  45.912  0.00  0.00     0.118 A 
HETATM    5  C   UNK N   1      40.156  47.844  45.327  0.00  0.00     0.133 A 
HETATM    6  C   UNK N   1      41.367  48.133  45.985  0.00  0.00     0.104 A 
HETATM    7  C   UNK N   1      41.670  47.523  47.200  0.00  0.00     0.077 A 
HETATM    8  C   UNK N   1      40.775  46.633  47.791  0.00  0.00     0.096 A 
HETATM    9  O   UNK N   1      41.096  46.079  48.955  0.00  0.00    -0.309 OA
HETATM   10  C   UNK N   1      40.288  45.257  49.620  0.00  0.00     0.090 A 
HETATM   11  C   UNK N   1      39.037  44.924  49.072  0.00  0.00     0.094 A 
ENDROOT
BRANCH  10  12
HETATM   12  C   UNK N   1      40.750  44.717  50.925  0.00  0.00    -0.002 A 
HETATM   13  C   UNK N   1      41.776  45.388  51.616  0.00  0.00     0.017 A 
HETATM   14  C   UNK N   1      42.239  44.907  52.842  0.00  0.00     0.037 A 
HETATM   15  C   UNK N   1      41.670  43.760  53.409  0.00  0.00     0.065 A 
HETATM   16  C   UNK N   1      40.640  43.093  52.738  0.00  0.00     0.037 A 
HETATM   17  C   UNK N   1      40.187  43.559  51.499  0.00  0.00     0.017 A 
BRANCH  15  18
HETATM   18  O   UNK N   1      42.104  43.293  54.597  0.00  0.00    -0.361 OA
HETATM   19  H   UNK N   1      42.976  43.529  54.947  0.00  0.00     0.217 HD
ENDBRANCH  15  18
ENDBRANCH  10  12
BRANCH   4  20
HETATM   20  O   UNK N   1      38.076  46.603  45.296  0.00  0.00    -0.357 OA
HETATM   21  H   UNK N   1      37.234  47.048  45.443  0.00  0.00     0.218 HD
ENDBRANCH   4  20
BRANCH   6  22
HETATM   22  O   UNK N   1      42.253  49.006  45.460  0.00  0.00    -0.358 OA
HETATM   23  H   UNK N   1      42.087  49.485  44.635  0.00  0.00     0.218 HD
ENDBRANCH   6  22
BRANCH   5  24
HETATM   24  O   UNK N   1      39.897  48.465  44.153  0.00  0.00    -0.356 OA
HETATM   25  H   UNK N   1      39.018  48.690  43.833  0.00  0.00     0.218 HD
ENDBRANCH   5  24
TORSDOF 5
ENDMDL
MODEL 3
REMARK VINA RESULT:      -7.2      2.962      3.363
REMARK  5 active torsions:
REMARK  status: ('A' for Active; 'I' for Inactive)
REMARK    1  A    between atoms: C_4  and  O_5 
REMARK    2  A    between atoms: C_7  and  O_8 
REMARK    3  A    between atoms: C_10  and  O_11 
REMARK    4  A    between atoms: C_16  and  C_18 
REMARK    5  A    between atoms: C_21  and  O_22 
ROOT
HETATM    1  O   UNK N   1      43.364  48.177  47.564  0.00  0.00    -0.287 OA
HETATM    2  C   UNK N   1      42.407  47.505  47.905  0.00  0.00     0.190 A 
HETATM    3  C   UNK N   1      41.237  47.436  47.116  0.00  0.00     0.084 A 
HETATM    4  C   UNK N   1      41.098  48.127  45.883  0.00  0.00     0.118 A 
HETATM    5  C   UNK N   1      39.903  47.967  45.125  0.00  0.00     0.133 A 
HETATM    6  C   UNK N   1      38.868  47.150  45.618  0.00  0.00     0.104 A 
HETATM    7  C   UNK N   1      39.006  46.503  46.843  0.00  0.00     0.077 A 
HETATM    8  C   UNK N   1      40.174  46.637  47.590  0.00  0.00     0.096 A 
HETATM    9  O   UNK N   1      40.273  45.995  48.749  0.00  0.00    -0.309 OA
HETATM   10  C   UNK N   1      41.366  46.023  49.508  0.00  0.00     0.090 A 
HETATM   11  C   UNK N   1      42.475  46.780  49.097  0.00  0.00     0.094 A 
ENDROOT
BRANCH  10  12
HETATM   12  C   UNK N   1      41.363  45.245  50.775  0.00  0.00    -0.002 A 
HETATM   13  C   UNK N   1      42.171  45.676  51.842  0.00  0.00     0.017 A 
HETATM   14  C   UNK N   1      42.198  44.968  53.045  0.00  0.00     0.037 A 
HETATM   15  C   UNK N   1      41.399  43.830  53.209  0.00  0.00     0.065 A 
HETATM   16  C   UNK N   1      40.579  43.400  52.160  0.00  0.00     0.037 A 
HETATM   17  C   UNK N   1      40.567  44.094  50.945  0.00  0.00     0.017 A 
BRANCH  15  18
HETATM   18  O   UNK N   1      41.410  43.144  54.370  0.00  0.00    -0.361 OA
HETATM   19  H   UNK N   1      42.237  42.835  54.770  0.00  0.00     0.217 HD
ENDBRANCH  15  18
ENDBRANCH  10  12
BRANCH   4  20
HETATM   20  O   UNK N   1      42.103  48.924  45.455  0.00  0.00    -0.357 OA
HETATM   21  H   UNK N   1      42.484  49.650  45.963  0.00  0.00     0.218 HD
ENDBRANCH   4  20
BRANCH   6  22
HETATM   22  O   UNK N   1      37.727  46.974  44.917  0.00  0.00    -0.358 OA
HETATM   23  H   UNK N   1      37.654  46.337  44.192  0.00  0.00     0.218 HD
ENDBRANCH   6  22
BRANCH   5  24
HETATM   24  O   UNK N   1      39.730  48.572  43.926  0.00  0.00    -0.356 OA
HETATM   25  H   UNK N   1      40.430  49.000  43.422  0.00  0.00     0.218 HD
ENDBRANCH   5  24
TORSDOF 5
ENDMDL
MODEL 4
REMARK VINA RESULT:      -7.0      3.642      7.743
REMARK  5 active torsions:
REMARK  status: ('A' for Active; 'I' for Inactive)
REMARK    1  A    between atoms: C_4  and  O_5 
REMARK    2  A    between atoms: C_7  and  O_8 
REMARK    3  A    between atoms: C_10  and  O_11 
REMARK    4  A    between atoms: C_16  and  C_18 
REMARK    5  A    between atoms: C_21  and  O_22 
ROOT
HETATM    1  O   UNK N   1      37.900  44.998  47.371  0.00  0.00    -0.287 OA
HETATM    2  C   UNK N   1      38.762  45.844  47.209  0.00  0.00     0.190 A 
HETATM    3  C   UNK N   1      39.896  45.910  48.050  0.00  0.00     0.084 A 
HETATM    4  C   UNK N   1      40.114  45.004  49.121  0.00  0.00     0.118 A 
HETATM    5  C   UNK N   1      41.306  45.109  49.892  0.00  0.00     0.133 A 
HETATM    6  C   UNK N   1      42.239  46.123  49.601  0.00  0.00     0.104 A 
HETATM    7  C   UNK N   1      41.997  47.023  48.566  0.00  0.00     0.077 A 
HETATM    8  C   UNK N   1      40.843  46.924  47.793  0.00  0.00     0.096 A 
HETATM    9  O   UNK N   1      40.653  47.796  46.808  0.00  0.00    -0.309 OA
HETATM   10  C   UNK N   1      39.607  47.752  45.986  0.00  0.00     0.090 A 
HETATM   11  C   UNK N   1      38.629  46.760  46.164  0.00  0.00     0.094 A 
ENDROOT
BRANCH  10  12
HETATM   12  C   UNK N   1      39.516  48.770  44.907  0.00  0.00    -0.002 A 
HETATM   13  C   UNK N   1      40.414  49.853  44.913  0.00  0.00     0.017 A 
HETATM   14  C   UNK N   1      40.356  50.832  43.919  0.00  0.00     0.037 A 
HETATM   15  C   UNK N   1      39.413  50.732  42.888  0.00  0.00     0.065 A 
HETATM   16  C   UNK N   1      38.524  49.652  42.863  0.00  0.00     0.037 A 
HETATM   17  C   UNK N   1      38.565  48.681  43.871  0.00  0.00     0.017 A 
BRANCH  15  18
HETATM   18  O   UNK N   1      39.354  51.666  41.918  0.00  0.00    -0.361 OA
HETATM   19  H   UNK N   1      40.033  51.727  41.230  0.00  0.00     0.217 HD
ENDBRANCH  15  18
ENDBRANCH  10  12
BRANCH   4  20
HETATM   20  O   UNK N   1      39.183  44.059  49.389  0.00  0.00    -0.357 OA
HETATM   21  H   UNK N   1      39.376  43.179  49.731  0.00  0.00     0.218 HD
ENDBRANCH   4  20
BRANCH   6  22
HETATM   22  O   UNK N   1      43.383  46.242  50.310  0.00  0.00    -0.358 OA
HETATM   23  H   UNK N   1      43.717  47.096  50.620  0.00  0.00     0.218 HD
ENDBRANCH   6  22
BRANCH   5  24
HETATM   24  O   UNK N   1      41.584  44.250  50.902  0.00  0.00    -0.356 OA
HETATM   25  H   UNK N   1      40.926  43.741  51.385  0.00  0.00     0.218 HD
ENDBRANCH   5  24
TORSDOF 5
ENDMDL
MODEL 5
REMARK VINA RESULT:      -6.9      3.142      6.742
REMARK  5 active torsions:
REMARK  status: ('A' for Active; 'I' for Inactive)
REMARK    1  A    between atoms: C_4  and  O_5 
REMARK    2  A    between atoms: C_7  and  O_8 
REMARK    3  A    between atoms: C_10  and  O_11 
REMARK    4  A    between atoms: C_16  and  C_18 
REMARK    5  A    between atoms: C_21  and  O_22 
ROOT
HETATM    1  O   UNK N   1      40.485  45.563  48.831  0.00  0.00    -0.287 OA
HETATM    2  C   UNK N   1      40.708  45.727  47.644  0.00  0.00     0.190 A 
HETATM    3  C   UNK N   1      41.350  44.733  46.872  0.00  0.00     0.084 A 
HETATM    4  C   UNK N   1      41.767  43.488  47.412  0.00  0.00     0.118 A 
HETATM    5  C   UNK N   1      42.365  42.521  46.554  0.00  0.00     0.133 A 
HETATM    6  C   UNK N   1      42.558  42.820  45.192  0.00  0.00     0.104 A 
HETATM    7  C   UNK N   1      42.172  44.057  44.683  0.00  0.00     0.077 A 
HETATM    8  C   UNK N   1      41.572  45.008  45.506  0.00  0.00     0.096 A 
HETATM    9  O   UNK N   1      41.207  46.173  44.980  0.00  0.00    -0.309 OA
HETATM   10  C   UNK N   1      40.584  47.123  45.673  0.00  0.00     0.090 A 
HETATM   11  C   UNK N   1      40.310  46.918  47.036  0.00  0.00     0.094 A 
ENDROOT
BRANCH  10  12
HETATM   12  C   UNK N   1      40.207  48.376  44.968  0.00  0.00    -0.002 A 
HETATM   13  C   UNK N   1      41.119  49.447  44.944  0.00  0.00     0.017 A 
HETATM   14  C   UNK N   1      40.797  50.641  44.295  0.00  0.00     0.037 A 
HETATM   15  C   UNK N   1      39.567  50.776  43.641  0.00  0.00     0.065 A 
HETATM   16  C   UNK N   1      38.657  49.714  43.646  0.00  0.00     0.037 A 
HETATM   17  C   UNK N   1      38.967  48.523  44.314  0.00  0.00     0.017 A 
BRANCH  15  18
HETATM   18  O   UNK N   1      39.250  51.922  43.004  0.00  0.00    -0.361 OA
HETATM   19  H   UNK N   1      39.826  52.700  43.042  0.00  0.00     0.217 HD
ENDBRANCH  15  18
ENDBRANCH  10  12
BRANCH   4  20
HETATM   20  O   UNK N   1      41.589  43.246  48.731  0.00  0.00    -0.357 OA
HETATM   21  H   UNK N   1      41.500  43.927  49.407  0.00  0.00     0.218 HD
ENDBRANCH   4  20
BRANCH   6  22
HETATM   22  O   UNK N   1      43.116  41.920  44.353  0.00  0.00    -0.358 OA
HETATM   23  H   UNK N   1      43.992  42.044  43.962  0.00  0.00     0.218 HD
ENDBRANCH   6  22
BRANCH   5  24
HETATM   24  O   UNK N   1      42.749  41.303  47.006  0.00  0.00    -0.356 OA
HETATM   25  H   UNK N   1      42.215  40.504  46.949  0.00  0.00     0.218 HD
ENDBRANCH   5  24
TORSDOF 5
ENDMDL
MODEL 6
REMARK VINA RESULT:      -6.7      3.822      7.852
REMARK  5 active torsions:
REMARK  status: ('A' for Active; 'I' for Inactive)
REMARK    1  A    between atoms: C_4  and  O_5 
REMARK    2  A    between atoms: C_7  and  O_8 
REMARK    3  A    between atoms: C_10  and  O_11 
REMARK    4  A    between atoms: C_16  and  C_18 
REMARK    5  A    between atoms: C_21  and  O_22 
ROOT
HETATM    1  O   UNK N   1      43.245  47.903  47.810  0.00  0.00    -0.287 OA
HETATM    2  C   UNK N   1      42.131  47.777  47.333  0.00  0.00     0.190 A 
HETATM    3  C   UNK N   1      41.218  46.824  47.837  0.00  0.00     0.084 A 
HETATM    4  C   UNK N   1      41.524  45.965  48.925  0.00  0.00     0.118 A 
HETATM    5  C   UNK N   1      40.530  45.064  49.404  0.00  0.00     0.133 A 
HETATM    6  C   UNK N   1      39.270  45.018  48.778  0.00  0.00     0.104 A 
HETATM    7  C   UNK N   1      38.995  45.846  47.692  0.00  0.00     0.077 A 
HETATM    8  C   UNK N   1      39.951  46.743  47.222  0.00  0.00     0.096 A 
HETATM    9  O   UNK N   1      39.646  47.523  46.190  0.00  0.00    -0.309 OA
HETATM   10  C   UNK N   1      40.474  48.444  45.702  0.00  0.00     0.090 A 
HETATM   11  C   UNK N   1      41.748  48.600  46.272  0.00  0.00     0.094 A 
ENDROOT
BRANCH  10  12
HETATM   12  C   UNK N   1      40.011  49.272  44.558  0.00  0.00    -0.002 A 
HETATM   13  C   UNK N   1      38.976  48.785  43.738  0.00  0.00     0.017 A 
HETATM   14  C   UNK N   1      38.519  49.533  42.651  0.00  0.00     0.037 A 
HETATM   15  C   UNK N   1      39.072  50.790  42.380  0.00  0.00     0.065 A 
HETATM   16  C   UNK N   1      40.091  51.291  43.196  0.00  0.00     0.037 A 
HETATM   17  C   UNK N   1      40.568  50.535  44.273  0.00  0.00     0.017 A 
BRANCH  15  18
HETATM   18  O   UNK N   1      38.631  51.525  41.338  0.00  0.00    -0.361 OA
HETATM   19  H   UNK N   1      38.856  51.296  40.424  0.00  0.00     0.217 HD
ENDBRANCH  15  18
ENDBRANCH  10  12
BRANCH   4  20
HETATM   20  O   UNK N   1      42.755  46.018  49.484  0.00  0.00    -0.357 OA
HETATM   21  H   UNK N   1      43.574  46.160  48.996  0.00  0.00     0.218 HD
ENDBRANCH   4  20
BRANCH   6  22
HETATM   22  O   UNK N   1      38.305  44.180  49.215  0.00  0.00    -0.358 OA
HETATM   23  H   UNK N   1      37.367  44.418  49.212  0.00  0.00     0.218 HD
ENDBRANCH   6  22
BRANCH   5  24
HETATM   24  O   UNK N   1      40.754  44.247  50.460  0.00  0.00    -0.356 OA
HETATM   25  H   UNK N   1      41.619  44.069  50.842  0.00  0.00     0.218 HD
ENDBRANCH   5  24
TORSDOF 5
ENDMDL
MODEL 7
REMARK VINA RESULT:      -6.2      1.622      3.368
REMARK  5 active torsions:
REMARK  status: ('A' for Active; 'I' for Inactive)
REMARK    1  A    between atoms: C_4  and  O_5 
REMARK    2  A    between atoms: C_7  and  O_8 
REMARK    3  A    between atoms: C_10  and  O_11 
REMARK    4  A    between atoms: C_16  and  C_18 
REMARK    5  A    between atoms: C_21  and  O_22 
ROOT
HETATM    1  O   UNK N   1      42.030  44.084  46.226  0.00  0.00    -0.287 OA
HETATM    2  C   UNK N   1      41.588  44.774  47.127  0.00  0.00     0.190 A 
HETATM    3  C   UNK N   1      40.949  46.007  46.865  0.00  0.00     0.084 A 
HETATM    4  C   UNK N   1      40.771  46.518  45.553  0.00  0.00     0.118 A 
HETATM    5  C   UNK N   1      40.074  47.747  45.371  0.00  0.00     0.133 A 
HETATM    6  C   UNK N   1      39.595  48.450  46.493  0.00  0.00     0.104 A 
HETATM    7  C   UNK N   1      39.803  47.951  47.776  0.00  0.00     0.077 A 
HETATM    8  C   UNK N   1      40.470  46.743  47.970  0.00  0.00     0.096 A 
HETATM    9  O   UNK N   1      40.640  46.296  49.209  0.00  0.00    -0.309 OA
HETATM   10  C   UNK N   1      41.220  45.131  49.491  0.00  0.00     0.090 A 
HETATM   11  C   UNK N   1      41.707  44.329  48.446  0.00  0.00     0.094 A 
ENDROOT
BRANCH  10  12
HETATM   12  C   UNK N   1      41.333  44.728  50.918  0.00  0.00    -0.002 A 
HETATM   13  C   UNK N   1      40.743  43.522  51.335  0.00  0.00     0.017 A 
HETATM   14  C   UNK N   1      40.824  43.114  52.668  0.00  0.00     0.037 A 
HETATM   15  C   UNK N   1      41.518  43.894  53.601  0.00  0.00     0.065 A 
HETATM   16  C   UNK N   1      42.121  45.088  53.195  0.00  0.00     0.037 A 
HETATM   17  C   UNK N   1      42.023  45.512  51.865  0.00  0.00     0.017 A 
BRANCH  15  18
HETATM   18  O   UNK N   1      41.610  43.505  54.889  0.00  0.00    -0.361 OA
HETATM   19  H   UNK N   1      42.465  43.447  55.342  0.00  0.00     0.217 HD
ENDBRANCH  15  18
ENDBRANCH  10  12
BRANCH   4  20
HETATM   20  O   UNK N   1      41.269  45.828  44.501  0.00  0.00    -0.357 OA
HETATM   21  H   UNK N   1      41.418  46.198  43.623  0.00  0.00     0.218 HD
ENDBRANCH   4  20
BRANCH   6  22
HETATM   22  O   UNK N   1      38.923  49.613  46.351  0.00  0.00    -0.358 OA
HETATM   23  H   UNK N   1      37.971  49.688  46.507  0.00  0.00     0.218 HD
ENDBRANCH   6  22
BRANCH   5  24
HETATM   24  O   UNK N   1      39.843  48.264  44.141  0.00  0.00    -0.356 OA
HETATM   25  H   UNK N   1      40.226  49.082  43.810  0.00  0.00     0.218 HD
ENDBRANCH   5  24
TORSDOF 5
ENDMDL
MODEL 8
REMARK VINA RESULT:      -5.6     15.882     17.830
REMARK  5 active torsions:
REMARK  status: ('A' for Active; 'I' for Inactive)
REMARK    1  A    between atoms: C_4  and  O_5 
REMARK    2  A    between atoms: C_7  and  O_8 
REMARK    3  A    between atoms: C_10  and  O_11 
REMARK    4  A    between atoms: C_16  and  C_18 
REMARK    5  A    between atoms: C_21  and  O_22 
ROOT
HETATM    1  O   UNK N   1      26.014  55.793  42.364  0.00  0.00    -0.287 OA
HETATM    2  C   UNK N   1      27.011  55.149  42.090  0.00  0.00     0.190 A 
HETATM    3  C   UNK N   1      27.015  54.213  41.031  0.00  0.00     0.084 A 
HETATM    4  C   UNK N   1      25.878  53.967  40.217  0.00  0.00     0.118 A 
HETATM    5  C   UNK N   1      25.979  53.041  39.139  0.00  0.00     0.133 A 
HETATM    6  C   UNK N   1      27.193  52.366  38.911  0.00  0.00     0.104 A 
HETATM    7  C   UNK N   1      28.290  52.595  39.736  0.00  0.00     0.077 A 
HETATM    8  C   UNK N   1      28.212  53.508  40.785  0.00  0.00     0.096 A 
HETATM    9  O   UNK N   1      29.285  53.707  41.544  0.00  0.00    -0.309 OA
HETATM   10  C   UNK N   1      29.322  54.593  42.537  0.00  0.00     0.090 A 
HETATM   11  C   UNK N   1      28.176  55.349  42.833  0.00  0.00     0.094 A 
ENDROOT
BRANCH  10  12
HETATM   12  C   UNK N   1      30.589  54.740  43.302  0.00  0.00    -0.002 A 
HETATM   13  C   UNK N   1      30.612  54.378  44.661  0.00  0.00     0.017 A 
HETATM   14  C   UNK N   1      31.782  54.508  45.412  0.00  0.00     0.037 A 
HETATM   15  C   UNK N   1      32.955  54.981  44.810  0.00  0.00     0.065 A 
HETATM   16  C   UNK N   1      32.948  55.329  43.456  0.00  0.00     0.037 A 
HETATM   17  C   UNK N   1      31.771  55.222  42.705  0.00  0.00     0.017 A 
BRANCH  15  18
HETATM   18  O   UNK N   1      34.092  55.101  45.524  0.00  0.00    -0.361 OA
HETATM   19  H   UNK N   1      34.454  54.359  46.032  0.00  0.00     0.217 HD
ENDBRANCH  15  18
ENDBRANCH  10  12
BRANCH   4  20
HETATM   20  O   UNK N   1      24.721  54.615  40.483  0.00  0.00    -0.357 OA
HETATM   21  H   UNK N   1      24.009  54.266  41.032  0.00  0.00     0.218 HD
ENDBRANCH   4  20
BRANCH   6  22
HETATM   22  O   UNK N   1      27.320  51.488  37.891  0.00  0.00    -0.358 OA
HETATM   23  H   UNK N   1      27.156  50.540  37.996  0.00  0.00     0.218 HD
ENDBRANCH   6  22
BRANCH   5  24
HETATM   24  O   UNK N   1      24.939  52.794  38.308  0.00  0.00    -0.356 OA
HETATM   25  H   UNK N   1      24.087  53.242  38.348  0.00  0.00     0.218 HD
ENDBRANCH   5  24
TORSDOF 5
ENDMDL
MODEL 9
REMARK VINA RESULT:      -5.5     15.917     17.904
REMARK  5 active torsions:
REMARK  status: ('A' for Active; 'I' for Inactive)
REMARK    1  A    between atoms: C_4  and  O_5 
REMARK    2  A    between atoms: C_7  and  O_8 
REMARK    3  A    between atoms: C_10  and  O_11 
REMARK    4  A    between atoms: C_16  and  C_18 
REMARK    5  A    between atoms: C_21  and  O_22 
ROOT
HETATM    1  O   UNK N   1      29.229  57.989  40.858  0.00  0.00    -0.287 OA
HETATM    2  C   UNK N   1      29.160  56.830  41.229  0.00  0.00     0.190 A 
HETATM    3  C   UNK N   1      28.057  56.014  40.890  0.00  0.00     0.084 A 
HETATM    4  C   UNK N   1      26.973  56.474  40.098  0.00  0.00     0.118 A 
HETATM    5  C   UNK N   1      25.922  55.573  39.762  0.00  0.00     0.133 A 
HETATM    6  C   UNK N   1      25.959  54.249  40.239  0.00  0.00     0.104 A 
HETATM    7  C   UNK N   1      27.015  53.820  41.040  0.00  0.00     0.077 A 
HETATM    8  C   UNK N   1      28.057  54.685  41.365  0.00  0.00     0.096 A 
HETATM    9  O   UNK N   1      29.051  54.235  42.123  0.00  0.00    -0.309 OA
HETATM   10  C   UNK N   1      30.113  54.970  42.446  0.00  0.00     0.090 A 
HETATM   11  C   UNK N   1      30.198  56.298  41.996  0.00  0.00     0.094 A 
ENDROOT
BRANCH  10  12
HETATM   12  C   UNK N   1      31.172  54.348  43.283  0.00  0.00    -0.002 A 
HETATM   13  C   UNK N   1      31.449  52.978  43.126  0.00  0.00     0.017 A 
HETATM   14  C   UNK N   1      32.434  52.358  43.899  0.00  0.00     0.037 A 
HETATM   15  C   UNK N   1      33.173  53.103  44.825  0.00  0.00     0.065 A 
HETATM   16  C   UNK N   1      32.917  54.469  44.980  0.00  0.00     0.037 A 
HETATM   17  C   UNK N   1      31.916  55.089  44.224  0.00  0.00     0.017 A 
BRANCH  15  18
HETATM   18  O   UNK N   1      34.132  52.517  45.570  0.00  0.00    -0.361 OA
HETATM   19  H   UNK N   1      33.942  51.748  46.129  0.00  0.00     0.217 HD
ENDBRANCH  15  18
ENDBRANCH  10  12
BRANCH   4  20
HETATM   20  O   UNK N   1      26.958  57.761  39.680  0.00  0.00    -0.357 OA
HETATM   21  H   UNK N   1      27.059  58.527  40.256  0.00  0.00     0.218 HD
ENDBRANCH   4  20
BRANCH   6  22
HETATM   22  O   UNK N   1      24.982  53.369  39.930  0.00  0.00    -0.358 OA
HETATM   23  H   UNK N   1      24.043  53.570  40.051  0.00  0.00     0.218 HD
ENDBRANCH   6  22
BRANCH   5  24
HETATM   24  O   UNK N   1      24.882  55.946  38.980  0.00  0.00    -0.356 OA
HETATM   25  H   UNK N   1      24.881  56.712  38.397  0.00  0.00     0.218 HD
ENDBRANCH   5  24
TORSDOF 5
ENDMDL
