MODEL 1
REMARK VINA RESULT:      -5.2      0.000      0.000
REMARK  6 active torsions:
REMARK  status: ('A' for Active; 'I' for Inactive)
REMARK    1  A    between atoms: C_5  and  C_13 
REMARK    2  A    between atoms: C_6  and  C_7 
REMARK    3  A    between atoms: C_7  and  O_8 
REMARK    4  A    between atoms: C_14  and  C_15 
REMARK    5  A    between atoms: C_15  and  O_17 
REMARK    6  A    between atoms: C_25  and  C_30 
ROOT
HETATM    1  C   UNK N   1      28.681  41.626  56.666  0.00  0.00     0.019 C 
HETATM    2  C   UNK N   1      27.668  40.374  56.917  0.00  0.00     0.084 C 
HETATM    3  C   UNK N   1      27.297  39.756  55.507  0.00  0.00     0.124 A 
HETATM    4  O   UNK N   1      26.448  38.631  55.660  0.00  0.00    -0.356 OA
HETATM    5  C   UNK N   1      25.858  39.704  54.998  0.00  0.00     0.259 A 
HETATM    6  C   UNK N   1      25.705  39.385  53.532  0.00  0.00     0.291 C 
HETATM    7  O   UNK N   1      24.595  39.187  53.070  0.00  0.00    -0.262 OA
HETATM    8  O   UNK N   1      26.790  39.337  52.714  0.00  0.00    -0.308 OA
HETATM    9  C   UNK N   1      28.006  39.900  53.065  0.00  0.00     0.178 C 
HETATM   10  C   UNK N   1      28.435  39.397  54.485  0.00  0.00     0.023 C 
HETATM   11  C   UNK N   1      29.793  39.984  54.947  0.00  0.00     0.016 C 
HETATM   12  C   UNK N   1      29.728  41.398  55.510  0.00  0.00     0.008 C 
HETATM   13  C   UNK N   1      28.659  37.858  54.379  0.00  0.00     0.021 C 
HETATM   14  C   UNK N   1      28.225  39.213  57.802  0.00  0.00     0.030 C 
ENDROOT
BRANCH   1  15
HETATM   15  C   UNK N   1      29.223  42.543  57.894  0.00  0.00    -0.015 C 
HETATM   16  C   UNK N   1      30.658  42.068  58.147  0.00  0.00    -0.013 C 
HETATM   17  C   UNK N   1      31.745  42.833  58.052  0.00  0.00     0.048 C 
HETATM   18  C   UNK N   1      31.634  44.254  57.759  0.00  0.00     0.157 C 
HETATM   19  O   UNK N   1      32.602  44.849  57.306  0.00  0.00    -0.292 OA
HETATM   20  C   UNK N   1      30.355  44.981  58.134  0.00  0.00     0.024 C 
HETATM   21  C   UNK N   1      29.121  44.133  57.602  0.00  0.00     0.037 C 
HETATM   22  C   UNK N   1      30.402  46.409  57.519  0.00  0.00     0.024 C 
HETATM   23  C   UNK N   1      30.363  45.139  59.671  0.00  0.00     0.024 C 
HETATM   24  C   UNK N   1      28.475  42.169  59.210  0.00  0.00     0.020 C 
BRANCH  21  25
HETATM   25  C   UNK N   1      27.737  44.775  57.950  0.00  0.00     0.170 C 
BRANCH  25  26
HETATM   26  O   UNK N   1      26.878  44.830  56.844  0.00  0.00    -0.400 OA
HETATM   27  H   UNK N   1      25.951  44.766  57.199  0.00  0.00     0.209 HD
ENDBRANCH  25  26
ENDBRANCH  21  25
ENDBRANCH   1  15
BRANCH   2  28
HETATM   28  C   UNK N   1      26.384  40.876  57.603  0.00  0.00     0.270 C 
HETATM   29  O   UNK N   1      25.875  40.213  58.499  0.00  0.00    -0.264 OA
BRANCH  28  30
HETATM   30  O   UNK N   1      25.801  42.042  57.209  0.00  0.00    -0.326 OA
HETATM   31  C   UNK N   1      24.461  42.323  57.367  0.00  0.00     0.213 C 
ENDBRANCH  28  30
ENDBRANCH   2  28
BRANCH   9  32
HETATM   32  C   UNK N   1      27.928  41.408  52.881  0.00  0.00    -0.004 A 
HETATM   33  C   UNK N   1      27.032  42.310  53.434  0.00  0.00     0.151 A 
HETATM   34  O   UNK N   1      27.320  43.519  53.009  0.00  0.00    -0.334 OA
HETATM   35  C   UNK N   1      28.356  43.460  52.203  0.00  0.00     0.142 A 
HETATM   36  C   UNK N   1      28.774  42.153  52.087  0.00  0.00     0.036 A 
ENDBRANCH   9  32
TORSDOF 6
ENDMDL
MODEL 2
REMARK VINA RESULT:      -4.5      2.235      6.528
REMARK  6 active torsions:
REMARK  status: ('A' for Active; 'I' for Inactive)
REMARK    1  A    between atoms: C_5  and  C_13 
REMARK    2  A    between atoms: C_6  and  C_7 
REMARK    3  A    between atoms: C_7  and  O_8 
REMARK    4  A    between atoms: C_14  and  C_15 
REMARK    5  A    between atoms: C_15  and  O_17 
REMARK    6  A    between atoms: C_25  and  C_30 
ROOT
HETATM    1  C   UNK N   1      28.279  42.039  57.223  0.00  0.00     0.019 C 
HETATM    2  C   UNK N   1      28.097  41.201  58.608  0.00  0.00     0.084 C 
HETATM    3  C   UNK N   1      28.766  42.036  59.776  0.00  0.00     0.124 A 
HETATM    4  O   UNK N   1      28.605  41.378  61.021  0.00  0.00    -0.356 OA
HETATM    5  C   UNK N   1      29.927  41.487  60.603  0.00  0.00     0.259 A 
HETATM    6  C   UNK N   1      30.654  42.503  61.447  0.00  0.00     0.291 C 
HETATM    7  O   UNK N   1      31.501  42.134  62.241  0.00  0.00    -0.262 OA
HETATM    8  O   UNK N   1      30.390  43.831  61.318  0.00  0.00    -0.308 OA
HETATM    9  C   UNK N   1      29.737  44.350  60.212  0.00  0.00     0.178 C 
HETATM   10  C   UNK N   1      28.411  43.555  59.956  0.00  0.00     0.023 C 
HETATM   11  C   UNK N   1      27.621  44.083  58.732  0.00  0.00     0.016 C 
HETATM   12  C   UNK N   1      28.126  43.600  57.378  0.00  0.00     0.008 C 
HETATM   13  C   UNK N   1      27.486  43.796  61.187  0.00  0.00     0.021 C 
HETATM   14  C   UNK N   1      26.624  40.903  59.037  0.00  0.00     0.030 C 
ENDROOT
BRANCH   1  15
HETATM   15  C   UNK N   1      27.764  41.450  55.797  0.00  0.00    -0.015 C 
HETATM   16  C   UNK N   1      26.354  42.022  55.613  0.00  0.00    -0.013 C 
HETATM   17  C   UNK N   1      25.972  42.805  54.604  0.00  0.00     0.048 C 
HETATM   18  C   UNK N   1      26.889  43.126  53.520  0.00  0.00     0.157 C 
HETATM   19  O   UNK N   1      26.676  44.113  52.830  0.00  0.00    -0.292 OA
HETATM   20  C   UNK N   1      28.018  42.162  53.206  0.00  0.00     0.024 C 
HETATM   21  C   UNK N   1      28.757  41.794  54.565  0.00  0.00     0.037 C 
HETATM   22  C   UNK N   1      28.970  42.836  52.178  0.00  0.00     0.024 C 
HETATM   23  C   UNK N   1      27.382  40.936  52.514  0.00  0.00     0.024 C 
HETATM   24  C   UNK N   1      27.526  39.914  55.910  0.00  0.00     0.020 C 
BRANCH  21  25
HETATM   25  C   UNK N   1      29.935  40.782  54.371  0.00  0.00     0.170 C 
BRANCH  25  26
HETATM   26  O   UNK N   1      31.189  41.406  54.405  0.00  0.00    -0.400 OA
HETATM   27  H   UNK N   1      31.778  40.897  53.785  0.00  0.00     0.209 HD
ENDBRANCH  25  26
ENDBRANCH  21  25
ENDBRANCH   1  15
BRANCH   2  28
HETATM   28  C   UNK N   1      28.807  39.840  58.489  0.00  0.00     0.270 C 
HETATM   29  O   UNK N   1      29.896  39.771  57.929  0.00  0.00    -0.264 OA
BRANCH  28  30
HETATM   30  O   UNK N   1      28.228  38.713  58.986  0.00  0.00    -0.326 OA
HETATM   31  C   UNK N   1      28.642  37.435  58.676  0.00  0.00     0.213 C 
ENDBRANCH  28  30
ENDBRANCH   2  28
BRANCH   9  32
HETATM   32  C   UNK N   1      30.712  44.425  59.046  0.00  0.00    -0.004 A 
HETATM   33  C   UNK N   1      31.614  43.472  58.601  0.00  0.00     0.151 A 
HETATM   34  O   UNK N   1      32.267  43.947  57.564  0.00  0.00    -0.334 OA
HETATM   35  C   UNK N   1      31.844  45.165  57.307  0.00  0.00     0.142 A 
HETATM   36  C   UNK N   1      30.867  45.513  58.214  0.00  0.00     0.036 A 
ENDBRANCH   9  32
TORSDOF 6
ENDMDL
MODEL 3
REMARK VINA RESULT:      -4.4      1.271      2.255
REMARK  6 active torsions:
REMARK  status: ('A' for Active; 'I' for Inactive)
REMARK    1  A    between atoms: C_5  and  C_13 
REMARK    2  A    between atoms: C_6  and  C_7 
REMARK    3  A    between atoms: C_7  and  O_8 
REMARK    4  A    between atoms: C_14  and  C_15 
REMARK    5  A    between atoms: C_15  and  O_17 
REMARK    6  A    between atoms: C_25  and  C_30 
ROOT
HETATM    1  C   UNK N   1      28.888  41.574  56.585  0.00  0.00     0.019 C 
HETATM    2  C   UNK N   1      27.878  40.329  56.878  0.00  0.00     0.084 C 
HETATM    3  C   UNK N   1      27.474  39.690  55.486  0.00  0.00     0.124 A 
HETATM    4  O   UNK N   1      26.626  38.570  55.674  0.00  0.00    -0.356 OA
HETATM    5  C   UNK N   1      26.024  39.634  55.009  0.00  0.00     0.259 A 
HETATM    6  C   UNK N   1      25.837  39.294  53.552  0.00  0.00     0.291 C 
HETATM    7  O   UNK N   1      24.717  39.092  53.118  0.00  0.00    -0.262 OA
HETATM    8  O   UNK N   1      26.904  39.231  52.711  0.00  0.00    -0.308 OA
HETATM    9  C   UNK N   1      28.129  39.797  53.026  0.00  0.00     0.178 C 
HETATM   10  C   UNK N   1      28.588  39.313  54.444  0.00  0.00     0.023 C 
HETATM   11  C   UNK N   1      29.957  39.904  54.867  0.00  0.00     0.016 C 
HETATM   12  C   UNK N   1      29.908  41.327  55.410  0.00  0.00     0.008 C 
HETATM   13  C   UNK N   1      28.806  37.772  54.356  0.00  0.00     0.021 C 
HETATM   14  C   UNK N   1      28.452  39.180  57.767  0.00  0.00     0.030 C 
ENDROOT
BRANCH   1  15
HETATM   15  C   UNK N   1      29.459  42.508  57.787  0.00  0.00    -0.015 C 
HETATM   16  C   UNK N   1      28.904  41.888  59.075  0.00  0.00    -0.013 C 
HETATM   17  C   UNK N   1      29.645  41.408  60.073  0.00  0.00     0.048 C 
HETATM   18  C   UNK N   1      31.096  41.508  60.041  0.00  0.00     0.157 C 
HETATM   19  O   UNK N   1      31.763  40.754  60.735  0.00  0.00    -0.292 OA
HETATM   20  C   UNK N   1      31.735  42.623  59.233  0.00  0.00     0.024 C 
HETATM   21  C   UNK N   1      31.073  42.639  57.788  0.00  0.00     0.037 C 
HETATM   22  C   UNK N   1      33.269  42.375  59.178  0.00  0.00     0.024 C 
HETATM   23  C   UNK N   1      31.505  43.934  60.017  0.00  0.00     0.024 C 
HETATM   24  C   UNK N   1      28.785  43.914  57.736  0.00  0.00     0.020 C 
BRANCH  21  25
HETATM   25  C   UNK N   1      31.639  43.767  56.863  0.00  0.00     0.170 C 
BRANCH  25  26
HETATM   26  O   UNK N   1      32.574  43.284  55.938  0.00  0.00    -0.400 OA
HETATM   27  H   UNK N   1      33.340  42.932  56.464  0.00  0.00     0.209 HD
ENDBRANCH  25  26
ENDBRANCH  21  25
ENDBRANCH   1  15
BRANCH   2  28
HETATM   28  C   UNK N   1      26.610  40.844  57.584  0.00  0.00     0.270 C 
HETATM   29  O   UNK N   1      26.094  41.894  57.216  0.00  0.00    -0.264 OA
BRANCH  28  30
HETATM   30  O   UNK N   1      26.069  40.151  58.623  0.00  0.00    -0.326 OA
HETATM   31  C   UNK N   1      24.859  40.460  59.206  0.00  0.00     0.213 C 
ENDBRANCH  28  30
ENDBRANCH   2  28
BRANCH   9  32
HETATM   32  C   UNK N   1      28.050  41.302  52.822  0.00  0.00    -0.004 A 
HETATM   33  C   UNK N   1      27.144  42.209  53.350  0.00  0.00     0.151 A 
HETATM   34  O   UNK N   1      27.435  43.413  52.913  0.00  0.00    -0.334 OA
HETATM   35  C   UNK N   1      28.483  43.346  52.122  0.00  0.00     0.142 A 
HETATM   36  C   UNK N   1      28.905  42.038  52.029  0.00  0.00     0.036 A 
ENDBRANCH   9  32
TORSDOF 6
ENDMDL
MODEL 4
REMARK VINA RESULT:      -4.4      2.238      6.883
REMARK  6 active torsions:
REMARK  status: ('A' for Active; 'I' for Inactive)
REMARK    1  A    between atoms: C_5  and  C_13 
REMARK    2  A    between atoms: C_6  and  C_7 
REMARK    3  A    between atoms: C_7  and  O_8 
REMARK    4  A    between atoms: C_14  and  C_15 
REMARK    5  A    between atoms: C_15  and  O_17 
REMARK    6  A    between atoms: C_25  and  C_30 
ROOT
HETATM    1  C   UNK N   1      29.868  41.945  57.109  0.00  0.00     0.019 C 
HETATM    2  C   UNK N   1      28.698  42.652  57.995  0.00  0.00     0.084 C 
HETATM    3  C   UNK N   1      29.389  43.395  59.212  0.00  0.00     0.124 A 
HETATM    4  O   UNK N   1      28.424  44.070  60.002  0.00  0.00    -0.356 OA
HETATM    5  C   UNK N   1      29.078  43.035  60.663  0.00  0.00     0.259 A 
HETATM    6  C   UNK N   1      30.034  43.598  61.685  0.00  0.00     0.291 C 
HETATM    7  O   UNK N   1      29.787  43.479  62.873  0.00  0.00    -0.262 OA
HETATM    8  O   UNK N   1      31.179  44.220  61.297  0.00  0.00    -0.308 OA
HETATM    9  C   UNK N   1      31.705  44.072  60.024  0.00  0.00     0.178 C 
HETATM   10  C   UNK N   1      30.599  44.363  58.954  0.00  0.00     0.023 C 
HETATM   11  C   UNK N   1      31.116  44.220  57.500  0.00  0.00     0.016 C 
HETATM   12  C   UNK N   1      31.191  42.791  56.978  0.00  0.00     0.008 C 
HETATM   13  C   UNK N   1      30.191  45.860  59.108  0.00  0.00     0.021 C 
HETATM   14  C   UNK N   1      27.819  43.705  57.247  0.00  0.00     0.030 C 
ENDROOT
BRANCH   1  15
HETATM   15  C   UNK N   1      29.518  41.035  55.808  0.00  0.00    -0.015 C 
HETATM   16  C   UNK N   1      29.599  39.584  56.299  0.00  0.00    -0.013 C 
HETATM   17  C   UNK N   1      28.591  38.713  56.277  0.00  0.00     0.048 C 
HETATM   18  C   UNK N   1      27.307  39.071  55.693  0.00  0.00     0.157 C 
HETATM   19  O   UNK N   1      26.309  38.439  56.010  0.00  0.00    -0.292 OA
HETATM   20  C   UNK N   1      27.264  40.144  54.621  0.00  0.00     0.024 C 
HETATM   21  C   UNK N   1      28.092  41.400  55.133  0.00  0.00     0.037 C 
HETATM   22  C   UNK N   1      25.777  40.493  54.332  0.00  0.00     0.024 C 
HETATM   23  C   UNK N   1      27.851  39.517  53.336  0.00  0.00     0.024 C 
HETATM   24  C   UNK N   1      30.671  41.133  54.763  0.00  0.00     0.020 C 
BRANCH  21  25
HETATM   25  C   UNK N   1      28.139  42.572  54.097  0.00  0.00     0.170 C 
BRANCH  25  26
HETATM   26  O   UNK N   1      27.000  43.386  54.157  0.00  0.00    -0.400 OA
HETATM   27  H   UNK N   1      27.101  43.958  54.964  0.00  0.00     0.209 HD
ENDBRANCH  25  26
ENDBRANCH  21  25
ENDBRANCH   1  15
BRANCH   2  28
HETATM   28  C   UNK N   1      27.737  41.579  58.538  0.00  0.00     0.270 C 
HETATM   29  O   UNK N   1      26.531  41.695  58.355  0.00  0.00    -0.264 OA
BRANCH  28  30
HETATM   30  O   UNK N   1      28.217  40.511  59.234  0.00  0.00    -0.326 OA
HETATM   31  C   UNK N   1      27.425  39.501  59.735  0.00  0.00     0.213 C 
ENDBRANCH  28  30
ENDBRANCH   2  28
BRANCH   9  32
HETATM   32  C   UNK N   1      32.399  42.722  59.925  0.00  0.00    -0.004 A 
HETATM   33  C   UNK N   1      31.889  41.458  60.181  0.00  0.00     0.151 A 
HETATM   34  O   UNK N   1      32.830  40.564  59.975  0.00  0.00    -0.334 OA
HETATM   35  C   UNK N   1      33.932  41.173  59.600  0.00  0.00     0.142 A 
HETATM   36  C   UNK N   1      33.714  42.533  59.556  0.00  0.00     0.036 A 
ENDBRANCH   9  32
TORSDOF 6
ENDMDL
MODEL 5
REMARK VINA RESULT:      -4.4      2.145      3.593
REMARK  6 active torsions:
REMARK  status: ('A' for Active; 'I' for Inactive)
REMARK    1  A    between atoms: C_5  and  C_13 
REMARK    2  A    between atoms: C_6  and  C_7 
REMARK    3  A    between atoms: C_7  and  O_8 
REMARK    4  A    between atoms: C_14  and  C_15 
REMARK    5  A    between atoms: C_15  and  O_17 
REMARK    6  A    between atoms: C_25  and  C_30 
ROOT
HETATM    1  C   UNK N   1      29.102  41.844  58.568  0.00  0.00     0.019 C 
HETATM    2  C   UNK N   1      27.590  42.448  58.502  0.00  0.00     0.084 C 
HETATM    3  C   UNK N   1      26.884  41.857  57.213  0.00  0.00     0.124 A 
HETATM    4  O   UNK N   1      25.545  42.313  57.120  0.00  0.00    -0.356 OA
HETATM    5  C   UNK N   1      26.369  42.754  56.088  0.00  0.00     0.259 A 
HETATM    6  C   UNK N   1      26.017  42.042  54.806  0.00  0.00     0.291 C 
HETATM    7  O   UNK N   1      25.471  42.654  53.906  0.00  0.00    -0.262 OA
HETATM    8  O   UNK N   1      26.323  40.728  54.635  0.00  0.00    -0.308 OA
HETATM    9  C   UNK N   1      27.251  40.075  55.431  0.00  0.00     0.178 C 
HETATM   10  C   UNK N   1      26.913  40.311  56.943  0.00  0.00     0.023 C 
HETATM   11  C   UNK N   1      27.909  39.605  57.898  0.00  0.00     0.016 C 
HETATM   12  C   UNK N   1      29.226  40.339  58.117  0.00  0.00     0.008 C 
HETATM   13  C   UNK N   1      25.530  39.645  57.215  0.00  0.00     0.021 C 
HETATM   14  C   UNK N   1      26.672  42.123  59.724  0.00  0.00     0.030 C 
ENDROOT
BRANCH   1  15
HETATM   15  C   UNK N   1      30.145  42.286  59.734  0.00  0.00    -0.015 C 
HETATM   16  C   UNK N   1      30.394  41.014  60.553  0.00  0.00    -0.013 C 
HETATM   17  C   UNK N   1      31.581  40.431  60.719  0.00  0.00     0.048 C 
HETATM   18  C   UNK N   1      32.789  41.028  60.170  0.00  0.00     0.157 C 
HETATM   19  O   UNK N   1      33.775  40.327  59.992  0.00  0.00    -0.292 OA
HETATM   20  C   UNK N   1      32.826  42.528  59.941  0.00  0.00     0.024 C 
HETATM   21  C   UNK N   1      31.507  42.950  59.160  0.00  0.00     0.037 C 
HETATM   22  C   UNK N   1      34.119  42.874  59.149  0.00  0.00     0.024 C 
HETATM   23  C   UNK N   1      32.942  43.191  61.331  0.00  0.00     0.024 C 
HETATM   24  C   UNK N   1      29.442  43.243  60.745  0.00  0.00     0.020 C 
BRANCH  21  25
HETATM   25  C   UNK N   1      31.420  44.487  58.883  0.00  0.00     0.170 C 
BRANCH  25  26
HETATM   26  O   UNK N   1      31.392  44.785  57.514  0.00  0.00    -0.400 OA
HETATM   27  H   UNK N   1      31.283  45.771  57.439  0.00  0.00     0.209 HD
ENDBRANCH  25  26
ENDBRANCH  21  25
ENDBRANCH   1  15
BRANCH   2  28
HETATM   28  C   UNK N   1      27.648  43.983  58.388  0.00  0.00     0.270 C 
HETATM   29  O   UNK N   1      28.480  44.506  57.656  0.00  0.00    -0.264 OA
BRANCH  28  30
HETATM   30  O   UNK N   1      26.793  44.761  59.107  0.00  0.00    -0.326 OA
HETATM   31  C   UNK N   1      25.923  45.669  58.544  0.00  0.00     0.213 C 
ENDBRANCH  28  30
ENDBRANCH   2  28
BRANCH   9  32
HETATM   32  C   UNK N   1      28.652  40.464  54.986  0.00  0.00    -0.004 A 
HETATM   33  C   UNK N   1      29.788  39.676  54.891  0.00  0.00     0.151 A 
HETATM   34  O   UNK N   1      30.790  40.413  54.468  0.00  0.00    -0.334 OA
HETATM   35  C   UNK N   1      30.374  41.646  54.282  0.00  0.00     0.142 A 
HETATM   36  C   UNK N   1      29.036  41.731  54.598  0.00  0.00     0.036 A 
ENDBRANCH   9  32
TORSDOF 6
ENDMDL
MODEL 6
REMARK VINA RESULT:      -4.3     18.102     22.097
REMARK  6 active torsions:
REMARK  status: ('A' for Active; 'I' for Inactive)
REMARK    1  A    between atoms: C_5  and  C_13 
REMARK    2  A    between atoms: C_6  and  C_7 
REMARK    3  A    between atoms: C_7  and  O_8 
REMARK    4  A    between atoms: C_14  and  C_15 
REMARK    5  A    between atoms: C_15  and  O_17 
REMARK    6  A    between atoms: C_25  and  C_30 
ROOT
HETATM    1  C   UNK N   1      45.931  53.542  62.306  0.00  0.00     0.019 C 
HETATM    2  C   UNK N   1      47.206  52.755  62.946  0.00  0.00     0.084 C 
HETATM    3  C   UNK N   1      46.982  51.202  62.724  0.00  0.00     0.124 A 
HETATM    4  O   UNK N   1      48.082  50.460  63.223  0.00  0.00    -0.356 OA
HETATM    5  C   UNK N   1      46.885  50.222  63.891  0.00  0.00     0.259 A 
HETATM    6  C   UNK N   1      46.360  48.852  63.540  0.00  0.00     0.291 C 
HETATM    7  O   UNK N   1      46.378  47.967  64.377  0.00  0.00    -0.262 OA
HETATM    8  O   UNK N   1      45.848  48.600  62.306  0.00  0.00    -0.308 OA
HETATM    9  C   UNK N   1      45.455  49.614  61.447  0.00  0.00     0.178 C 
HETATM   10  C   UNK N   1      46.611  50.661  61.298  0.00  0.00     0.023 C 
HETATM   11  C   UNK N   1      46.246  51.827  60.345  0.00  0.00     0.016 C 
HETATM   12  C   UNK N   1      45.386  52.923  60.963  0.00  0.00     0.008 C 
HETATM   13  C   UNK N   1      47.810  49.928  60.621  0.00  0.00     0.021 C 
HETATM   14  C   UNK N   1      48.602  53.113  62.344  0.00  0.00     0.030 C 
ENDROOT
BRANCH   1  15
HETATM   15  C   UNK N   1      45.791  55.159  62.407  0.00  0.00    -0.015 C 
HETATM   16  C   UNK N   1      46.203  55.685  61.027  0.00  0.00    -0.013 C 
HETATM   17  C   UNK N   1      45.419  56.394  60.214  0.00  0.00     0.048 C 
HETATM   18  C   UNK N   1      44.085  56.799  60.629  0.00  0.00     0.157 C 
HETATM   19  O   UNK N   1      43.259  57.097  59.778  0.00  0.00    -0.292 OA
HETATM   20  C   UNK N   1      43.793  56.949  62.111  0.00  0.00     0.024 C 
HETATM   21  C   UNK N   1      44.315  55.649  62.861  0.00  0.00     0.037 C 
HETATM   22  C   UNK N   1      42.263  57.163  62.292  0.00  0.00     0.024 C 
HETATM   23  C   UNK N   1      44.500  58.241  62.578  0.00  0.00     0.024 C 
HETATM   24  C   UNK N   1      46.885  55.731  63.359  0.00  0.00     0.020 C 
BRANCH  21  25
HETATM   25  C   UNK N   1      44.088  55.697  64.408  0.00  0.00     0.170 C 
BRANCH  25  26
HETATM   26  O   UNK N   1      43.744  54.446  64.939  0.00  0.00    -0.400 OA
HETATM   27  H   UNK N   1      42.773  54.320  64.764  0.00  0.00     0.209 HD
ENDBRANCH  25  26
ENDBRANCH  21  25
ENDBRANCH   1  15
BRANCH   2  28
HETATM   28  C   UNK N   1      47.289  53.042  64.457  0.00  0.00     0.270 C 
HETATM   29  O   UNK N   1      46.288  52.919  65.153  0.00  0.00    -0.264 OA
BRANCH  28  30
HETATM   30  O   UNK N   1      48.460  53.447  65.019  0.00  0.00    -0.326 OA
HETATM   31  C   UNK N   1      49.371  52.590  65.600  0.00  0.00     0.213 C 
ENDBRANCH  28  30
ENDBRANCH   2  28
BRANCH   9  32
HETATM   32  C   UNK N   1      44.109  50.159  61.900  0.00  0.00    -0.004 A 
HETATM   33  C   UNK N   1      43.738  50.644  63.145  0.00  0.00     0.151 A 
HETATM   34  O   UNK N   1      42.477  51.011  63.106  0.00  0.00    -0.334 OA
HETATM   35  C   UNK N   1      41.998  50.789  61.902  0.00  0.00     0.142 A 
HETATM   36  C   UNK N   1      42.985  50.250  61.107  0.00  0.00     0.036 A 
ENDBRANCH   9  32
TORSDOF 6
ENDMDL
MODEL 7
REMARK VINA RESULT:      -4.2      1.486      2.458
REMARK  6 active torsions:
REMARK  status: ('A' for Active; 'I' for Inactive)
REMARK    1  A    between atoms: C_5  and  C_13 
REMARK    2  A    between atoms: C_6  and  C_7 
REMARK    3  A    between atoms: C_7  and  O_8 
REMARK    4  A    between atoms: C_14  and  C_15 
REMARK    5  A    between atoms: C_15  and  O_17 
REMARK    6  A    between atoms: C_25  and  C_30 
ROOT
HETATM    1  C   UNK N   1      29.295  41.948  56.504  0.00  0.00     0.019 C 
HETATM    2  C   UNK N   1      28.271  40.794  57.028  0.00  0.00     0.084 C 
HETATM    3  C   UNK N   1      27.670  40.061  55.758  0.00  0.00     0.124 A 
HETATM    4  O   UNK N   1      26.800  39.013  56.148  0.00  0.00    -0.356 OA
HETATM    5  C   UNK N   1      26.172  40.048  55.463  0.00  0.00     0.259 A 
HETATM    6  C   UNK N   1      25.792  39.595  54.076  0.00  0.00     0.291 C 
HETATM    7  O   UNK N   1      24.618  39.422  53.798  0.00  0.00    -0.262 OA
HETATM    8  O   UNK N   1      26.743  39.397  53.125  0.00  0.00    -0.308 OA
HETATM    9  C   UNK N   1      28.023  39.916  53.240  0.00  0.00     0.178 C 
HETATM   10  C   UNK N   1      28.629  39.532  54.632  0.00  0.00     0.023 C 
HETATM   11  C   UNK N   1      30.066  40.076  54.834  0.00  0.00     0.016 C 
HETATM   12  C   UNK N   1      30.151  41.541  55.244  0.00  0.00     0.008 C 
HETATM   13  C   UNK N   1      28.762  37.978  54.663  0.00  0.00     0.021 C 
HETATM   14  C   UNK N   1      28.895  39.694  57.946  0.00  0.00     0.030 C 
ENDROOT
BRANCH   1  15
HETATM   15  C   UNK N   1      30.052  42.948  57.538  0.00  0.00    -0.015 C 
HETATM   16  C   UNK N   1      29.303  44.281  57.429  0.00  0.00    -0.013 C 
HETATM   17  C   UNK N   1      28.675  44.889  58.435  0.00  0.00     0.048 C 
HETATM   18  C   UNK N   1      28.721  44.343  59.783  0.00  0.00     0.157 C 
HETATM   19  O   UNK N   1      27.862  44.671  60.590  0.00  0.00    -0.292 OA
HETATM   20  C   UNK N   1      29.899  43.473  60.181  0.00  0.00     0.024 C 
HETATM   21  C   UNK N   1      30.118  42.376  59.052  0.00  0.00     0.037 C 
HETATM   22  C   UNK N   1      29.599  42.843  61.570  0.00  0.00     0.024 C 
HETATM   23  C   UNK N   1      31.113  44.414  60.352  0.00  0.00     0.024 C 
HETATM   24  C   UNK N   1      31.479  43.284  57.007  0.00  0.00     0.020 C 
BRANCH  21  25
HETATM   25  C   UNK N   1      31.327  41.426  59.342  0.00  0.00     0.170 C 
BRANCH  25  26
HETATM   26  O   UNK N   1      31.022  40.445  60.295  0.00  0.00    -0.400 OA
HETATM   27  H   UNK N   1      31.604  40.621  61.082  0.00  0.00     0.209 HD
ENDBRANCH  25  26
ENDBRANCH  21  25
ENDBRANCH   1  15
BRANCH   2  28
HETATM   28  C   UNK N   1      27.125  41.440  57.827  0.00  0.00     0.270 C 
HETATM   29  O   UNK N   1      26.820  40.988  58.924  0.00  0.00    -0.264 OA
BRANCH  28  30
HETATM   30  O   UNK N   1      26.440  42.500  57.317  0.00  0.00    -0.326 OA
HETATM   31  C   UNK N   1      25.400  43.128  57.967  0.00  0.00     0.213 C 
ENDBRANCH  28  30
ENDBRANCH   2  28
BRANCH   9  32
HETATM   32  C   UNK N   1      27.991  41.400  52.907  0.00  0.00    -0.004 A 
HETATM   33  C   UNK N   1      27.173  42.393  53.423  0.00  0.00     0.151 A 
HETATM   34  O   UNK N   1      27.476  43.539  52.857  0.00  0.00    -0.334 OA
HETATM   35  C   UNK N   1      28.448  43.352  51.992  0.00  0.00     0.142 A 
HETATM   36  C   UNK N   1      28.805  42.021  51.984  0.00  0.00     0.036 A 
ENDBRANCH   9  32
TORSDOF 6
ENDMDL
MODEL 8
REMARK VINA RESULT:      -4.1      3.877      6.143
REMARK  6 active torsions:
REMARK  status: ('A' for Active; 'I' for Inactive)
REMARK    1  A    between atoms: C_5  and  C_13 
REMARK    2  A    between atoms: C_6  and  C_7 
REMARK    3  A    between atoms: C_7  and  O_8 
REMARK    4  A    between atoms: C_14  and  C_15 
REMARK    5  A    between atoms: C_15  and  O_17 
REMARK    6  A    between atoms: C_25  and  C_30 
ROOT
HETATM    1  C   UNK N   1      29.785  44.922  60.095  0.00  0.00     0.019 C 
HETATM    2  C   UNK N   1      28.554  43.893  59.808  0.00  0.00     0.084 C 
HETATM    3  C   UNK N   1      29.124  42.417  59.890  0.00  0.00     0.124 A 
HETATM    4  O   UNK N   1      28.090  41.468  59.691  0.00  0.00    -0.356 OA
HETATM    5  C   UNK N   1      29.068  41.460  58.701  0.00  0.00     0.259 A 
HETATM    6  C   UNK N   1      29.922  40.223  58.828  0.00  0.00     0.291 C 
HETATM    7  O   UNK N   1      29.834  39.341  57.993  0.00  0.00    -0.262 OA
HETATM    8  O   UNK N   1      30.805  40.092  59.854  0.00  0.00    -0.308 OA
HETATM    9  C   UNK N   1      31.226  41.173  60.610  0.00  0.00     0.178 C 
HETATM   10  C   UNK N   1      29.984  41.976  61.127  0.00  0.00     0.023 C 
HETATM   11  C   UNK N   1      30.378  43.204  61.988  0.00  0.00     0.016 C 
HETATM   12  C   UNK N   1      30.800  44.438  61.199  0.00  0.00     0.008 C 
HETATM   13  C   UNK N   1      29.192  41.033  62.083  0.00  0.00     0.021 C 
HETATM   14  C   UNK N   1      27.348  43.980  60.797  0.00  0.00     0.030 C 
ENDROOT
BRANCH   1  15
HETATM   15  C   UNK N   1      29.579  46.534  60.029  0.00  0.00    -0.015 C 
HETATM   16  C   UNK N   1      30.343  46.985  58.779  0.00  0.00    -0.013 C 
HETATM   17  C   UNK N   1      29.797  47.601  57.730  0.00  0.00     0.048 C 
HETATM   18  C   UNK N   1      28.390  47.970  57.731  0.00  0.00     0.157 C 
HETATM   19  O   UNK N   1      27.825  48.172  56.665  0.00  0.00    -0.292 OA
HETATM   20  C   UNK N   1      27.695  48.205  59.059  0.00  0.00     0.024 C 
HETATM   21  C   UNK N   1      28.023  46.983  60.022  0.00  0.00     0.037 C 
HETATM   22  C   UNK N   1      26.170  48.360  58.797  0.00  0.00     0.024 C 
HETATM   23  C   UNK N   1      28.211  49.557  59.602  0.00  0.00     0.024 C 
HETATM   24  C   UNK N   1      30.351  47.218  61.198  0.00  0.00     0.020 C 
BRANCH  21  25
HETATM   25  C   UNK N   1      27.375  47.124  61.439  0.00  0.00     0.170 C 
BRANCH  25  26
HETATM   26  O   UNK N   1      25.996  46.873  61.425  0.00  0.00    -0.400 OA
HETATM   27  H   UNK N   1      25.868  46.010  60.948  0.00  0.00     0.209 HD
ENDBRANCH  25  26
ENDBRANCH  21  25
ENDBRANCH   1  15
BRANCH   2  28
HETATM   28  C   UNK N   1      27.989  44.140  58.398  0.00  0.00     0.270 C 
HETATM   29  O   UNK N   1      28.754  44.234  57.445  0.00  0.00    -0.264 OA
BRANCH  28  30
HETATM   30  O   UNK N   1      26.648  44.269  58.205  0.00  0.00    -0.326 OA
HETATM   31  C   UNK N   1      26.086  44.952  57.147  0.00  0.00     0.213 C 
ENDBRANCH  28  30
ENDBRANCH   2  28
BRANCH   9  32
HETATM   32  C   UNK N   1      32.256  41.964  59.818  0.00  0.00    -0.004 A 
HETATM   33  C   UNK N   1      32.128  42.567  58.576  0.00  0.00     0.151 A 
HETATM   34  O   UNK N   1      33.264  43.145  58.258  0.00  0.00    -0.334 OA
HETATM   35  C   UNK N   1      34.135  42.950  59.223  0.00  0.00     0.142 A 
HETATM   36  C   UNK N   1      33.550  42.210  60.227  0.00  0.00     0.036 A 
ENDBRANCH   9  32
TORSDOF 6
ENDMDL
MODEL 9
REMARK VINA RESULT:      -4.0      3.209      6.135
REMARK  6 active torsions:
REMARK  status: ('A' for Active; 'I' for Inactive)
REMARK    1  A    between atoms: C_5  and  C_13 
REMARK    2  A    between atoms: C_6  and  C_7 
REMARK    3  A    between atoms: C_7  and  O_8 
REMARK    4  A    between atoms: C_14  and  C_15 
REMARK    5  A    between atoms: C_15  and  O_17 
REMARK    6  A    between atoms: C_25  and  C_30 
ROOT
HETATM    1  C   UNK N   1      29.454  45.652  59.498  0.00  0.00     0.019 C 
HETATM    2  C   UNK N   1      30.003  44.824  60.789  0.00  0.00     0.084 C 
HETATM    3  C   UNK N   1      30.343  43.351  60.315  0.00  0.00     0.124 A 
HETATM    4  O   UNK N   1      30.869  42.587  61.388  0.00  0.00    -0.356 OA
HETATM    5  C   UNK N   1      29.646  42.128  60.907  0.00  0.00     0.259 A 
HETATM    6  C   UNK N   1      29.841  40.842  60.143  0.00  0.00     0.291 C 
HETATM    7  O   UNK N   1      29.438  39.793  60.614  0.00  0.00    -0.262 OA
HETATM    8  O   UNK N   1      30.443  40.843  58.924  0.00  0.00    -0.308 OA
HETATM    9  C   UNK N   1      30.587  41.998  58.172  0.00  0.00     0.178 C 
HETATM   10  C   UNK N   1      31.238  43.123  59.046  0.00  0.00     0.023 C 
HETATM   11  C   UNK N   1      31.436  44.450  58.268  0.00  0.00     0.016 C 
HETATM   12  C   UNK N   1      30.190  45.319  58.145  0.00  0.00     0.008 C 
HETATM   13  C   UNK N   1      32.673  42.642  59.422  0.00  0.00     0.021 C 
HETATM   14  C   UNK N   1      31.285  45.398  61.474  0.00  0.00     0.030 C 
ENDROOT
BRANCH   1  15
HETATM   15  C   UNK N   1      28.946  47.192  59.627  0.00  0.00    -0.015 C 
HETATM   16  C   UNK N   1      30.024  48.029  58.928  0.00  0.00    -0.013 C 
HETATM   17  C   UNK N   1      29.816  48.812  57.869  0.00  0.00     0.048 C 
HETATM   18  C   UNK N   1      28.479  48.991  57.324  0.00  0.00     0.157 C 
HETATM   19  O   UNK N   1      28.351  49.378  56.171  0.00  0.00    -0.292 OA
HETATM   20  C   UNK N   1      27.283  48.802  58.239  0.00  0.00     0.024 C 
HETATM   21  C   UNK N   1      27.462  47.431  59.024  0.00  0.00     0.037 C 
HETATM   22  C   UNK N   1      25.991  48.825  57.374  0.00  0.00     0.024 C 
HETATM   23  C   UNK N   1      27.236  50.031  59.174  0.00  0.00     0.024 C 
HETATM   24  C   UNK N   1      29.026  47.657  61.113  0.00  0.00     0.020 C 
BRANCH  21  25
HETATM   25  C   UNK N   1      26.294  47.135  60.022  0.00  0.00     0.170 C 
BRANCH  25  26
HETATM   26  O   UNK N   1      25.855  45.806  59.955  0.00  0.00    -0.400 OA
HETATM   27  H   UNK N   1      25.794  45.478  60.892  0.00  0.00     0.209 HD
ENDBRANCH  25  26
ENDBRANCH  21  25
ENDBRANCH   1  15
BRANCH   2  28
HETATM   28  C   UNK N   1      28.910  44.766  61.872  0.00  0.00     0.270 C 
HETATM   29  O   UNK N   1      27.749  44.540  61.552  0.00  0.00    -0.264 OA
BRANCH  28  30
HETATM   30  O   UNK N   1      29.223  44.981  63.180  0.00  0.00    -0.326 OA
HETATM   31  C   UNK N   1      29.052  44.042  64.175  0.00  0.00     0.213 C 
ENDBRANCH  28  30
ENDBRANCH   2  28
BRANCH   9  32
HETATM   32  C   UNK N   1      29.256  42.338  57.520  0.00  0.00    -0.004 A 
HETATM   33  C   UNK N   1      28.014  42.510  58.111  0.00  0.00     0.151 A 
HETATM   34  O   UNK N   1      27.129  42.792  57.181  0.00  0.00    -0.334 OA
HETATM   35  C   UNK N   1      27.723  42.811  56.009  0.00  0.00     0.142 A 
HETATM   36  C   UNK N   1      29.062  42.528  56.168  0.00  0.00     0.036 A 
ENDBRANCH   9  32
TORSDOF 6
ENDMDL
