MODEL 1
REMARK VINA RESULT:      -7.7      0.000      0.000
REMARK  11 active torsions:
REMARK  status: ('A' for Active; 'I' for Inactive)
REMARK    1  A    between atoms: C_2  and  O_3 
REMARK    2  A    between atoms: C_2  and  C_19 
REMARK    3  A    between atoms: O_3  and  C_4 
REMARK    4  A    between atoms: C_4  and  C_5 
REMARK    5  A    between atoms: C_7  and  O_8 
REMARK    6  A    between atoms: C_10  and  O_11 
REMARK    7  A    between atoms: C_13  and  O_14 
REMARK    8  A    between atoms: C_16  and  O_17 
REMARK    9  A    between atoms: C_20  and  C_21 
REMARK   10  A    between atoms: C_23  and  O_24 
REMARK   11  A    between atoms: C_26  and  O_27 
ROOT
HETATM    1  O   UNK N   1      40.851  47.811  46.129  0.00  0.00    -0.316 OA
ENDROOT
BRANCH   1   2
HETATM    2  C   UNK N   1      41.107  46.472  46.111  0.00  0.00     0.282 C 
HETATM    3  O   UNK N   1      41.482  45.926  45.085  0.00  0.00    -0.260 OA
BRANCH   2   4
HETATM    4  C   UNK N   1      40.937  45.665  47.336  0.00  0.00     0.083 C 
HETATM    5  C   UNK N   1      41.315  46.123  48.543  0.00  0.00     0.017 C 
BRANCH   5   6
HETATM    6  C   UNK N   1      41.165  45.355  49.812  0.00  0.00    -0.033 A 
HETATM    7  C   UNK N   1      41.930  45.745  50.922  0.00  0.00     0.050 A 
HETATM    8  C   UNK N   1      41.850  45.053  52.138  0.00  0.00     0.099 A 
HETATM    9  C   UNK N   1      40.967  43.949  52.253  0.00  0.00     0.098 A 
HETATM   10  C   UNK N   1      40.192  43.573  51.153  0.00  0.00     0.040 A 
HETATM   11  C   UNK N   1      40.288  44.260  49.942  0.00  0.00     0.014 A 
BRANCH   8  12
HETATM   12  O   UNK N   1      42.630  45.468  53.159  0.00  0.00    -0.358 OA
HETATM   13  H   UNK N   1      43.572  45.657  53.081  0.00  0.00     0.218 HD
ENDBRANCH   8  12
BRANCH   9  14
HETATM   14  O   UNK N   1      40.842  43.237  53.396  0.00  0.00    -0.358 OA
HETATM   15  H   UNK N   1      40.856  43.622  54.280  0.00  0.00     0.218 HD
ENDBRANCH   9  14
ENDBRANCH   5   6
ENDBRANCH   2   4
ENDBRANCH   1   2
BRANCH   1  16
HETATM   16  C   UNK N   1      39.594  48.357  45.939  0.00  0.00     0.213 C 
BRANCH  16  17
HETATM   17  C   UNK N   1      39.318  48.618  44.445  0.00  0.00     0.180 C 
HETATM   18  O   UNK N   1      37.932  48.415  44.204  0.00  0.00    -0.349 OA
HETATM   19  C   UNK N   1      37.631  48.544  42.823  0.00  0.00     0.288 C 
HETATM   20  C   UNK N   1      37.907  49.982  42.344  0.00  0.00     0.204 C 
HETATM   21  C   UNK N   1      39.386  50.317  42.592  0.00  0.00     0.183 C 
HETATM   22  C   UNK N   1      39.721  50.064  44.072  0.00  0.00     0.180 C 
BRANCH  19  23
HETATM   23  O   UNK N   1      36.272  48.262  42.626  0.00  0.00    -0.369 OA
HETATM   24  H   UNK N   1      35.809  49.135  42.540  0.00  0.00     0.212 HD
ENDBRANCH  19  23
BRANCH  20  25
HETATM   25  O   UNK N   1      37.603  50.084  40.977  0.00  0.00    -0.388 OA
HETATM   26  H   UNK N   1      37.032  49.304  40.748  0.00  0.00     0.210 HD
ENDBRANCH  20  25
BRANCH  21  27
HETATM   27  O   UNK N   1      39.625  51.659  42.257  0.00  0.00    -0.390 OA
HETATM   28  H   UNK N   1      39.516  52.190  43.088  0.00  0.00     0.210 HD
ENDBRANCH  21  27
BRANCH  22  29
HETATM   29  O   UNK N   1      41.098  50.239  44.288  0.00  0.00    -0.390 OA
HETATM   30  H   UNK N   1      41.452  50.753  43.516  0.00  0.00     0.210 HD
ENDBRANCH  22  29
ENDBRANCH  16  17
ENDBRANCH   1  16
TORSDOF 11
ENDMDL
MODEL 2
REMARK VINA RESULT:      -7.0      2.762      8.259
REMARK  11 active torsions:
REMARK  status: ('A' for Active; 'I' for Inactive)
REMARK    1  A    between atoms: C_2  and  O_3 
REMARK    2  A    between atoms: C_2  and  C_19 
REMARK    3  A    between atoms: O_3  and  C_4 
REMARK    4  A    between atoms: C_4  and  C_5 
REMARK    5  A    between atoms: C_7  and  O_8 
REMARK    6  A    between atoms: C_10  and  O_11 
REMARK    7  A    between atoms: C_13  and  O_14 
REMARK    8  A    between atoms: C_16  and  O_17 
REMARK    9  A    between atoms: C_20  and  C_21 
REMARK   10  A    between atoms: C_23  and  O_24 
REMARK   11  A    between atoms: C_26  and  O_27 
ROOT
HETATM    1  O   UNK N   1      39.823  44.841  47.563  0.00  0.00    -0.316 OA
ENDROOT
BRANCH   1   2
HETATM    2  C   UNK N   1      38.937  45.874  47.507  0.00  0.00     0.282 C 
HETATM    3  O   UNK N   1      38.189  46.101  48.445  0.00  0.00    -0.260 OA
BRANCH   2   4
HETATM    4  C   UNK N   1      38.874  46.737  46.311  0.00  0.00     0.083 C 
HETATM    5  C   UNK N   1      39.443  47.957  46.288  0.00  0.00     0.017 C 
BRANCH   5   6
HETATM    6  C   UNK N   1      39.415  48.869  45.109  0.00  0.00    -0.033 A 
HETATM    7  C   UNK N   1      38.483  48.614  44.091  0.00  0.00     0.050 A 
HETATM    8  C   UNK N   1      38.418  49.422  42.948  0.00  0.00     0.099 A 
HETATM    9  C   UNK N   1      39.299  50.526  42.826  0.00  0.00     0.098 A 
HETATM   10  C   UNK N   1      40.214  50.790  43.848  0.00  0.00     0.040 A 
HETATM   11  C   UNK N   1      40.281  49.973  44.977  0.00  0.00     0.014 A 
BRANCH   8  12
HETATM   12  O   UNK N   1      37.512  49.108  41.997  0.00  0.00    -0.358 OA
HETATM   13  H   UNK N   1      36.573  48.966  42.167  0.00  0.00     0.218 HD
ENDBRANCH   8  12
BRANCH   9  14
HETATM   14  O   UNK N   1      39.290  51.344  41.748  0.00  0.00    -0.358 OA
HETATM   15  H   UNK N   1      38.620  51.323  41.056  0.00  0.00     0.218 HD
ENDBRANCH   9  14
ENDBRANCH   5   6
ENDBRANCH   2   4
ENDBRANCH   1   2
BRANCH   1  16
HETATM   16  C   UNK N   1      41.134  44.972  47.988  0.00  0.00     0.213 C 
BRANCH  16  17
HETATM   17  C   UNK N   1      42.107  44.267  47.023  0.00  0.00     0.180 C 
HETATM   18  O   UNK N   1      42.024  42.865  47.249  0.00  0.00    -0.349 OA
HETATM   19  C   UNK N   1      42.972  42.165  46.457  0.00  0.00     0.288 C 
HETATM   20  C   UNK N   1      42.656  42.341  44.960  0.00  0.00     0.204 C 
HETATM   21  C   UNK N   1      42.689  43.838  44.615  0.00  0.00     0.183 C 
HETATM   22  C   UNK N   1      41.739  44.596  45.557  0.00  0.00     0.180 C 
BRANCH  19  23
HETATM   23  O   UNK N   1      42.904  40.799  46.770  0.00  0.00    -0.369 OA
HETATM   24  H   UNK N   1      42.285  40.714  47.541  0.00  0.00     0.212 HD
ENDBRANCH  19  23
BRANCH  20  25
HETATM   25  O   UNK N   1      43.606  41.641  44.199  0.00  0.00    -0.388 OA
HETATM   26  H   UNK N   1      44.388  41.478  44.789  0.00  0.00     0.210 HD
ENDBRANCH  20  25
BRANCH  21  27
HETATM   27  O   UNK N   1      42.301  44.019  43.278  0.00  0.00    -0.390 OA
HETATM   28  H   UNK N   1      43.131  44.046  42.735  0.00  0.00     0.210 HD
ENDBRANCH  21  27
BRANCH  22  29
HETATM   29  O   UNK N   1      41.855  45.979  45.343  0.00  0.00    -0.390 OA
HETATM   30  H   UNK N   1      41.153  46.233  44.689  0.00  0.00     0.210 HD
ENDBRANCH  22  29
ENDBRANCH  16  17
ENDBRANCH   1  16
TORSDOF 11
ENDMDL
MODEL 3
REMARK VINA RESULT:      -6.8      1.512      9.577
REMARK  11 active torsions:
REMARK  status: ('A' for Active; 'I' for Inactive)
REMARK    1  A    between atoms: C_2  and  O_3 
REMARK    2  A    between atoms: C_2  and  C_19 
REMARK    3  A    between atoms: O_3  and  C_4 
REMARK    4  A    between atoms: C_4  and  C_5 
REMARK    5  A    between atoms: C_7  and  O_8 
REMARK    6  A    between atoms: C_10  and  O_11 
REMARK    7  A    between atoms: C_13  and  O_14 
REMARK    8  A    between atoms: C_16  and  O_17 
REMARK    9  A    between atoms: C_20  and  C_21 
REMARK   10  A    between atoms: C_23  and  O_24 
REMARK   11  A    between atoms: C_26  and  O_27 
ROOT
HETATM    1  O   UNK N   1      40.955  45.218  47.734  0.00  0.00    -0.316 OA
ENDROOT
BRANCH   1   2
HETATM    2  C   UNK N   1      39.990  45.497  46.813  0.00  0.00     0.282 C 
HETATM    3  O   UNK N   1      38.971  44.826  46.760  0.00  0.00    -0.260 OA
BRANCH   2   4
HETATM    4  C   UNK N   1      40.163  46.619  45.869  0.00  0.00     0.083 C 
HETATM    5  C   UNK N   1      39.218  47.565  45.714  0.00  0.00     0.017 C 
BRANCH   5   6
HETATM    6  C   UNK N   1      39.340  48.721  44.780  0.00  0.00    -0.033 A 
HETATM    7  C   UNK N   1      38.538  48.735  43.628  0.00  0.00     0.050 A 
HETATM    8  C   UNK N   1      38.619  49.782  42.701  0.00  0.00     0.099 A 
HETATM    9  C   UNK N   1      39.514  50.855  42.939  0.00  0.00     0.098 A 
HETATM   10  C   UNK N   1      40.300  50.849  44.095  0.00  0.00     0.040 A 
HETATM   11  C   UNK N   1      40.222  49.796  45.007  0.00  0.00     0.014 A 
BRANCH   8  12
HETATM   12  O   UNK N   1      37.834  49.722  41.603  0.00  0.00    -0.358 OA
HETATM   13  H   UNK N   1      36.898  49.955  41.592  0.00  0.00     0.218 HD
ENDBRANCH   8  12
BRANCH   9  14
HETATM   14  O   UNK N   1      39.642  51.895  42.084  0.00  0.00    -0.358 OA
HETATM   15  H   UNK N   1      39.296  52.779  42.250  0.00  0.00     0.218 HD
ENDBRANCH   9  14
ENDBRANCH   5   6
ENDBRANCH   2   4
ENDBRANCH   1   2
BRANCH   1  16
HETATM   16  C   UNK N   1      41.196  45.992  48.856  0.00  0.00     0.213 C 
BRANCH  16  17
HETATM   17  C   UNK N   1      41.484  45.113  50.089  0.00  0.00     0.180 C 
HETATM   18  O   UNK N   1      41.959  45.952  51.134  0.00  0.00    -0.349 OA
HETATM   19  C   UNK N   1      42.336  45.187  52.269  0.00  0.00     0.288 C 
HETATM   20  C   UNK N   1      41.111  44.471  52.866  0.00  0.00     0.204 C 
HETATM   21  C   UNK N   1      40.496  43.554  51.797  0.00  0.00     0.183 C 
HETATM   22  C   UNK N   1      40.197  44.380  50.534  0.00  0.00     0.180 C 
BRANCH  19  23
HETATM   23  O   UNK N   1      42.868  46.047  53.241  0.00  0.00    -0.369 OA
HETATM   24  H   UNK N   1      42.104  46.554  53.620  0.00  0.00     0.212 HD
ENDBRANCH  19  23
BRANCH  20  25
HETATM   25  O   UNK N   1      41.510  43.721  53.985  0.00  0.00    -0.388 OA
HETATM   26  H   UNK N   1      40.990  42.875  53.968  0.00  0.00     0.210 HD
ENDBRANCH  20  25
BRANCH  21  27
HETATM   27  O   UNK N   1      39.318  42.976  52.296  0.00  0.00    -0.390 OA
HETATM   28  H   UNK N   1      38.835  42.587  51.522  0.00  0.00     0.210 HD
ENDBRANCH  21  27
BRANCH  22  29
HETATM   29  O   UNK N   1      39.757  43.534  49.502  0.00  0.00    -0.390 OA
HETATM   30  H   UNK N   1      39.323  44.108  48.820  0.00  0.00     0.210 HD
ENDBRANCH  22  29
ENDBRANCH  16  17
ENDBRANCH   1  16
TORSDOF 11
ENDMDL
MODEL 4
REMARK VINA RESULT:      -6.8      3.916      5.555
REMARK  11 active torsions:
REMARK  status: ('A' for Active; 'I' for Inactive)
REMARK    1  A    between atoms: C_2  and  O_3 
REMARK    2  A    between atoms: C_2  and  C_19 
REMARK    3  A    between atoms: O_3  and  C_4 
REMARK    4  A    between atoms: C_4  and  C_5 
REMARK    5  A    between atoms: C_7  and  O_8 
REMARK    6  A    between atoms: C_10  and  O_11 
REMARK    7  A    between atoms: C_13  and  O_14 
REMARK    8  A    between atoms: C_16  and  O_17 
REMARK    9  A    between atoms: C_20  and  C_21 
REMARK   10  A    between atoms: C_23  and  O_24 
REMARK   11  A    between atoms: C_26  and  O_27 
ROOT
HETATM    1  O   UNK N   1      41.094  46.822  46.737  0.00  0.00    -0.316 OA
ENDROOT
BRANCH   1   2
HETATM    2  C   UNK N   1      42.026  47.298  47.609  0.00  0.00     0.282 C 
HETATM    3  O   UNK N   1      42.737  48.242  47.302  0.00  0.00    -0.260 OA
BRANCH   2   4
HETATM    4  C   UNK N   1      42.186  46.679  48.940  0.00  0.00     0.083 C 
HETATM    5  C   UNK N   1      41.177  46.022  49.541  0.00  0.00     0.017 C 
BRANCH   5   6
HETATM    6  C   UNK N   1      41.282  45.375  50.880  0.00  0.00    -0.033 A 
HETATM    7  C   UNK N   1      40.345  44.387  51.218  0.00  0.00     0.050 A 
HETATM    8  C   UNK N   1      40.376  43.755  52.468  0.00  0.00     0.099 A 
HETATM    9  C   UNK N   1      41.383  44.108  53.401  0.00  0.00     0.098 A 
HETATM   10  C   UNK N   1      42.327  45.080  53.057  0.00  0.00     0.040 A 
HETATM   11  C   UNK N   1      42.280  45.714  51.815  0.00  0.00     0.014 A 
BRANCH   8  12
HETATM   12  O   UNK N   1      39.431  42.827  52.736  0.00  0.00    -0.358 OA
HETATM   13  H   UNK N   1      38.495  43.025  52.860  0.00  0.00     0.218 HD
ENDBRANCH   8  12
BRANCH   9  14
HETATM   14  O   UNK N   1      41.469  43.539  54.625  0.00  0.00    -0.358 OA
HETATM   15  H   UNK N   1      42.190  43.693  55.246  0.00  0.00     0.218 HD
ENDBRANCH   9  14
ENDBRANCH   5   6
ENDBRANCH   2   4
ENDBRANCH   1   2
BRANCH   1  16
HETATM   16  C   UNK N   1      40.339  45.684  46.963  0.00  0.00     0.213 C 
BRANCH  16  17
HETATM   17  C   UNK N   1      40.871  44.489  46.147  0.00  0.00     0.180 C 
HETATM   18  O   UNK N   1      41.470  44.991  44.959  0.00  0.00    -0.349 OA
HETATM   19  C   UNK N   1      41.893  43.930  44.115  0.00  0.00     0.288 C 
HETATM   20  C   UNK N   1      43.003  43.110  44.799  0.00  0.00     0.204 C 
HETATM   21  C   UNK N   1      42.464  42.544  46.122  0.00  0.00     0.183 C 
HETATM   22  C   UNK N   1      41.908  43.696  46.976  0.00  0.00     0.180 C 
BRANCH  19  23
HETATM   23  O   UNK N   1      42.406  44.472  42.928  0.00  0.00    -0.369 OA
HETATM   24  H   UNK N   1      42.208  45.444  42.949  0.00  0.00     0.212 HD
ENDBRANCH  19  23
BRANCH  20  25
HETATM   25  O   UNK N   1      43.403  42.068  43.946  0.00  0.00    -0.388 OA
HETATM   26  H   UNK N   1      42.737  42.022  43.211  0.00  0.00     0.210 HD
ENDBRANCH  20  25
BRANCH  21  27
HETATM   27  O   UNK N   1      43.497  41.882  46.804  0.00  0.00    -0.390 OA
HETATM   28  H   UNK N   1      43.487  40.937  46.501  0.00  0.00     0.210 HD
ENDBRANCH  21  27
BRANCH  22  29
HETATM   29  O   UNK N   1      41.294  43.183  48.131  0.00  0.00    -0.390 OA
HETATM   30  H   UNK N   1      40.914  42.299  47.891  0.00  0.00     0.210 HD
ENDBRANCH  22  29
ENDBRANCH  16  17
ENDBRANCH   1  16
TORSDOF 11
ENDMDL
MODEL 5
REMARK VINA RESULT:      -6.6      1.653      9.208
REMARK  11 active torsions:
REMARK  status: ('A' for Active; 'I' for Inactive)
REMARK    1  A    between atoms: C_2  and  O_3 
REMARK    2  A    between atoms: C_2  and  C_19 
REMARK    3  A    between atoms: O_3  and  C_4 
REMARK    4  A    between atoms: C_4  and  C_5 
REMARK    5  A    between atoms: C_7  and  O_8 
REMARK    6  A    between atoms: C_10  and  O_11 
REMARK    7  A    between atoms: C_13  and  O_14 
REMARK    8  A    between atoms: C_16  and  O_17 
REMARK    9  A    between atoms: C_20  and  C_21 
REMARK   10  A    between atoms: C_23  and  O_24 
REMARK   11  A    between atoms: C_26  and  O_27 
ROOT
HETATM    1  O   UNK N   1      41.928  47.258  48.346  0.00  0.00    -0.316 OA
ENDROOT
BRANCH   1   2
HETATM    2  C   UNK N   1      42.361  47.911  47.231  0.00  0.00     0.282 C 
HETATM    3  O   UNK N   1      43.499  48.350  47.172  0.00  0.00    -0.260 OA
BRANCH   2   4
HETATM    4  C   UNK N   1      41.458  48.093  46.076  0.00  0.00     0.083 C 
HETATM    5  C   UNK N   1      41.039  49.312  45.692  0.00  0.00     0.017 C 
BRANCH   5   6
HETATM    6  C   UNK N   1      40.132  49.557  44.534  0.00  0.00    -0.033 A 
HETATM    7  C   UNK N   1      39.044  48.690  44.344  0.00  0.00     0.050 A 
HETATM    8  C   UNK N   1      38.167  48.853  43.264  0.00  0.00     0.099 A 
HETATM    9  C   UNK N   1      38.371  49.923  42.357  0.00  0.00     0.098 A 
HETATM   10  C   UNK N   1      39.444  50.796  42.556  0.00  0.00     0.040 A 
HETATM   11  C   UNK N   1      40.321  50.619  43.627  0.00  0.00     0.014 A 
BRANCH   8  12
HETATM   12  O   UNK N   1      37.154  47.970  43.128  0.00  0.00    -0.358 OA
HETATM   13  H   UNK N   1      36.294  48.060  43.558  0.00  0.00     0.218 HD
ENDBRANCH   8  12
BRANCH   9  14
HETATM   14  O   UNK N   1      37.563  50.136  41.293  0.00  0.00    -0.358 OA
HETATM   15  H   UNK N   1      37.721  49.779  40.412  0.00  0.00     0.218 HD
ENDBRANCH   9  14
ENDBRANCH   5   6
ENDBRANCH   2   4
ENDBRANCH   1   2
BRANCH   1  16
HETATM   16  C   UNK N   1      42.729  46.991  49.442  0.00  0.00     0.213 C 
BRANCH  16  17
HETATM   17  C   UNK N   1      42.287  45.698  50.156  0.00  0.00     0.180 C 
HETATM   18  O   UNK N   1      42.158  45.976  51.544  0.00  0.00    -0.349 OA
HETATM   19  C   UNK N   1      41.849  44.797  52.272  0.00  0.00     0.288 C 
HETATM   20  C   UNK N   1      40.471  44.252  51.851  0.00  0.00     0.204 C 
HETATM   21  C   UNK N   1      40.493  43.947  50.345  0.00  0.00     0.183 C 
HETATM   22  C   UNK N   1      40.939  45.205  49.581  0.00  0.00     0.180 C 
BRANCH  19  23
HETATM   23  O   UNK N   1      41.807  45.106  53.640  0.00  0.00    -0.369 OA
HETATM   24  H   UNK N   1      41.887  46.092  53.711  0.00  0.00     0.212 HD
ENDBRANCH  19  23
BRANCH  20  25
HETATM   25  O   UNK N   1      40.188  43.088  52.584  0.00  0.00    -0.388 OA
HETATM   26  H   UNK N   1      40.561  43.220  53.495  0.00  0.00     0.210 HD
ENDBRANCH  20  25
BRANCH  21  27
HETATM   27  O   UNK N   1      39.213  43.549  49.929  0.00  0.00    -0.390 OA
HETATM   28  H   UNK N   1      39.133  43.781  48.968  0.00  0.00     0.210 HD
ENDBRANCH  21  27
BRANCH  22  29
HETATM   29  O   UNK N   1      41.090  44.907  48.216  0.00  0.00    -0.390 OA
HETATM   30  H   UNK N   1      41.030  43.922  48.124  0.00  0.00     0.210 HD
ENDBRANCH  22  29
ENDBRANCH  16  17
ENDBRANCH   1  16
TORSDOF 11
ENDMDL
MODEL 6
REMARK VINA RESULT:      -6.6      3.135      4.421
REMARK  11 active torsions:
REMARK  status: ('A' for Active; 'I' for Inactive)
REMARK    1  A    between atoms: C_2  and  O_3 
REMARK    2  A    between atoms: C_2  and  C_19 
REMARK    3  A    between atoms: O_3  and  C_4 
REMARK    4  A    between atoms: C_4  and  C_5 
REMARK    5  A    between atoms: C_7  and  O_8 
REMARK    6  A    between atoms: C_10  and  O_11 
REMARK    7  A    between atoms: C_13  and  O_14 
REMARK    8  A    between atoms: C_16  and  O_17 
REMARK    9  A    between atoms: C_20  and  C_21 
REMARK   10  A    between atoms: C_23  and  O_24 
REMARK   11  A    between atoms: C_26  and  O_27 
ROOT
HETATM    1  O   UNK N   1      38.790  47.500  46.589  0.00  0.00    -0.316 OA
ENDROOT
BRANCH   1   2
HETATM    2  C   UNK N   1      39.307  46.395  47.196  0.00  0.00     0.282 C 
HETATM    3  O   UNK N   1      38.811  45.965  48.226  0.00  0.00    -0.260 OA
BRANCH   2   4
HETATM    4  C   UNK N   1      40.473  45.702  46.614  0.00  0.00     0.083 C 
HETATM    5  C   UNK N   1      40.456  44.380  46.361  0.00  0.00     0.017 C 
BRANCH   5   6
HETATM    6  C   UNK N   1      41.600  43.628  45.771  0.00  0.00    -0.033 A 
HETATM    7  C   UNK N   1      42.006  42.437  46.392  0.00  0.00     0.050 A 
HETATM    8  C   UNK N   1      43.087  41.694  45.899  0.00  0.00     0.099 A 
HETATM    9  C   UNK N   1      43.771  42.145  44.742  0.00  0.00     0.098 A 
HETATM   10  C   UNK N   1      43.355  43.322  44.114  0.00  0.00     0.040 A 
HETATM   11  C   UNK N   1      42.286  44.063  44.619  0.00  0.00     0.014 A 
BRANCH   8  12
HETATM   12  O   UNK N   1      43.439  40.568  46.557  0.00  0.00    -0.358 OA
HETATM   13  H   UNK N   1      44.064  40.541  47.291  0.00  0.00     0.218 HD
ENDBRANCH   8  12
BRANCH   9  14
HETATM   14  O   UNK N   1      44.823  41.477  44.215  0.00  0.00    -0.358 OA
HETATM   15  H   UNK N   1      45.289  41.743  43.415  0.00  0.00     0.218 HD
ENDBRANCH   9  14
ENDBRANCH   5   6
ENDBRANCH   2   4
ENDBRANCH   1   2
BRANCH   1  16
HETATM   16  C   UNK N   1      39.560  48.529  46.076  0.00  0.00     0.213 C 
BRANCH  16  17
HETATM   17  C   UNK N   1      39.325  48.702  44.563  0.00  0.00     0.180 C 
HETATM   18  O   UNK N   1      37.943  48.492  44.299  0.00  0.00    -0.349 OA
HETATM   19  C   UNK N   1      37.679  48.540  42.905  0.00  0.00     0.288 C 
HETATM   20  C   UNK N   1      37.976  49.946  42.350  0.00  0.00     0.204 C 
HETATM   21  C   UNK N   1      39.450  50.288  42.616  0.00  0.00     0.183 C 
HETATM   22  C   UNK N   1      39.745  50.122  44.115  0.00  0.00     0.180 C 
BRANCH  19  23
HETATM   23  O   UNK N   1      36.323  48.253  42.690  0.00  0.00    -0.369 OA
HETATM   24  H   UNK N   1      36.270  47.757  41.832  0.00  0.00     0.212 HD
ENDBRANCH  19  23
BRANCH  20  25
HETATM   25  O   UNK N   1      37.707  49.968  40.971  0.00  0.00    -0.388 OA
HETATM   26  H   UNK N   1      36.874  50.495  40.846  0.00  0.00     0.210 HD
ENDBRANCH  20  25
BRANCH  21  27
HETATM   27  O   UNK N   1      39.706  51.607  42.208  0.00  0.00    -0.390 OA
HETATM   28  H   UNK N   1      39.082  51.808  41.463  0.00  0.00     0.210 HD
ENDBRANCH  21  27
BRANCH  22  29
HETATM   29  O   UNK N   1      41.118  50.303  44.356  0.00  0.00    -0.390 OA
HETATM   30  H   UNK N   1      41.461  50.906  43.648  0.00  0.00     0.210 HD
ENDBRANCH  22  29
ENDBRANCH  16  17
ENDBRANCH   1  16
TORSDOF 11
ENDMDL
MODEL 7
REMARK VINA RESULT:      -6.3      1.227      2.299
REMARK  11 active torsions:
REMARK  status: ('A' for Active; 'I' for Inactive)
REMARK    1  A    between atoms: C_2  and  O_3 
REMARK    2  A    between atoms: C_2  and  C_19 
REMARK    3  A    between atoms: O_3  and  C_4 
REMARK    4  A    between atoms: C_4  and  C_5 
REMARK    5  A    between atoms: C_7  and  O_8 
REMARK    6  A    between atoms: C_10  and  O_11 
REMARK    7  A    between atoms: C_13  and  O_14 
REMARK    8  A    between atoms: C_16  and  O_17 
REMARK    9  A    between atoms: C_20  and  C_21 
REMARK   10  A    between atoms: C_23  and  O_24 
REMARK   11  A    between atoms: C_26  and  O_27 
ROOT
HETATM    1  O   UNK N   1      41.516  48.202  46.718  0.00  0.00    -0.316 OA
ENDROOT
BRANCH   1   2
HETATM    2  C   UNK N   1      42.556  47.874  47.534  0.00  0.00     0.282 C 
HETATM    3  O   UNK N   1      43.697  48.203  47.248  0.00  0.00    -0.260 OA
BRANCH   2   4
HETATM    4  C   UNK N   1      42.316  47.119  48.780  0.00  0.00     0.083 C 
HETATM    5  C   UNK N   1      41.510  46.042  48.810  0.00  0.00     0.017 C 
BRANCH   5   6
HETATM    6  C   UNK N   1      41.233  45.240  50.035  0.00  0.00    -0.033 A 
HETATM    7  C   UNK N   1      41.882  45.598  51.227  0.00  0.00     0.050 A 
HETATM    8  C   UNK N   1      41.681  44.872  52.409  0.00  0.00     0.099 A 
HETATM    9  C   UNK N   1      40.793  43.767  52.404  0.00  0.00     0.098 A 
HETATM   10  C   UNK N   1      40.134  43.422  51.222  0.00  0.00     0.040 A 
HETATM   11  C   UNK N   1      40.350  44.142  50.046  0.00  0.00     0.014 A 
BRANCH   8  12
HETATM   12  O   UNK N   1      42.353  45.258  53.515  0.00  0.00    -0.358 OA
HETATM   13  H   UNK N   1      42.327  46.150  53.883  0.00  0.00     0.218 HD
ENDBRANCH   8  12
BRANCH   9  14
HETATM   14  O   UNK N   1      40.556  43.024  53.509  0.00  0.00    -0.358 OA
HETATM   15  H   UNK N   1      41.174  42.382  53.875  0.00  0.00     0.218 HD
ENDBRANCH   9  14
ENDBRANCH   5   6
ENDBRANCH   2   4
ENDBRANCH   1   2
BRANCH   1  16
HETATM   16  C   UNK N   1      41.666  48.819  45.488  0.00  0.00     0.213 C 
BRANCH  16  17
HETATM   17  C   UNK N   1      40.319  49.351  44.961  0.00  0.00     0.180 C 
HETATM   18  O   UNK N   1      40.576  50.189  43.842  0.00  0.00    -0.349 OA
HETATM   19  C   UNK N   1      39.380  50.790  43.371  0.00  0.00     0.288 C 
HETATM   20  C   UNK N   1      38.410  49.716  42.843  0.00  0.00     0.204 C 
HETATM   21  C   UNK N   1      38.090  48.730  43.977  0.00  0.00     0.183 C 
HETATM   22  C   UNK N   1      39.404  48.174  44.549  0.00  0.00     0.180 C 
BRANCH  19  23
HETATM   23  O   UNK N   1      39.694  51.663  42.319  0.00  0.00    -0.369 OA
HETATM   24  H   UNK N   1      40.031  51.102  41.574  0.00  0.00     0.212 HD
ENDBRANCH  19  23
BRANCH  20  25
HETATM   25  O   UNK N   1      37.236  50.335  42.383  0.00  0.00    -0.388 OA
HETATM   26  H   UNK N   1      36.921  50.935  43.109  0.00  0.00     0.210 HD
ENDBRANCH  20  25
BRANCH  21  27
HETATM   27  O   UNK N   1      37.291  47.688  43.480  0.00  0.00    -0.390 OA
HETATM   28  H   UNK N   1      37.865  46.880  43.428  0.00  0.00     0.210 HD
ENDBRANCH  21  27
BRANCH  22  29
HETATM   29  O   UNK N   1      39.136  47.372  45.672  0.00  0.00    -0.390 OA
HETATM   30  H   UNK N   1      39.885  46.726  45.755  0.00  0.00     0.210 HD
ENDBRANCH  22  29
ENDBRANCH  16  17
ENDBRANCH   1  16
TORSDOF 11
ENDMDL
MODEL 8
REMARK VINA RESULT:      -6.3      1.247      2.591
REMARK  11 active torsions:
REMARK  status: ('A' for Active; 'I' for Inactive)
REMARK    1  A    between atoms: C_2  and  O_3 
REMARK    2  A    between atoms: C_2  and  C_19 
REMARK    3  A    between atoms: O_3  and  C_4 
REMARK    4  A    between atoms: C_4  and  C_5 
REMARK    5  A    between atoms: C_7  and  O_8 
REMARK    6  A    between atoms: C_10  and  O_11 
REMARK    7  A    between atoms: C_13  and  O_14 
REMARK    8  A    between atoms: C_16  and  O_17 
REMARK    9  A    between atoms: C_20  and  C_21 
REMARK   10  A    between atoms: C_23  and  O_24 
REMARK   11  A    between atoms: C_26  and  O_27 
ROOT
HETATM    1  O   UNK N   1      39.336  47.368  46.778  0.00  0.00    -0.316 OA
ENDROOT
BRANCH   1   2
HETATM    2  C   UNK N   1      39.268  46.029  47.023  0.00  0.00     0.282 C 
HETATM    3  O   UNK N   1      39.013  45.246  46.121  0.00  0.00    -0.260 OA
BRANCH   2   4
HETATM    4  C   UNK N   1      39.504  45.508  48.384  0.00  0.00     0.083 C 
HETATM    5  C   UNK N   1      40.678  45.690  49.016  0.00  0.00     0.017 C 
BRANCH   5   6
HETATM    6  C   UNK N   1      40.973  45.190  50.389  0.00  0.00    -0.033 A 
HETATM    7  C   UNK N   1      40.110  44.236  50.951  0.00  0.00     0.050 A 
HETATM    8  C   UNK N   1      40.320  43.741  52.245  0.00  0.00     0.099 A 
HETATM    9  C   UNK N   1      41.434  44.200  52.994  0.00  0.00     0.098 A 
HETATM   10  C   UNK N   1      42.302  45.137  52.427  0.00  0.00     0.040 A 
HETATM   11  C   UNK N   1      42.078  45.634  51.143  0.00  0.00     0.014 A 
BRANCH   8  12
HETATM   12  O   UNK N   1      39.440  42.841  52.733  0.00  0.00    -0.358 OA
HETATM   13  H   UNK N   1      39.678  42.107  53.312  0.00  0.00     0.218 HD
ENDBRANCH   8  12
BRANCH   9  14
HETATM   14  O   UNK N   1      41.693  43.765  54.248  0.00  0.00    -0.358 OA
HETATM   15  H   UNK N   1      41.069  43.818  54.980  0.00  0.00     0.218 HD
ENDBRANCH   9  14
ENDBRANCH   5   6
ENDBRANCH   2   4
ENDBRANCH   1   2
BRANCH   1  16
HETATM   16  C   UNK N   1      40.159  47.935  45.821  0.00  0.00     0.213 C 
BRANCH  16  17
HETATM   17  C   UNK N   1      39.384  48.931  44.936  0.00  0.00     0.180 C 
HETATM   18  O   UNK N   1      40.324  49.785  44.296  0.00  0.00    -0.349 OA
HETATM   19  C   UNK N   1      39.666  50.791  43.541  0.00  0.00     0.288 C 
HETATM   20  C   UNK N   1      38.860  50.160  42.391  0.00  0.00     0.204 C 
HETATM   21  C   UNK N   1      37.828  49.185  42.978  0.00  0.00     0.183 C 
HETATM   22  C   UNK N   1      38.547  48.170  43.882  0.00  0.00     0.180 C 
BRANCH  19  23
HETATM   23  O   UNK N   1      40.629  51.651  42.993  0.00  0.00    -0.369 OA
HETATM   24  H   UNK N   1      41.275  51.079  42.504  0.00  0.00     0.212 HD
ENDBRANCH  19  23
BRANCH  20  25
HETATM   25  O   UNK N   1      38.219  51.174  41.661  0.00  0.00    -0.388 OA
HETATM   26  H   UNK N   1      37.432  50.761  41.218  0.00  0.00     0.210 HD
ENDBRANCH  20  25
BRANCH  21  27
HETATM   27  O   UNK N   1      37.159  48.526  41.935  0.00  0.00    -0.390 OA
HETATM   28  H   UNK N   1      37.531  48.876  41.084  0.00  0.00     0.210 HD
ENDBRANCH  21  27
BRANCH  22  29
HETATM   29  O   UNK N   1      37.605  47.354  44.530  0.00  0.00    -0.390 OA
HETATM   30  H   UNK N   1      38.093  46.562  44.873  0.00  0.00     0.210 HD
ENDBRANCH  22  29
ENDBRANCH  16  17
ENDBRANCH   1  16
TORSDOF 11
ENDMDL
MODEL 9
REMARK VINA RESULT:      -6.3      3.504      9.479
REMARK  11 active torsions:
REMARK  status: ('A' for Active; 'I' for Inactive)
REMARK    1  A    between atoms: C_2  and  O_3 
REMARK    2  A    between atoms: C_2  and  C_19 
REMARK    3  A    between atoms: O_3  and  C_4 
REMARK    4  A    between atoms: C_4  and  C_5 
REMARK    5  A    between atoms: C_7  and  O_8 
REMARK    6  A    between atoms: C_10  and  O_11 
REMARK    7  A    between atoms: C_13  and  O_14 
REMARK    8  A    between atoms: C_16  and  O_17 
REMARK    9  A    between atoms: C_20  and  C_21 
REMARK   10  A    between atoms: C_23  and  O_24 
REMARK   11  A    between atoms: C_26  and  O_27 
ROOT
HETATM    1  O   UNK N   1      38.866  48.233  44.324  0.00  0.00    -0.316 OA
ENDROOT
BRANCH   1   2
HETATM    2  C   UNK N   1      38.571  49.223  43.436  0.00  0.00     0.282 C 
HETATM    3  O   UNK N   1      39.266  49.398  42.448  0.00  0.00    -0.260 OA
BRANCH   2   4
HETATM    4  C   UNK N   1      37.400  50.096  43.656  0.00  0.00     0.083 C 
HETATM    5  C   UNK N   1      36.150  49.689  43.369  0.00  0.00     0.017 C 
BRANCH   5   6
HETATM    6  C   UNK N   1      34.932  50.524  43.574  0.00  0.00    -0.033 A 
HETATM    7  C   UNK N   1      33.845  50.342  42.705  0.00  0.00     0.050 A 
HETATM    8  C   UNK N   1      32.679  51.109  42.831  0.00  0.00     0.099 A 
HETATM    9  C   UNK N   1      32.590  52.074  43.866  0.00  0.00     0.098 A 
HETATM   10  C   UNK N   1      33.666  52.242  44.742  0.00  0.00     0.040 A 
HETATM   11  C   UNK N   1      34.829  51.483  44.601  0.00  0.00     0.014 A 
BRANCH   8  12
HETATM   12  O   UNK N   1      31.679  50.897  41.949  0.00  0.00    -0.358 OA
HETATM   13  H   UNK N   1      31.412  50.027  41.630  0.00  0.00     0.218 HD
ENDBRANCH   8  12
BRANCH   9  14
HETATM   14  O   UNK N   1      31.495  52.848  44.043  0.00  0.00    -0.358 OA
HETATM   15  H   UNK N   1      30.628  52.512  44.296  0.00  0.00     0.218 HD
ENDBRANCH   9  14
ENDBRANCH   5   6
ENDBRANCH   2   4
ENDBRANCH   1   2
BRANCH   1  16
HETATM   16  C   UNK N   1      39.657  48.415  45.445  0.00  0.00     0.213 C 
BRANCH  16  17
HETATM   17  C   UNK N   1      40.084  47.064  46.053  0.00  0.00     0.180 C 
HETATM   18  O   UNK N   1      41.084  47.311  47.033  0.00  0.00    -0.349 OA
HETATM   19  C   UNK N   1      41.591  46.095  47.561  0.00  0.00     0.288 C 
HETATM   20  C   UNK N   1      40.483  45.333  48.313  0.00  0.00     0.204 C 
HETATM   21  C   UNK N   1      39.328  45.043  47.343  0.00  0.00     0.183 C 
HETATM   22  C   UNK N   1      38.867  46.359  46.697  0.00  0.00     0.180 C 
BRANCH  19  23
HETATM   23  O   UNK N   1      42.624  46.386  48.463  0.00  0.00    -0.369 OA
HETATM   24  H   UNK N   1      42.420  47.276  48.851  0.00  0.00     0.212 HD
ENDBRANCH  19  23
BRANCH  20  25
HETATM   25  O   UNK N   1      41.008  44.135  48.825  0.00  0.00    -0.388 OA
HETATM   26  H   UNK N   1      41.801  43.906  48.273  0.00  0.00     0.210 HD
ENDBRANCH  20  25
BRANCH  21  27
HETATM   27  O   UNK N   1      38.269  44.442  48.042  0.00  0.00    -0.390 OA
HETATM   28  H   UNK N   1      38.195  43.509  47.712  0.00  0.00     0.210 HD
ENDBRANCH  21  27
BRANCH  22  29
HETATM   29  O   UNK N   1      37.901  46.097  45.711  0.00  0.00    -0.390 OA
HETATM   30  H   UNK N   1      37.238  45.476  46.110  0.00  0.00     0.210 HD
ENDBRANCH  22  29
ENDBRANCH  16  17
ENDBRANCH   1  16
TORSDOF 11
ENDMDL
