MODEL 1
REMARK VINA RESULT:      -6.8      0.000      0.000
REMARK  13 active torsions:
REMARK  status: ('A' for Active; 'I' for Inactive)
REMARK    1  A    between atoms: C_2  and  O_3 
REMARK    2  A    between atoms: C_2  and  C_32 
REMARK    3  A    between atoms: O_3  and  C_4 
REMARK    4  A    between atoms: C_7  and  O_8 
REMARK    5  A    between atoms: O_8  and  C_9 
REMARK    6  A    between atoms: C_11  and  C_21 
REMARK    7  A    between atoms: C_12  and  O_13 
REMARK    8  A    between atoms: C_15  and  O_16 
REMARK    9  A    between atoms: C_18  and  O_19 
REMARK   10  A    between atoms: C_21  and  O_22 
REMARK   11  A    between atoms: C_27  and  O_28 
REMARK   12  A    between atoms: C_33  and  C_34 
REMARK   13  A    between atoms: C_37  and  O_38 
ROOT
HETATM    1  C   UNK N   1      40.450  46.800  45.874  0.00  0.00     0.143 C 
HETATM    2  C   UNK N   1      39.322  45.787  46.131  0.00  0.00     0.051 C 
HETATM    3  C   UNK N   1      40.006  44.526  46.667  0.00  0.00     0.085 C 
HETATM    4  C   UNK N   1      40.158  44.644  48.202  0.00  0.00     0.276 C 
HETATM    5  O   UNK N   1      38.896  44.872  48.742  0.00  0.00    -0.332 OA
HETATM    6  C   UNK N   1      38.063  45.836  48.258  0.00  0.00     0.134 C 
HETATM    7  C   UNK N   1      38.233  46.332  47.021  0.00  0.00     0.005 C 
HETATM    8  C   UNK N   1      41.298  44.500  45.803  0.00  0.00     0.065 C 
HETATM    9  C   UNK N   1      41.750  45.965  45.859  0.00  0.00     0.071 C 
HETATM   10  C   UNK N   1      42.398  43.530  46.271  0.00  0.00     0.046 C 
ENDROOT
BRANCH   4  11
HETATM   11  O   UNK N   1      40.695  43.432  48.690  0.00  0.00    -0.328 OA
BRANCH  11  12
HETATM   12  C   UNK N   1      41.275  43.570  49.973  0.00  0.00     0.294 C 
HETATM   13  O   UNK N   1      40.314  43.271  50.975  0.00  0.00    -0.348 OA
HETATM   14  C   UNK N   1      40.893  43.357  52.268  0.00  0.00     0.179 C 
HETATM   15  C   UNK N   1      41.287  44.822  52.565  0.00  0.00     0.180 C 
HETATM   16  C   UNK N   1      42.307  45.276  51.506  0.00  0.00     0.183 C 
HETATM   17  C   UNK N   1      41.724  45.041  50.107  0.00  0.00     0.204 C 
BRANCH  14  18
HETATM   18  C   UNK N   1      39.876  42.837  53.293  0.00  0.00     0.198 C 
BRANCH  18  19
HETATM   19  O   UNK N   1      39.336  43.899  54.031  0.00  0.00    -0.398 OA
HETATM   20  H   UNK N   1      38.352  43.763  54.056  0.00  0.00     0.209 HD
ENDBRANCH  18  19
ENDBRANCH  14  18
BRANCH  15  21
HETATM   21  O   UNK N   1      41.853  44.919  53.847  0.00  0.00    -0.390 OA
HETATM   22  H   UNK N   1      41.329  44.320  54.440  0.00  0.00     0.210 HD
ENDBRANCH  15  21
BRANCH  16  23
HETATM   23  O   UNK N   1      42.611  46.638  51.660  0.00  0.00    -0.390 OA
HETATM   24  H   UNK N   1      41.767  47.141  51.520  0.00  0.00     0.210 HD
ENDBRANCH  16  23
BRANCH  17  25
HETATM   25  O   UNK N   1      42.697  45.351  49.142  0.00  0.00    -0.388 OA
HETATM   26  H   UNK N   1      43.020  44.490  48.768  0.00  0.00     0.210 HD
ENDBRANCH  17  25
ENDBRANCH  11  12
ENDBRANCH   4  11
BRANCH   8  27
HETATM   27  O   UNK N   1      40.966  44.202  44.464  0.00  0.00    -0.390 OA
HETATM   28  H   UNK N   1      40.237  44.819  44.190  0.00  0.00     0.210 HD
ENDBRANCH   8  27
BRANCH   1  29
HETATM   29  O   UNK N   1      40.219  47.428  44.661  0.00  0.00    -0.312 OA
BRANCH  29  30
HETATM   30  C   UNK N   1      39.791  48.716  44.545  0.00  0.00     0.283 C 
HETATM   31  O   UNK N   1      40.593  49.634  44.472  0.00  0.00    -0.260 OA
BRANCH  30  32
HETATM   32  C   UNK N   1      38.348  49.026  44.522  0.00  0.00     0.083 C 
HETATM   33  C   UNK N   1      37.618  48.944  43.393  0.00  0.00     0.017 C 
BRANCH  33  34
HETATM   34  C   UNK N   1      36.163  49.266  43.319  0.00  0.00    -0.036 A 
HETATM   35  C   UNK N   1      35.769  50.613  43.401  0.00  0.00     0.014 A 
HETATM   36  C   UNK N   1      34.418  50.965  43.337  0.00  0.00     0.037 A 
HETATM   37  C   UNK N   1      33.437  49.973  43.200  0.00  0.00     0.065 A 
HETATM   38  C   UNK N   1      33.817  48.632  43.127  0.00  0.00     0.037 A 
HETATM   39  C   UNK N   1      35.166  48.274  43.182  0.00  0.00     0.014 A 
BRANCH  37  40
HETATM   40  O   UNK N   1      32.130  50.301  43.139  0.00  0.00    -0.361 OA
HETATM   41  H   UNK N   1      31.434  49.635  43.234  0.00  0.00     0.217 HD
ENDBRANCH  37  40
ENDBRANCH  33  34
ENDBRANCH  30  32
ENDBRANCH  29  30
ENDBRANCH   1  29
TORSDOF 13
ENDMDL
MODEL 2
REMARK VINA RESULT:      -6.4      7.700     15.650
REMARK  13 active torsions:
REMARK  status: ('A' for Active; 'I' for Inactive)
REMARK    1  A    between atoms: C_2  and  O_3 
REMARK    2  A    between atoms: C_2  and  C_32 
REMARK    3  A    between atoms: O_3  and  C_4 
REMARK    4  A    between atoms: C_7  and  O_8 
REMARK    5  A    between atoms: O_8  and  C_9 
REMARK    6  A    between atoms: C_11  and  C_21 
REMARK    7  A    between atoms: C_12  and  O_13 
REMARK    8  A    between atoms: C_15  and  O_16 
REMARK    9  A    between atoms: C_18  and  O_19 
REMARK   10  A    between atoms: C_21  and  O_22 
REMARK   11  A    between atoms: C_27  and  O_28 
REMARK   12  A    between atoms: C_33  and  C_34 
REMARK   13  A    between atoms: C_37  and  O_38 
ROOT
HETATM    1  C   UNK N   1      30.140  54.119  42.534  0.00  0.00     0.143 C 
HETATM    2  C   UNK N   1      29.305  55.318  42.053  0.00  0.00     0.051 C 
HETATM    3  C   UNK N   1      28.964  55.030  40.589  0.00  0.00     0.085 C 
HETATM    4  C   UNK N   1      27.668  54.188  40.525  0.00  0.00     0.276 C 
HETATM    5  O   UNK N   1      26.672  54.880  41.208  0.00  0.00    -0.332 OA
HETATM    6  C   UNK N   1      26.867  55.383  42.460  0.00  0.00     0.134 C 
HETATM    7  C   UNK N   1      28.108  55.592  42.930  0.00  0.00     0.005 C 
HETATM    8  C   UNK N   1      30.287  54.376  40.099  0.00  0.00     0.065 C 
HETATM    9  C   UNK N   1      30.608  53.407  41.245  0.00  0.00     0.071 C 
HETATM   10  C   UNK N   1      30.219  53.667  38.735  0.00  0.00     0.046 C 
ENDROOT
BRANCH   4  11
HETATM   11  O   UNK N   1      27.313  54.021  39.167  0.00  0.00    -0.328 OA
BRANCH  11  12
HETATM   12  C   UNK N   1      26.392  52.964  38.971  0.00  0.00     0.294 C 
HETATM   13  O   UNK N   1      26.432  52.075  40.077  0.00  0.00    -0.348 OA
HETATM   14  C   UNK N   1      25.480  51.034  39.919  0.00  0.00     0.179 C 
HETATM   15  C   UNK N   1      25.876  50.144  38.719  0.00  0.00     0.180 C 
HETATM   16  C   UNK N   1      25.907  51.018  37.454  0.00  0.00     0.183 C 
HETATM   17  C   UNK N   1      26.830  52.219  37.691  0.00  0.00     0.204 C 
BRANCH  14  18
HETATM   18  C   UNK N   1      25.424  50.222  41.220  0.00  0.00     0.198 C 
BRANCH  18  19
HETATM   19  O   UNK N   1      24.378  49.289  41.173  0.00  0.00    -0.398 OA
HETATM   20  H   UNK N   1      24.119  49.098  42.112  0.00  0.00     0.209 HD
ENDBRANCH  18  19
ENDBRANCH  14  18
BRANCH  15  21
HETATM   21  O   UNK N   1      24.943  49.105  38.561  0.00  0.00    -0.390 OA
HETATM   22  H   UNK N   1      24.372  49.346  37.786  0.00  0.00     0.210 HD
ENDBRANCH  15  21
BRANCH  16  23
HETATM   23  O   UNK N   1      26.376  50.282  36.354  0.00  0.00    -0.390 OA
HETATM   24  H   UNK N   1      27.315  50.560  36.197  0.00  0.00     0.210 HD
ENDBRANCH  16  23
BRANCH  17  25
HETATM   25  O   UNK N   1      26.771  53.075  36.578  0.00  0.00    -0.388 OA
HETATM   26  H   UNK N   1      27.507  52.808  35.967  0.00  0.00     0.210 HD
ENDBRANCH  17  25
ENDBRANCH  11  12
ENDBRANCH   4  11
BRANCH   8  27
HETATM   27  O   UNK N   1      31.308  55.349  40.058  0.00  0.00    -0.390 OA
HETATM   28  H   UNK N   1      32.080  54.996  40.576  0.00  0.00     0.210 HD
ENDBRANCH   8  27
BRANCH   1  29
HETATM   29  O   UNK N   1      31.204  54.589  43.286  0.00  0.00    -0.312 OA
BRANCH  29  30
HETATM   30  C   UNK N   1      31.783  53.887  44.300  0.00  0.00     0.283 C 
HETATM   31  O   UNK N   1      31.439  54.067  45.457  0.00  0.00    -0.260 OA
BRANCH  30  32
HETATM   32  C   UNK N   1      32.850  52.907  44.017  0.00  0.00     0.083 C 
HETATM   33  C   UNK N   1      32.582  51.607  43.786  0.00  0.00     0.017 C 
BRANCH  33  34
HETATM   34  C   UNK N   1      33.628  50.578  43.515  0.00  0.00    -0.036 A 
HETATM   35  C   UNK N   1      33.242  49.228  43.459  0.00  0.00     0.014 A 
HETATM   36  C   UNK N   1      34.185  48.227  43.209  0.00  0.00     0.037 A 
HETATM   37  C   UNK N   1      35.533  48.560  43.021  0.00  0.00     0.065 A 
HETATM   38  C   UNK N   1      35.929  49.898  43.084  0.00  0.00     0.037 A 
HETATM   39  C   UNK N   1      34.990  50.903  43.325  0.00  0.00     0.014 A 
BRANCH  37  40
HETATM   40  O   UNK N   1      36.453  47.603  42.781  0.00  0.00    -0.361 OA
HETATM   41  H   UNK N   1      36.425  46.746  43.230  0.00  0.00     0.217 HD
ENDBRANCH  37  40
ENDBRANCH  33  34
ENDBRANCH  30  32
ENDBRANCH  29  30
ENDBRANCH   1  29
TORSDOF 13
ENDMDL
MODEL 3
REMARK VINA RESULT:      -6.3     12.825     16.987
REMARK  13 active torsions:
REMARK  status: ('A' for Active; 'I' for Inactive)
REMARK    1  A    between atoms: C_2  and  O_3 
REMARK    2  A    between atoms: C_2  and  C_32 
REMARK    3  A    between atoms: O_3  and  C_4 
REMARK    4  A    between atoms: C_7  and  O_8 
REMARK    5  A    between atoms: O_8  and  C_9 
REMARK    6  A    between atoms: C_11  and  C_21 
REMARK    7  A    between atoms: C_12  and  O_13 
REMARK    8  A    between atoms: C_15  and  O_16 
REMARK    9  A    between atoms: C_18  and  O_19 
REMARK   10  A    between atoms: C_21  and  O_22 
REMARK   11  A    between atoms: C_27  and  O_28 
REMARK   12  A    between atoms: C_33  and  C_34 
REMARK   13  A    between atoms: C_37  and  O_38 
ROOT
HETATM    1  C   UNK N   1      31.133  43.381  59.566  0.00  0.00     0.143 C 
HETATM    2  C   UNK N   1      30.200  44.375  58.854  0.00  0.00     0.051 C 
HETATM    3  C   UNK N   1      30.231  43.991  57.372  0.00  0.00     0.085 C 
HETATM    4  C   UNK N   1      29.163  42.904  57.108  0.00  0.00     0.276 C 
HETATM    5  O   UNK N   1      27.934  43.397  57.536  0.00  0.00    -0.332 OA
HETATM    6  C   UNK N   1      27.766  43.957  58.766  0.00  0.00     0.134 C 
HETATM    7  C   UNK N   1      28.819  44.423  59.458  0.00  0.00     0.005 C 
HETATM    8  C   UNK N   1      31.727  43.606  57.197  0.00  0.00     0.065 C 
HETATM    9  C   UNK N   1      31.985  42.748  58.443  0.00  0.00     0.071 C 
HETATM   10  C   UNK N   1      32.080  42.865  55.894  0.00  0.00     0.046 C 
ENDROOT
BRANCH   4  11
HETATM   11  O   UNK N   1      29.134  42.636  55.720  0.00  0.00    -0.328 OA
BRANCH  11  12
HETATM   12  C   UNK N   1      28.442  41.443  55.409  0.00  0.00     0.294 C 
HETATM   13  O   UNK N   1      29.276  40.320  55.654  0.00  0.00    -0.348 OA
HETATM   14  C   UNK N   1      28.581  39.111  55.393  0.00  0.00     0.179 C 
HETATM   15  C   UNK N   1      28.264  39.008  53.884  0.00  0.00     0.180 C 
HETATM   16  C   UNK N   1      27.388  40.209  53.488  0.00  0.00     0.183 C 
HETATM   17  C   UNK N   1      28.088  41.507  53.907  0.00  0.00     0.204 C 
BRANCH  14  18
HETATM   18  C   UNK N   1      29.452  37.936  55.859  0.00  0.00     0.198 C 
BRANCH  18  19
HETATM   19  O   UNK N   1      30.218  37.440  54.795  0.00  0.00    -0.398 OA
HETATM   20  H   UNK N   1      31.066  37.957  54.784  0.00  0.00     0.209 HD
ENDBRANCH  18  19
ENDBRANCH  14  18
BRANCH  15  21
HETATM   21  O   UNK N   1      27.583  37.809  53.614  0.00  0.00    -0.390 OA
HETATM   22  H   UNK N   1      27.376  37.392  54.490  0.00  0.00     0.210 HD
ENDBRANCH  15  21
BRANCH  16  23
HETATM   23  O   UNK N   1      27.168  40.227  52.101  0.00  0.00    -0.390 OA
HETATM   24  H   UNK N   1      28.015  39.944  51.669  0.00  0.00     0.210 HD
ENDBRANCH  16  23
BRANCH  17  25
HETATM   25  O   UNK N   1      27.239  42.596  53.647  0.00  0.00    -0.388 OA
HETATM   26  H   UNK N   1      27.263  42.756  52.668  0.00  0.00     0.210 HD
ENDBRANCH  17  25
ENDBRANCH  11  12
ENDBRANCH   4  11
BRANCH   8  27
HETATM   27  O   UNK N   1      32.528  44.763  57.297  0.00  0.00    -0.390 OA
HETATM   28  H   UNK N   1      32.047  45.502  56.840  0.00  0.00     0.210 HD
ENDBRANCH   8  27
BRANCH   1  29
HETATM   29  O   UNK N   1      31.908  44.073  60.482  0.00  0.00    -0.312 OA
BRANCH  29  30
HETATM   30  C   UNK N   1      32.445  43.508  61.599  0.00  0.00     0.283 C 
HETATM   31  O   UNK N   1      31.745  42.875  62.373  0.00  0.00    -0.260 OA
BRANCH  30  32
HETATM   32  C   UNK N   1      33.881  43.667  61.902  0.00  0.00     0.083 C 
HETATM   33  C   UNK N   1      34.312  44.379  62.961  0.00  0.00     0.017 C 
BRANCH  33  34
HETATM   34  C   UNK N   1      35.753  44.583  63.295  0.00  0.00    -0.036 A 
HETATM   35  C   UNK N   1      36.624  45.000  62.274  0.00  0.00     0.014 A 
HETATM   36  C   UNK N   1      37.982  45.205  62.538  0.00  0.00     0.037 A 
HETATM   37  C   UNK N   1      38.491  44.984  63.824  0.00  0.00     0.065 A 
HETATM   38  C   UNK N   1      37.636  44.560  64.843  0.00  0.00     0.037 A 
HETATM   39  C   UNK N   1      36.277  44.362  64.588  0.00  0.00     0.014 A 
BRANCH  37  40
HETATM   40  O   UNK N   1      39.800  45.175  64.090  0.00  0.00    -0.361 OA
HETATM   41  H   UNK N   1      40.104  45.485  64.954  0.00  0.00     0.217 HD
ENDBRANCH  37  40
ENDBRANCH  33  34
ENDBRANCH  30  32
ENDBRANCH  29  30
ENDBRANCH   1  29
TORSDOF 13
ENDMDL
MODEL 4
REMARK VINA RESULT:      -6.2     10.905     16.600
REMARK  13 active torsions:
REMARK  status: ('A' for Active; 'I' for Inactive)
REMARK    1  A    between atoms: C_2  and  O_3 
REMARK    2  A    between atoms: C_2  and  C_32 
REMARK    3  A    between atoms: O_3  and  C_4 
REMARK    4  A    between atoms: C_7  and  O_8 
REMARK    5  A    between atoms: O_8  and  C_9 
REMARK    6  A    between atoms: C_11  and  C_21 
REMARK    7  A    between atoms: C_12  and  O_13 
REMARK    8  A    between atoms: C_15  and  O_16 
REMARK    9  A    between atoms: C_18  and  O_19 
REMARK   10  A    between atoms: C_21  and  O_22 
REMARK   11  A    between atoms: C_27  and  O_28 
REMARK   12  A    between atoms: C_33  and  C_34 
REMARK   13  A    between atoms: C_37  and  O_38 
ROOT
HETATM    1  C   UNK N   1      29.108  51.941  40.232  0.00  0.00     0.143 C 
HETATM    2  C   UNK N   1      29.437  52.791  38.994  0.00  0.00     0.051 C 
HETATM    3  C   UNK N   1      28.118  53.444  38.572  0.00  0.00     0.085 C 
HETATM    4  C   UNK N   1      27.936  54.769  39.349  0.00  0.00     0.276 C 
HETATM    5  O   UNK N   1      29.055  55.561  39.115  0.00  0.00    -0.332 OA
HETATM    6  C   UNK N   1      30.324  55.084  39.255  0.00  0.00     0.134 C 
HETATM    7  C   UNK N   1      30.566  53.763  39.229  0.00  0.00     0.005 C 
HETATM    8  C   UNK N   1      27.114  52.289  38.848  0.00  0.00     0.065 C 
HETATM    9  C   UNK N   1      27.570  51.791  40.225  0.00  0.00     0.071 C 
HETATM   10  C   UNK N   1      25.625  52.677  38.830  0.00  0.00     0.046 C 
ENDROOT
BRANCH   4  11
HETATM   11  O   UNK N   1      26.768  55.407  38.874  0.00  0.00    -0.328 OA
BRANCH  11  12
HETATM   12  C   UNK N   1      26.259  56.362  39.784  0.00  0.00     0.294 C 
HETATM   13  O   UNK N   1      27.077  57.523  39.776  0.00  0.00    -0.348 OA
HETATM   14  C   UNK N   1      26.553  58.512  40.649  0.00  0.00     0.179 C 
HETATM   15  C   UNK N   1      26.638  58.015  42.111  0.00  0.00     0.180 C 
HETATM   16  C   UNK N   1      25.813  56.722  42.233  0.00  0.00     0.183 C 
HETATM   17  C   UNK N   1      26.294  55.712  41.185  0.00  0.00     0.204 C 
BRANCH  14  18
HETATM   18  C   UNK N   1      27.353  59.807  40.456  0.00  0.00     0.198 C 
BRANCH  18  19
HETATM   19  O   UNK N   1      28.475  59.821  41.297  0.00  0.00    -0.398 OA
HETATM   20  H   UNK N   1      29.261  59.597  40.733  0.00  0.00     0.209 HD
ENDBRANCH  18  19
ENDBRANCH  14  18
BRANCH  15  21
HETATM   21  O   UNK N   1      26.129  58.992  42.983  0.00  0.00    -0.390 OA
HETATM   22  H   UNK N   1      26.320  58.682  43.906  0.00  0.00     0.210 HD
ENDBRANCH  15  21
BRANCH  16  23
HETATM   23  O   UNK N   1      25.952  56.164  43.514  0.00  0.00    -0.390 OA
HETATM   24  H   UNK N   1      26.729  56.607  43.941  0.00  0.00     0.210 HD
ENDBRANCH  16  23
BRANCH  17  25
HETATM   25  O   UNK N   1      25.469  54.576  41.222  0.00  0.00    -0.388 OA
HETATM   26  H   UNK N   1      24.536  54.897  41.330  0.00  0.00     0.210 HD
ENDBRANCH  17  25
ENDBRANCH  11  12
ENDBRANCH   4  11
BRANCH   8  27
HETATM   27  O   UNK N   1      27.326  51.247  37.920  0.00  0.00    -0.390 OA
HETATM   28  H   UNK N   1      28.292  51.019  37.939  0.00  0.00     0.210 HD
ENDBRANCH   8  27
BRANCH   1  29
HETATM   29  O   UNK N   1      29.753  50.720  40.120  0.00  0.00    -0.312 OA
BRANCH  29  30
HETATM   30  C   UNK N   1      30.838  50.366  40.862  0.00  0.00     0.283 C 
HETATM   31  O   UNK N   1      31.167  49.194  40.962  0.00  0.00    -0.260 OA
BRANCH  30  32
HETATM   32  C   UNK N   1      31.626  51.391  41.573  0.00  0.00     0.083 C 
HETATM   33  C   UNK N   1      31.236  51.895  42.759  0.00  0.00     0.017 C 
BRANCH  33  34
HETATM   34  C   UNK N   1      31.990  52.947  43.504  0.00  0.00    -0.036 A 
HETATM   35  C   UNK N   1      31.559  54.280  43.401  0.00  0.00     0.014 A 
HETATM   36  C   UNK N   1      32.232  55.300  44.080  0.00  0.00     0.037 A 
HETATM   37  C   UNK N   1      33.354  55.003  44.864  0.00  0.00     0.065 A 
HETATM   38  C   UNK N   1      33.796  53.683  44.966  0.00  0.00     0.037 A 
HETATM   39  C   UNK N   1      33.123  52.658  44.297  0.00  0.00     0.014 A 
BRANCH  37  40
HETATM   40  O   UNK N   1      34.013  55.980  45.522  0.00  0.00    -0.361 OA
HETATM   41  H   UNK N   1      34.961  56.128  45.396  0.00  0.00     0.217 HD
ENDBRANCH  37  40
ENDBRANCH  33  34
ENDBRANCH  30  32
ENDBRANCH  29  30
ENDBRANCH   1  29
TORSDOF 13
ENDMDL
MODEL 5
REMARK VINA RESULT:      -6.1     11.813     16.525
REMARK  13 active torsions:
REMARK  status: ('A' for Active; 'I' for Inactive)
REMARK    1  A    between atoms: C_2  and  O_3 
REMARK    2  A    between atoms: C_2  and  C_32 
REMARK    3  A    between atoms: O_3  and  C_4 
REMARK    4  A    between atoms: C_7  and  O_8 
REMARK    5  A    between atoms: O_8  and  C_9 
REMARK    6  A    between atoms: C_11  and  C_21 
REMARK    7  A    between atoms: C_12  and  O_13 
REMARK    8  A    between atoms: C_15  and  O_16 
REMARK    9  A    between atoms: C_18  and  O_19 
REMARK   10  A    between atoms: C_21  and  O_22 
REMARK   11  A    between atoms: C_27  and  O_28 
REMARK   12  A    between atoms: C_33  and  C_34 
REMARK   13  A    between atoms: C_37  and  O_38 
ROOT
HETATM    1  C   UNK N   1      29.024  50.925  40.785  0.00  0.00     0.143 C 
HETATM    2  C   UNK N   1      29.455  52.284  40.208  0.00  0.00     0.051 C 
HETATM    3  C   UNK N   1      28.162  53.072  39.979  0.00  0.00     0.085 C 
HETATM    4  C   UNK N   1      27.787  53.820  41.280  0.00  0.00     0.276 C 
HETATM    5  O   UNK N   1      28.870  54.612  41.648  0.00  0.00    -0.332 OA
HETATM    6  C   UNK N   1      30.139  54.119  41.716  0.00  0.00     0.134 C 
HETATM    7  C   UNK N   1      30.473  52.993  41.066  0.00  0.00     0.005 C 
HETATM    8  C   UNK N   1      27.213  51.945  39.482  0.00  0.00     0.065 C 
HETATM    9  C   UNK N   1      27.515  50.812  40.472  0.00  0.00     0.071 C 
HETATM   10  C   UNK N   1      25.716  52.300  39.440  0.00  0.00     0.046 C 
ENDROOT
BRANCH   4  11
HETATM   11  O   UNK N   1      26.652  54.620  41.021  0.00  0.00    -0.328 OA
BRANCH  11  12
HETATM   12  C   UNK N   1      26.729  55.892  41.636  0.00  0.00     0.294 C 
HETATM   13  O   UNK N   1      25.566  56.126  42.416  0.00  0.00    -0.348 OA
HETATM   14  C   UNK N   1      25.649  57.378  43.079  0.00  0.00     0.179 C 
HETATM   15  C   UNK N   1      25.626  58.521  42.038  0.00  0.00     0.180 C 
HETATM   16  C   UNK N   1      26.833  58.347  41.100  0.00  0.00     0.183 C 
HETATM   17  C   UNK N   1      26.810  56.936  40.500  0.00  0.00     0.204 C 
BRANCH  14  18
HETATM   18  C   UNK N   1      24.469  57.493  44.054  0.00  0.00     0.198 C 
BRANCH  18  19
HETATM   19  O   UNK N   1      24.932  57.585  45.375  0.00  0.00    -0.398 OA
HETATM   20  H   UNK N   1      25.759  57.039  45.430  0.00  0.00     0.209 HD
ENDBRANCH  18  19
ENDBRANCH  14  18
BRANCH  15  21
HETATM   21  O   UNK N   1      25.699  59.765  42.686  0.00  0.00    -0.390 OA
HETATM   22  H   UNK N   1      26.602  59.826  43.093  0.00  0.00     0.210 HD
ENDBRANCH  15  21
BRANCH  16  23
HETATM   23  O   UNK N   1      26.795  59.293  40.062  0.00  0.00    -0.390 OA
HETATM   24  H   UNK N   1      27.048  60.167  40.456  0.00  0.00     0.210 HD
ENDBRANCH  16  23
BRANCH  17  25
HETATM   25  O   UNK N   1      27.970  56.740  39.732  0.00  0.00    -0.388 OA
HETATM   26  H   UNK N   1      28.259  55.801  39.874  0.00  0.00     0.210 HD
ENDBRANCH  17  25
ENDBRANCH  11  12
ENDBRANCH   4  11
BRANCH   8  27
HETATM   27  O   UNK N   1      27.618  51.516  38.201  0.00  0.00    -0.390 OA
HETATM   28  H   UNK N   1      28.518  51.106  38.291  0.00  0.00     0.210 HD
ENDBRANCH   8  27
BRANCH   1  29
HETATM   29  O   UNK N   1      29.761  49.925  40.172  0.00  0.00    -0.312 OA
BRANCH  29  30
HETATM   30  C   UNK N   1      30.438  48.959  40.851  0.00  0.00     0.283 C 
HETATM   31  O   UNK N   1      30.527  49.001  42.068  0.00  0.00    -0.260 OA
BRANCH  30  32
HETATM   32  C   UNK N   1      31.091  47.852  40.126  0.00  0.00     0.083 C 
HETATM   33  C   UNK N   1      30.392  46.812  39.631  0.00  0.00     0.017 C 
BRANCH  33  34
HETATM   34  C   UNK N   1      31.011  45.662  38.908  0.00  0.00    -0.036 A 
HETATM   35  C   UNK N   1      31.260  44.478  39.622  0.00  0.00     0.014 A 
HETATM   36  C   UNK N   1      31.838  43.373  38.990  0.00  0.00     0.037 A 
HETATM   37  C   UNK N   1      32.187  43.441  37.634  0.00  0.00     0.065 A 
HETATM   38  C   UNK N   1      31.952  44.616  36.917  0.00  0.00     0.037 A 
HETATM   39  C   UNK N   1      31.367  45.720  37.542  0.00  0.00     0.014 A 
BRANCH  37  40
HETATM   40  O   UNK N   1      32.748  42.383  37.014  0.00  0.00    -0.361 OA
HETATM   41  H   UNK N   1      32.322  41.949  36.261  0.00  0.00     0.217 HD
ENDBRANCH  37  40
ENDBRANCH  33  34
ENDBRANCH  30  32
ENDBRANCH  29  30
ENDBRANCH   1  29
TORSDOF 13
ENDMDL
MODEL 6
REMARK VINA RESULT:      -6.1      2.245      9.069
REMARK  13 active torsions:
REMARK  status: ('A' for Active; 'I' for Inactive)
REMARK    1  A    between atoms: C_2  and  O_3 
REMARK    2  A    between atoms: C_2  and  C_32 
REMARK    3  A    between atoms: O_3  and  C_4 
REMARK    4  A    between atoms: C_7  and  O_8 
REMARK    5  A    between atoms: O_8  and  C_9 
REMARK    6  A    between atoms: C_11  and  C_21 
REMARK    7  A    between atoms: C_12  and  O_13 
REMARK    8  A    between atoms: C_15  and  O_16 
REMARK    9  A    between atoms: C_18  and  O_19 
REMARK   10  A    between atoms: C_21  and  O_22 
REMARK   11  A    between atoms: C_27  and  O_28 
REMARK   12  A    between atoms: C_33  and  C_34 
REMARK   13  A    between atoms: C_37  and  O_38 
ROOT
HETATM    1  C   UNK N   1      41.672  45.292  46.075  0.00  0.00     0.143 C 
HETATM    2  C   UNK N   1      40.742  45.837  47.172  0.00  0.00     0.051 C 
HETATM    3  C   UNK N   1      40.751  47.359  47.011  0.00  0.00     0.085 C 
HETATM    4  C   UNK N   1      39.668  47.767  45.985  0.00  0.00     0.276 C 
HETATM    5  O   UNK N   1      38.449  47.255  46.421  0.00  0.00    -0.332 OA
HETATM    6  C   UNK N   1      38.302  45.953  46.795  0.00  0.00     0.134 C 
HETATM    7  C   UNK N   1      39.369  45.215  47.143  0.00  0.00     0.005 C 
HETATM    8  C   UNK N   1      42.241  47.610  46.642  0.00  0.00     0.065 C 
HETATM    9  C   UNK N   1      42.504  46.508  45.607  0.00  0.00     0.071 C 
HETATM   10  C   UNK N   1      42.570  49.012  46.100  0.00  0.00     0.046 C 
ENDROOT
BRANCH   4  11
HETATM   11  O   UNK N   1      39.620  49.179  45.926  0.00  0.00    -0.328 OA
BRANCH  11  12
HETATM   12  C   UNK N   1      38.884  49.654  44.816  0.00  0.00     0.294 C 
HETATM   13  O   UNK N   1      38.285  48.564  44.130  0.00  0.00    -0.348 OA
HETATM   14  C   UNK N   1      37.502  49.027  43.040  0.00  0.00     0.179 C 
HETATM   15  C   UNK N   1      38.420  49.669  41.975  0.00  0.00     0.180 C 
HETATM   16  C   UNK N   1      39.163  50.851  42.621  0.00  0.00     0.183 C 
HETATM   17  C   UNK N   1      39.888  50.365  43.882  0.00  0.00     0.204 C 
BRANCH  14  18
HETATM   18  C   UNK N   1      36.724  47.838  42.459  0.00  0.00     0.198 C 
BRANCH  18  19
HETATM   19  O   UNK N   1      36.349  46.951  43.478  0.00  0.00    -0.398 OA
HETATM   20  H   UNK N   1      35.705  47.435  44.059  0.00  0.00     0.209 HD
ENDBRANCH  18  19
ENDBRANCH  14  18
BRANCH  15  21
HETATM   21  O   UNK N   1      37.654  50.122  40.887  0.00  0.00    -0.390 OA
HETATM   22  H   UNK N   1      37.442  49.327  40.333  0.00  0.00     0.210 HD
ENDBRANCH  15  21
BRANCH  16  23
HETATM   23  O   UNK N   1      40.099  51.397  41.729  0.00  0.00    -0.390 OA
HETATM   24  H   UNK N   1      40.974  50.975  41.931  0.00  0.00     0.210 HD
ENDBRANCH  16  23
BRANCH  17  25
HETATM   25  O   UNK N   1      40.473  51.464  44.532  0.00  0.00    -0.388 OA
HETATM   26  H   UNK N   1      39.777  52.169  44.598  0.00  0.00     0.210 HD
ENDBRANCH  17  25
ENDBRANCH  11  12
ENDBRANCH   4  11
BRANCH   8  27
HETATM   27  O   UNK N   1      43.056  47.351  47.764  0.00  0.00    -0.390 OA
HETATM   28  H   UNK N   1      44.003  47.416  47.470  0.00  0.00     0.210 HD
ENDBRANCH   8  27
BRANCH   1  29
HETATM   29  O   UNK N   1      42.466  44.294  46.616  0.00  0.00    -0.312 OA
BRANCH  29  30
HETATM   30  C   UNK N   1      41.977  43.126  47.116  0.00  0.00     0.283 C 
HETATM   31  O   UNK N   1      41.974  42.112  46.436  0.00  0.00    -0.260 OA
BRANCH  30  32
HETATM   32  C   UNK N   1      41.426  43.069  48.484  0.00  0.00     0.083 C 
HETATM   33  C   UNK N   1      41.844  43.902  49.456  0.00  0.00     0.017 C 
BRANCH  33  34
HETATM   34  C   UNK N   1      41.329  43.869  50.857  0.00  0.00    -0.036 A 
HETATM   35  C   UNK N   1      40.241  43.030  51.152  0.00  0.00     0.014 A 
HETATM   36  C   UNK N   1      39.724  42.963  52.449  0.00  0.00     0.037 A 
HETATM   37  C   UNK N   1      40.281  43.745  53.470  0.00  0.00     0.065 A 
HETATM   38  C   UNK N   1      41.356  44.589  53.186  0.00  0.00     0.037 A 
HETATM   39  C   UNK N   1      41.883  44.653  51.894  0.00  0.00     0.014 A 
BRANCH  37  40
HETATM   40  O   UNK N   1      39.788  43.692  54.725  0.00  0.00    -0.361 OA
HETATM   41  H   UNK N   1      40.351  43.836  55.499  0.00  0.00     0.217 HD
ENDBRANCH  37  40
ENDBRANCH  33  34
ENDBRANCH  30  32
ENDBRANCH  29  30
ENDBRANCH   1  29
TORSDOF 13
ENDMDL
MODEL 7
REMARK VINA RESULT:      -6.1     13.002     17.202
REMARK  13 active torsions:
REMARK  status: ('A' for Active; 'I' for Inactive)
REMARK    1  A    between atoms: C_2  and  O_3 
REMARK    2  A    between atoms: C_2  and  C_32 
REMARK    3  A    between atoms: O_3  and  C_4 
REMARK    4  A    between atoms: C_7  and  O_8 
REMARK    5  A    between atoms: O_8  and  C_9 
REMARK    6  A    between atoms: C_11  and  C_21 
REMARK    7  A    between atoms: C_12  and  O_13 
REMARK    8  A    between atoms: C_15  and  O_16 
REMARK    9  A    between atoms: C_18  and  O_19 
REMARK   10  A    between atoms: C_21  and  O_22 
REMARK   11  A    between atoms: C_27  and  O_28 
REMARK   12  A    between atoms: C_33  and  C_34 
REMARK   13  A    between atoms: C_37  and  O_38 
ROOT
HETATM    1  C   UNK N   1      31.354  42.725  61.565  0.00  0.00     0.143 C 
HETATM    2  C   UNK N   1      32.221  42.003  60.520  0.00  0.00     0.051 C 
HETATM    3  C   UNK N   1      31.242  41.264  59.603  0.00  0.00     0.085 C 
HETATM    4  C   UNK N   1      30.791  42.216  58.470  0.00  0.00     0.276 C 
HETATM    5  O   UNK N   1      31.930  42.680  57.820  0.00  0.00    -0.332 OA
HETATM    6  C   UNK N   1      32.992  43.197  58.498  0.00  0.00     0.134 C 
HETATM    7  C   UNK N   1      33.171  42.927  59.802  0.00  0.00     0.005 C 
HETATM    8  C   UNK N   1      30.176  40.788  60.629  0.00  0.00     0.065 C 
HETATM    9  C   UNK N   1      29.968  42.047  61.481  0.00  0.00     0.071 C 
HETATM   10  C   UNK N   1      28.858  40.263  60.031  0.00  0.00     0.046 C 
ENDROOT
BRANCH   4  11
HETATM   11  O   UNK N   1      29.971  41.488  57.578  0.00  0.00    -0.328 OA
BRANCH  11  12
HETATM   12  C   UNK N   1      29.406  42.302  56.569  0.00  0.00     0.294 C 
HETATM   13  O   UNK N   1      27.989  42.277  56.662  0.00  0.00    -0.348 OA
HETATM   14  C   UNK N   1      27.406  43.127  55.687  0.00  0.00     0.179 C 
HETATM   15  C   UNK N   1      27.689  42.569  54.274  0.00  0.00     0.180 C 
HETATM   16  C   UNK N   1      29.213  42.511  54.070  0.00  0.00     0.183 C 
HETATM   17  C   UNK N   1      29.847  41.709  55.213  0.00  0.00     0.204 C 
BRANCH  14  18
HETATM   18  C   UNK N   1      25.898  43.217  55.957  0.00  0.00     0.198 C 
BRANCH  18  19
HETATM   19  O   UNK N   1      25.393  44.450  55.521  0.00  0.00    -0.398 OA
HETATM   20  H   UNK N   1      24.686  44.253  54.853  0.00  0.00     0.209 HD
ENDBRANCH  18  19
ENDBRANCH  14  18
BRANCH  15  21
HETATM   21  O   UNK N   1      27.108  43.401  53.302  0.00  0.00    -0.390 OA
HETATM   22  H   UNK N   1      26.316  43.826  53.722  0.00  0.00     0.210 HD
ENDBRANCH  15  21
BRANCH  16  23
HETATM   23  O   UNK N   1      29.527  41.901  52.845  0.00  0.00    -0.390 OA
HETATM   24  H   UNK N   1      28.668  41.667  52.408  0.00  0.00     0.210 HD
ENDBRANCH  16  23
BRANCH  17  25
HETATM   25  O   UNK N   1      31.246  41.750  55.088  0.00  0.00    -0.388 OA
HETATM   26  H   UNK N   1      31.458  42.460  54.427  0.00  0.00     0.210 HD
ENDBRANCH  17  25
ENDBRANCH  11  12
ENDBRANCH   4  11
BRANCH   8  27
HETATM   27  O   UNK N   1      30.729  39.792  61.460  0.00  0.00    -0.390 OA
HETATM   28  H   UNK N   1      29.984  39.377  61.971  0.00  0.00     0.210 HD
ENDBRANCH   8  27
BRANCH   1  29
HETATM   29  O   UNK N   1      31.936  42.571  62.812  0.00  0.00    -0.312 OA
BRANCH  29  30
HETATM   30  C   UNK N   1      32.451  43.601  63.540  0.00  0.00     0.283 C 
HETATM   31  O   UNK N   1      31.836  44.060  64.490  0.00  0.00    -0.260 OA
BRANCH  30  32
HETATM   32  C   UNK N   1      33.755  44.191  63.181  0.00  0.00     0.083 C 
HETATM   33  C   UNK N   1      34.004  45.508  63.319  0.00  0.00     0.017 C 
BRANCH  33  34
HETATM   34  C   UNK N   1      35.300  46.152  62.952  0.00  0.00    -0.036 A 
HETATM   35  C   UNK N   1      36.375  45.328  62.578  0.00  0.00     0.014 A 
HETATM   36  C   UNK N   1      37.609  45.884  62.226  0.00  0.00     0.037 A 
HETATM   37  C   UNK N   1      37.789  47.273  62.252  0.00  0.00     0.065 A 
HETATM   38  C   UNK N   1      36.730  48.100  62.631  0.00  0.00     0.037 A 
HETATM   39  C   UNK N   1      35.493  47.551  62.976  0.00  0.00     0.014 A 
BRANCH  37  40
HETATM   40  O   UNK N   1      38.975  47.821  61.917  0.00  0.00    -0.361 OA
HETATM   41  H   UNK N   1      39.674  47.961  62.571  0.00  0.00     0.217 HD
ENDBRANCH  37  40
ENDBRANCH  33  34
ENDBRANCH  30  32
ENDBRANCH  29  30
ENDBRANCH   1  29
TORSDOF 13
ENDMDL
MODEL 8
REMARK VINA RESULT:      -6.0     13.904     17.669
REMARK  13 active torsions:
REMARK  status: ('A' for Active; 'I' for Inactive)
REMARK    1  A    between atoms: C_2  and  O_3 
REMARK    2  A    between atoms: C_2  and  C_32 
REMARK    3  A    between atoms: O_3  and  C_4 
REMARK    4  A    between atoms: C_7  and  O_8 
REMARK    5  A    between atoms: O_8  and  C_9 
REMARK    6  A    between atoms: C_11  and  C_21 
REMARK    7  A    between atoms: C_12  and  O_13 
REMARK    8  A    between atoms: C_15  and  O_16 
REMARK    9  A    between atoms: C_18  and  O_19 
REMARK   10  A    between atoms: C_21  and  O_22 
REMARK   11  A    between atoms: C_27  and  O_28 
REMARK   12  A    between atoms: C_33  and  C_34 
REMARK   13  A    between atoms: C_37  and  O_38 
ROOT
HETATM    1  C   UNK N   1      30.633  43.512  59.765  0.00  0.00     0.143 C 
HETATM    2  C   UNK N   1      30.284  43.956  58.335  0.00  0.00     0.051 C 
HETATM    3  C   UNK N   1      29.010  44.797  58.456  0.00  0.00     0.085 C 
HETATM    4  C   UNK N   1      29.398  46.266  58.744  0.00  0.00     0.276 C 
HETATM    5  O   UNK N   1      30.258  46.689  57.734  0.00  0.00    -0.332 OA
HETATM    6  C   UNK N   1      31.346  45.962  57.356  0.00  0.00     0.134 C 
HETATM    7  C   UNK N   1      31.426  44.651  57.637  0.00  0.00     0.005 C 
HETATM    8  C   UNK N   1      28.241  44.013  59.556  0.00  0.00     0.065 C 
HETATM    9  C   UNK N   1      29.344  43.743  60.587  0.00  0.00     0.071 C 
HETATM   10  C   UNK N   1      27.030  44.738  60.172  0.00  0.00     0.046 C 
ENDROOT
BRANCH   4  11
HETATM   11  O   UNK N   1      28.219  47.045  58.750  0.00  0.00    -0.328 OA
BRANCH  11  12
HETATM   12  C   UNK N   1      28.482  48.434  58.708  0.00  0.00     0.294 C 
HETATM   13  O   UNK N   1      28.037  49.049  59.908  0.00  0.00    -0.348 OA
HETATM   14  C   UNK N   1      28.337  50.436  59.903  0.00  0.00     0.179 C 
HETATM   15  C   UNK N   1      27.513  51.143  58.803  0.00  0.00     0.180 C 
HETATM   16  C   UNK N   1      27.884  50.526  57.445  0.00  0.00     0.183 C 
HETATM   17  C   UNK N   1      27.693  49.006  57.509  0.00  0.00     0.204 C 
BRANCH  14  18
HETATM   18  C   UNK N   1      28.018  51.009  61.291  0.00  0.00     0.198 C 
BRANCH  18  19
HETATM   19  O   UNK N   1      28.784  52.157  61.537  0.00  0.00    -0.398 OA
HETATM   20  H   UNK N   1      28.191  52.806  61.998  0.00  0.00     0.209 HD
ENDBRANCH  18  19
ENDBRANCH  14  18
BRANCH  15  21
HETATM   21  O   UNK N   1      27.797  52.519  58.797  0.00  0.00    -0.390 OA
HETATM   22  H   UNK N   1      28.770  52.614  58.971  0.00  0.00     0.210 HD
ENDBRANCH  15  21
BRANCH  16  23
HETATM   23  O   UNK N   1      27.078  51.052  56.422  0.00  0.00    -0.390 OA
HETATM   24  H   UNK N   1      26.155  51.107  56.780  0.00  0.00     0.210 HD
ENDBRANCH  16  23
BRANCH  17  25
HETATM   25  O   UNK N   1      28.137  48.431  56.307  0.00  0.00    -0.388 OA
HETATM   26  H   UNK N   1      29.053  48.775  56.140  0.00  0.00     0.210 HD
ENDBRANCH  17  25
ENDBRANCH  11  12
ENDBRANCH   4  11
BRANCH   8  27
HETATM   27  O   UNK N   1      27.816  42.770  59.042  0.00  0.00    -0.390 OA
HETATM   28  H   UNK N   1      27.486  42.226  59.806  0.00  0.00     0.210 HD
ENDBRANCH   8  27
BRANCH   1  29
HETATM   29  O   UNK N   1      31.005  42.178  59.742  0.00  0.00    -0.312 OA
BRANCH  29  30
HETATM   30  C   UNK N   1      32.118  41.692  60.357  0.00  0.00     0.283 C 
HETATM   31  O   UNK N   1      32.469  40.535  60.184  0.00  0.00    -0.260 OA
BRANCH  30  32
HETATM   32  C   UNK N   1      32.911  42.551  61.258  0.00  0.00     0.083 C 
HETATM   33  C   UNK N   1      34.070  43.116  60.869  0.00  0.00     0.017 C 
BRANCH  33  34
HETATM   34  C   UNK N   1      34.914  43.975  61.751  0.00  0.00    -0.036 A 
HETATM   35  C   UNK N   1      36.165  44.401  61.273  0.00  0.00     0.014 A 
HETATM   36  C   UNK N   1      36.991  45.207  62.061  0.00  0.00     0.037 A 
HETATM   37  C   UNK N   1      36.584  45.590  63.346  0.00  0.00     0.065 A 
HETATM   38  C   UNK N   1      35.347  45.165  63.834  0.00  0.00     0.037 A 
HETATM   39  C   UNK N   1      34.513  44.367  63.048  0.00  0.00     0.014 A 
BRANCH  37  40
HETATM   40  O   UNK N   1      37.374  46.365  64.117  0.00  0.00    -0.361 OA
HETATM   41  H   UNK N   1      37.044  47.175  64.531  0.00  0.00     0.217 HD
ENDBRANCH  37  40
ENDBRANCH  33  34
ENDBRANCH  30  32
ENDBRANCH  29  30
ENDBRANCH   1  29
TORSDOF 13
ENDMDL
MODEL 9
REMARK VINA RESULT:      -5.9     12.346     17.456
REMARK  13 active torsions:
REMARK  status: ('A' for Active; 'I' for Inactive)
REMARK    1  A    between atoms: C_2  and  O_3 
REMARK    2  A    between atoms: C_2  and  C_32 
REMARK    3  A    between atoms: O_3  and  C_4 
REMARK    4  A    between atoms: C_7  and  O_8 
REMARK    5  A    between atoms: O_8  and  C_9 
REMARK    6  A    between atoms: C_11  and  C_21 
REMARK    7  A    between atoms: C_12  and  O_13 
REMARK    8  A    between atoms: C_15  and  O_16 
REMARK    9  A    between atoms: C_18  and  O_19 
REMARK   10  A    between atoms: C_21  and  O_22 
REMARK   11  A    between atoms: C_27  and  O_28 
REMARK   12  A    between atoms: C_33  and  C_34 
REMARK   13  A    between atoms: C_37  and  O_38 
ROOT
HETATM    1  C   UNK N   1      31.648  42.239  59.754  0.00  0.00     0.143 C 
HETATM    2  C   UNK N   1      30.265  41.568  59.776  0.00  0.00     0.051 C 
HETATM    3  C   UNK N   1      29.408  42.342  58.770  0.00  0.00     0.085 C 
HETATM    4  C   UNK N   1      29.605  41.734  57.362  0.00  0.00     0.276 C 
HETATM    5  O   UNK N   1      29.301  40.377  57.433  0.00  0.00    -0.332 OA
HETATM    6  C   UNK N   1      29.827  39.566  58.393  0.00  0.00     0.134 C 
HETATM    7  C   UNK N   1      30.327  40.081  59.529  0.00  0.00     0.005 C 
HETATM    8  C   UNK N   1      29.902  43.795  59.017  0.00  0.00     0.065 C 
HETATM    9  C   UNK N   1      31.423  43.610  59.077  0.00  0.00     0.071 C 
HETATM   10  C   UNK N   1      29.481  44.834  57.961  0.00  0.00     0.046 C 
ENDROOT
BRANCH   4  11
HETATM   11  O   UNK N   1      28.731  42.391  56.467  0.00  0.00    -0.328 OA
BRANCH  11  12
HETATM   12  C   UNK N   1      28.520  41.660  55.274  0.00  0.00     0.294 C 
HETATM   13  O   UNK N   1      28.817  42.474  54.148  0.00  0.00    -0.348 OA
HETATM   14  C   UNK N   1      28.658  41.741  52.943  0.00  0.00     0.179 C 
HETATM   15  C   UNK N   1      27.168  41.377  52.749  0.00  0.00     0.180 C 
HETATM   16  C   UNK N   1      26.716  40.520  53.943  0.00  0.00     0.183 C 
HETATM   17  C   UNK N   1      27.028  41.264  55.248  0.00  0.00     0.204 C 
BRANCH  14  18
HETATM   18  C   UNK N   1      29.178  42.596  51.780  0.00  0.00     0.198 C 
BRANCH  18  19
HETATM   19  O   UNK N   1      29.545  41.782  50.698  0.00  0.00    -0.398 OA
HETATM   20  H   UNK N   1      29.212  42.228  49.876  0.00  0.00     0.209 HD
ENDBRANCH  18  19
ENDBRANCH  14  18
BRANCH  15  21
HETATM   21  O   UNK N   1      26.999  40.659  51.553  0.00  0.00    -0.390 OA
HETATM   22  H   UNK N   1      27.011  39.696  51.791  0.00  0.00     0.210 HD
ENDBRANCH  15  21
BRANCH  16  23
HETATM   23  O   UNK N   1      25.338  40.260  53.875  0.00  0.00    -0.390 OA
HETATM   24  H   UNK N   1      24.880  40.991  54.365  0.00  0.00     0.210 HD
ENDBRANCH  16  23
BRANCH  17  25
HETATM   25  O   UNK N   1      26.718  40.436  56.339  0.00  0.00    -0.388 OA
HETATM   26  H   UNK N   1      27.234  39.596  56.223  0.00  0.00     0.210 HD
ENDBRANCH  17  25
ENDBRANCH  11  12
ENDBRANCH   4  11
BRANCH   8  27
HETATM   27  O   UNK N   1      29.469  44.233  60.286  0.00  0.00    -0.390 OA
HETATM   28  H   UNK N   1      28.479  44.161  60.308  0.00  0.00     0.210 HD
ENDBRANCH   8  27
BRANCH   1  29
HETATM   29  O   UNK N   1      32.103  42.368  61.056  0.00  0.00    -0.312 OA
BRANCH  29  30
HETATM   30  C   UNK N   1      32.584  43.530  61.578  0.00  0.00     0.283 C 
HETATM   31  O   UNK N   1      31.833  44.466  61.808  0.00  0.00    -0.260 OA
BRANCH  30  32
HETATM   32  C   UNK N   1      34.024  43.685  61.860  0.00  0.00     0.083 C 
HETATM   33  C   UNK N   1      34.474  44.432  62.887  0.00  0.00     0.017 C 
BRANCH  33  34
HETATM   34  C   UNK N   1      35.920  44.632  63.199  0.00  0.00    -0.036 A 
HETATM   35  C   UNK N   1      36.359  44.409  64.515  0.00  0.00     0.014 A 
HETATM   36  C   UNK N   1      37.704  44.583  64.856  0.00  0.00     0.037 A 
HETATM   37  C   UNK N   1      38.628  44.995  63.887  0.00  0.00     0.065 A 
HETATM   38  C   UNK N   1      38.201  45.229  62.578  0.00  0.00     0.037 A 
HETATM   39  C   UNK N   1      36.860  45.048  62.230  0.00  0.00     0.014 A 
BRANCH  37  40
HETATM   40  O   UNK N   1      39.928  45.170  64.204  0.00  0.00    -0.361 OA
HETATM   41  H   UNK N   1      40.381  46.010  64.050  0.00  0.00     0.217 HD
ENDBRANCH  37  40
ENDBRANCH  33  34
ENDBRANCH  30  32
ENDBRANCH  29  30
ENDBRANCH   1  29
TORSDOF 13
ENDMDL
