MODEL 1
REMARK VINA RESULT:      -6.6      0.000      0.000
REMARK  7 active torsions:
REMARK  status: ('A' for Active; 'I' for Inactive)
REMARK    1  A    between atoms: C_2  and  O_3 
REMARK    2  A    between atoms: C_2  and  C_15 
REMARK    3  A    between atoms: O_3  and  C_4 
REMARK    4  A    between atoms: C_12  and  O_13 
REMARK    5  A    between atoms: C_15  and  C_16 
REMARK    6  A    between atoms: C_15  and  C_19 
REMARK    7  A    between atoms: C_16  and  O_17 
ROOT
HETATM    1  O   UNK N   1      40.878  48.322  45.138  0.00  0.00    -0.264 OA
HETATM    2  C   UNK N   1      40.096  48.668  46.012  0.00  0.00     0.270 C 
ENDROOT
BRANCH   2   3
HETATM    3  O   UNK N   1      40.265  48.259  47.296  0.00  0.00    -0.315 OA
BRANCH   3   4
HETATM    4  C   UNK N   1      40.164  46.954  47.745  0.00  0.00     0.136 C 
HETATM    5  C   UNK N   1      39.309  46.124  46.773  0.00  0.00     0.071 C 
HETATM    6  C   UNK N   1      39.483  44.588  47.020  0.00  0.00     0.254 C 
HETATM    7  N   UNK N   1      40.889  44.186  46.871  0.00  0.00     0.096 N 
HETATM    8  C   UNK N   1      39.219  44.165  48.474  0.00  0.00     0.153 C 
HETATM    9  C   UNK N   1      41.523  44.415  45.561  0.00  0.00     0.310 C 
HETATM   10  C   UNK N   1      41.520  44.813  48.043  0.00  0.00     0.228 C 
HETATM   11  C   UNK N   1      41.573  46.360  47.878  0.00  0.00     0.068 C 
HETATM   12  C   UNK N   1      40.575  44.404  49.189  0.00  0.00     0.069 C 
BRANCH   8  13
HETATM   13  O   UNK N   1      38.129  44.822  49.061  0.00  0.00    -0.393 OA
HETATM   14  H   UNK N   1      37.697  45.342  48.334  0.00  0.00     0.210 HD
ENDBRANCH   8  13
ENDBRANCH   3   4
ENDBRANCH   2   3
BRANCH   2  15
HETATM   15  C   UNK N   1      38.903  49.544  45.680  0.00  0.00     0.142 C 
BRANCH  15  16
HETATM   16  C   UNK N   1      38.814  50.789  46.579  0.00  0.00     0.183 C 
BRANCH  16  17
HETATM   17  O   UNK N   1      38.364  50.419  47.858  0.00  0.00    -0.400 OA
HETATM   18  H   UNK N   1      38.604  49.465  47.986  0.00  0.00     0.209 HD
ENDBRANCH  16  17
ENDBRANCH  15  16
BRANCH  15  19
HETATM   19  C   UNK N   1      38.885  49.944  44.210  0.00  0.00    -0.043 A 
HETATM   20  C   UNK N   1      39.742  50.966  43.758  0.00  0.00     0.008 A 
HETATM   21  C   UNK N   1      39.753  51.336  42.409  0.00  0.00     0.001 A 
HETATM   22  C   UNK N   1      38.907  50.699  41.499  0.00  0.00     0.000 A 
HETATM   23  C   UNK N   1      38.051  49.685  41.933  0.00  0.00     0.001 A 
HETATM   24  C   UNK N   1      38.041  49.300  43.279  0.00  0.00     0.008 A 
ENDBRANCH  15  19
ENDBRANCH   2  15
TORSDOF 7
ENDMDL
MODEL 2
REMARK VINA RESULT:      -6.5      9.183     12.525
REMARK  7 active torsions:
REMARK  status: ('A' for Active; 'I' for Inactive)
REMARK    1  A    between atoms: C_2  and  O_3 
REMARK    2  A    between atoms: C_2  and  C_15 
REMARK    3  A    between atoms: O_3  and  C_4 
REMARK    4  A    between atoms: C_12  and  O_13 
REMARK    5  A    between atoms: C_15  and  C_16 
REMARK    6  A    between atoms: C_15  and  C_19 
REMARK    7  A    between atoms: C_16  and  O_17 
ROOT
HETATM    1  O   UNK N   1      30.649  54.605  45.091  0.00  0.00    -0.264 OA
HETATM    2  C   UNK N   1      31.360  54.906  44.143  0.00  0.00     0.270 C 
ENDROOT
BRANCH   2   3
HETATM    3  O   UNK N   1      30.847  55.568  43.073  0.00  0.00    -0.315 OA
BRANCH   3   4
HETATM    4  C   UNK N   1      30.730  55.058  41.792  0.00  0.00     0.136 C 
HETATM    5  C   UNK N   1      29.452  54.210  41.674  0.00  0.00     0.071 C 
HETATM    6  C   UNK N   1      29.077  53.939  40.178  0.00  0.00     0.254 C 
HETATM    7  N   UNK N   1      28.875  55.199  39.449  0.00  0.00     0.096 N 
HETATM    8  C   UNK N   1      30.220  53.317  39.360  0.00  0.00     0.153 C 
HETATM    9  C   UNK N   1      27.811  56.097  39.931  0.00  0.00     0.310 C 
HETATM   10  C   UNK N   1      30.240  55.746  39.384  0.00  0.00     0.228 C 
HETATM   11  C   UNK N   1      30.710  56.220  40.790  0.00  0.00     0.068 C 
HETATM   12  C   UNK N   1      31.061  54.536  38.898  0.00  0.00     0.069 C 
BRANCH   8  13
HETATM   13  O   UNK N   1      30.945  52.342  40.060  0.00  0.00    -0.393 OA
HETATM   14  H   UNK N   1      31.903  52.537  39.889  0.00  0.00     0.210 HD
ENDBRANCH   8  13
ENDBRANCH   3   4
ENDBRANCH   2   3
BRANCH   2  15
HETATM   15  C   UNK N   1      32.828  54.527  44.126  0.00  0.00     0.142 C 
BRANCH  15  16
HETATM   16  C   UNK N   1      33.616  55.162  45.284  0.00  0.00     0.183 C 
BRANCH  16  17
HETATM   17  O   UNK N   1      34.089  56.428  44.899  0.00  0.00    -0.400 OA
HETATM   18  H   UNK N   1      33.541  56.720  44.124  0.00  0.00     0.209 HD
ENDBRANCH  16  17
ENDBRANCH  15  16
BRANCH  15  19
HETATM   19  C   UNK N   1      33.024  53.016  44.112  0.00  0.00    -0.043 A 
HETATM   20  C   UNK N   1      34.004  52.435  44.939  0.00  0.00     0.008 A 
HETATM   21  C   UNK N   1      34.187  51.048  44.954  0.00  0.00     0.001 A 
HETATM   22  C   UNK N   1      33.403  50.228  44.141  0.00  0.00     0.000 A 
HETATM   23  C   UNK N   1      32.429  50.790  43.313  0.00  0.00     0.001 A 
HETATM   24  C   UNK N   1      32.231  52.176  43.300  0.00  0.00     0.008 A 
ENDBRANCH  15  19
ENDBRANCH   2  15
TORSDOF 7
ENDMDL
MODEL 3
REMARK VINA RESULT:      -6.4      9.239     12.416
REMARK  7 active torsions:
REMARK  status: ('A' for Active; 'I' for Inactive)
REMARK    1  A    between atoms: C_2  and  O_3 
REMARK    2  A    between atoms: C_2  and  C_15 
REMARK    3  A    between atoms: O_3  and  C_4 
REMARK    4  A    between atoms: C_12  and  O_13 
REMARK    5  A    between atoms: C_15  and  C_16 
REMARK    6  A    between atoms: C_15  and  C_19 
REMARK    7  A    between atoms: C_16  and  O_17 
ROOT
HETATM    1  O   UNK N   1      31.497  50.095  41.787  0.00  0.00    -0.264 OA
HETATM    2  C   UNK N   1      31.792  51.151  42.326  0.00  0.00     0.270 C 
ENDROOT
BRANCH   2   3
HETATM    3  O   UNK N   1      31.495  52.338  41.737  0.00  0.00    -0.315 OA
BRANCH   3   4
HETATM    4  C   UNK N   1      30.349  52.611  41.010  0.00  0.00     0.136 C 
HETATM    5  C   UNK N   1      29.643  53.852  41.581  0.00  0.00     0.071 C 
HETATM    6  C   UNK N   1      28.581  54.422  40.581  0.00  0.00     0.254 C 
HETATM    7  N   UNK N   1      29.205  54.783  39.300  0.00  0.00     0.096 N 
HETATM    8  C   UNK N   1      27.554  53.378  40.114  0.00  0.00     0.153 C 
HETATM    9  C   UNK N   1      30.262  55.808  39.328  0.00  0.00     0.310 C 
HETATM   10  C   UNK N   1      29.557  53.468  38.741  0.00  0.00     0.228 C 
HETATM   11  C   UNK N   1      30.729  52.826  39.540  0.00  0.00     0.068 C 
HETATM   12  C   UNK N   1      28.252  52.668  38.924  0.00  0.00     0.069 C 
BRANCH   8  13
HETATM   13  O   UNK N   1      27.125  52.518  41.133  0.00  0.00    -0.393 OA
HETATM   14  H   UNK N   1      27.464  51.616  40.893  0.00  0.00     0.210 HD
ENDBRANCH   8  13
ENDBRANCH   3   4
ENDBRANCH   2   3
BRANCH   2  15
HETATM   15  C   UNK N   1      32.520  51.163  43.657  0.00  0.00     0.142 C 
BRANCH  15  16
HETATM   16  C   UNK N   1      33.925  50.545  43.569  0.00  0.00     0.183 C 
BRANCH  16  17
HETATM   17  O   UNK N   1      33.822  49.156  43.380  0.00  0.00    -0.400 OA
HETATM   18  H   UNK N   1      33.552  48.763  44.251  0.00  0.00     0.209 HD
ENDBRANCH  16  17
ENDBRANCH  15  16
BRANCH  15  19
HETATM   19  C   UNK N   1      32.589  52.564  44.253  0.00  0.00    -0.043 A 
HETATM   20  C   UNK N   1      33.786  53.299  44.162  0.00  0.00     0.008 A 
HETATM   21  C   UNK N   1      33.865  54.594  44.686  0.00  0.00     0.001 A 
HETATM   22  C   UNK N   1      32.756  55.165  45.314  0.00  0.00     0.000 A 
HETATM   23  C   UNK N   1      31.562  54.447  45.413  0.00  0.00     0.001 A 
HETATM   24  C   UNK N   1      31.472  53.156  44.881  0.00  0.00     0.008 A 
ENDBRANCH  15  19
ENDBRANCH   2  15
TORSDOF 7
ENDMDL
MODEL 4
REMARK VINA RESULT:      -6.3      9.704     12.907
REMARK  7 active torsions:
REMARK  status: ('A' for Active; 'I' for Inactive)
REMARK    1  A    between atoms: C_2  and  O_3 
REMARK    2  A    between atoms: C_2  and  C_15 
REMARK    3  A    between atoms: O_3  and  C_4 
REMARK    4  A    between atoms: C_12  and  O_13 
REMARK    5  A    between atoms: C_15  and  C_16 
REMARK    6  A    between atoms: C_15  and  C_19 
REMARK    7  A    between atoms: C_16  and  O_17 
ROOT
HETATM    1  O   UNK N   1      31.014  54.577  45.353  0.00  0.00    -0.264 OA
HETATM    2  C   UNK N   1      31.497  54.895  44.276  0.00  0.00     0.270 C 
ENDROOT
BRANCH   2   3
HETATM    3  O   UNK N   1      30.792  55.651  43.395  0.00  0.00    -0.315 OA
BRANCH   3   4
HETATM    4  C   UNK N   1      29.734  55.208  42.620  0.00  0.00     0.136 C 
HETATM    5  C   UNK N   1      28.877  56.401  42.164  0.00  0.00     0.071 C 
HETATM    6  C   UNK N   1      27.917  56.005  40.992  0.00  0.00     0.254 C 
HETATM    7  N   UNK N   1      28.676  55.502  39.838  0.00  0.00     0.096 N 
HETATM    8  C   UNK N   1      27.033  54.787  41.305  0.00  0.00     0.153 C 
HETATM    9  C   UNK N   1      29.647  56.418  39.216  0.00  0.00     0.310 C 
HETATM   10  C   UNK N   1      29.186  54.215  40.335  0.00  0.00     0.228 C 
HETATM   11  C   UNK N   1      30.286  54.438  41.413  0.00  0.00     0.068 C 
HETATM   12  C   UNK N   1      27.926  53.570  40.946  0.00  0.00     0.069 C 
BRANCH   8  13
HETATM   13  O   UNK N   1      26.536  54.777  42.615  0.00  0.00    -0.393 OA
HETATM   14  H   UNK N   1      27.147  54.194  43.137  0.00  0.00     0.210 HD
ENDBRANCH   8  13
ENDBRANCH   3   4
ENDBRANCH   2   3
BRANCH   2  15
HETATM   15  C   UNK N   1      32.887  54.432  43.885  0.00  0.00     0.142 C 
BRANCH  15  16
HETATM   16  C   UNK N   1      33.995  55.166  44.660  0.00  0.00     0.183 C 
BRANCH  16  17
HETATM   17  O   UNK N   1      33.546  56.445  45.032  0.00  0.00    -0.400 OA
HETATM   18  H   UNK N   1      32.751  56.317  45.612  0.00  0.00     0.209 HD
ENDBRANCH  16  17
ENDBRANCH  15  16
BRANCH  15  19
HETATM   19  C   UNK N   1      33.045  52.924  44.030  0.00  0.00    -0.043 A 
HETATM   20  C   UNK N   1      32.223  52.063  43.276  0.00  0.00     0.008 A 
HETATM   21  C   UNK N   1      32.365  50.676  43.382  0.00  0.00     0.001 A 
HETATM   22  C   UNK N   1      33.318  50.130  44.243  0.00  0.00     0.000 A 
HETATM   23  C   UNK N   1      34.139  50.971  44.999  0.00  0.00     0.001 A 
HETATM   24  C   UNK N   1      34.012  52.361  44.891  0.00  0.00     0.008 A 
ENDBRANCH  15  19
ENDBRANCH   2  15
TORSDOF 7
ENDMDL
MODEL 5
REMARK VINA RESULT:      -6.3      1.596      2.311
REMARK  7 active torsions:
REMARK  status: ('A' for Active; 'I' for Inactive)
REMARK    1  A    between atoms: C_2  and  O_3 
REMARK    2  A    between atoms: C_2  and  C_15 
REMARK    3  A    between atoms: O_3  and  C_4 
REMARK    4  A    between atoms: C_12  and  O_13 
REMARK    5  A    between atoms: C_15  and  C_16 
REMARK    6  A    between atoms: C_15  and  C_19 
REMARK    7  A    between atoms: C_16  and  O_17 
ROOT
HETATM    1  O   UNK N   1      42.054  48.764  45.657  0.00  0.00    -0.264 OA
HETATM    2  C   UNK N   1      41.049  48.069  45.629  0.00  0.00     0.270 C 
ENDROOT
BRANCH   2   3
HETATM    3  O   UNK N   1      41.141  46.715  45.656  0.00  0.00    -0.315 OA
BRANCH   3   4
HETATM    4  C   UNK N   1      41.331  45.943  46.788  0.00  0.00     0.136 C 
HETATM    5  C   UNK N   1      40.583  46.560  47.982  0.00  0.00     0.071 C 
HETATM    6  C   UNK N   1      40.446  45.543  49.164  0.00  0.00     0.254 C 
HETATM    7  N   UNK N   1      39.732  44.331  48.736  0.00  0.00     0.096 N 
HETATM    8  C   UNK N   1      41.786  44.940  49.615  0.00  0.00     0.153 C 
HETATM    9  C   UNK N   1      38.355  44.497  48.241  0.00  0.00     0.310 C 
HETATM   10  C   UNK N   1      40.703  43.699  47.829  0.00  0.00     0.228 C 
HETATM   11  C   UNK N   1      40.838  44.517  46.511  0.00  0.00     0.068 C 
HETATM   12  C   UNK N   1      42.006  43.745  48.651  0.00  0.00     0.069 C 
BRANCH   8  13
HETATM   13  O   UNK N   1      42.838  45.866  49.642  0.00  0.00    -0.393 OA
HETATM   14  H   UNK N   1      42.419  46.754  49.791  0.00  0.00     0.210 HD
ENDBRANCH   8  13
ENDBRANCH   3   4
ENDBRANCH   2   3
BRANCH   2  15
HETATM   15  C   UNK N   1      39.673  48.701  45.542  0.00  0.00     0.142 C 
BRANCH  15  16
HETATM   16  C   UNK N   1      39.328  49.543  46.782  0.00  0.00     0.183 C 
BRANCH  16  17
HETATM   17  O   UNK N   1      38.363  50.508  46.447  0.00  0.00    -0.400 OA
HETATM   18  H   UNK N   1      38.727  51.391  46.721  0.00  0.00     0.209 HD
ENDBRANCH  16  17
ENDBRANCH  15  16
BRANCH  15  19
HETATM   19  C   UNK N   1      39.509  49.529  44.273  0.00  0.00    -0.043 A 
HETATM   20  C   UNK N   1      38.594  49.114  43.286  0.00  0.00     0.008 A 
HETATM   21  C   UNK N   1      38.416  49.869  42.122  0.00  0.00     0.001 A 
HETATM   22  C   UNK N   1      39.150  51.040  41.926  0.00  0.00     0.000 A 
HETATM   23  C   UNK N   1      40.062  51.464  42.895  0.00  0.00     0.001 A 
HETATM   24  C   UNK N   1      40.239  50.720  44.068  0.00  0.00     0.008 A 
ENDBRANCH  15  19
ENDBRANCH   2  15
TORSDOF 7
ENDMDL
MODEL 6
REMARK VINA RESULT:      -6.2     12.195     13.918
REMARK  7 active torsions:
REMARK  status: ('A' for Active; 'I' for Inactive)
REMARK    1  A    between atoms: C_2  and  O_3 
REMARK    2  A    between atoms: C_2  and  C_15 
REMARK    3  A    between atoms: O_3  and  C_4 
REMARK    4  A    between atoms: C_12  and  O_13 
REMARK    5  A    between atoms: C_15  and  C_16 
REMARK    6  A    between atoms: C_15  and  C_19 
REMARK    7  A    between atoms: C_16  and  O_17 
ROOT
HETATM    1  O   UNK N   1      50.314  53.835  40.985  0.00  0.00    -0.264 OA
HETATM    2  C   UNK N   1      50.500  55.017  41.235  0.00  0.00     0.270 C 
ENDROOT
BRANCH   2   3
HETATM    3  O   UNK N   1      50.917  55.409  42.467  0.00  0.00    -0.315 OA
BRANCH   3   4
HETATM    4  C   UNK N   1      50.109  55.932  43.462  0.00  0.00     0.136 C 
HETATM    5  C   UNK N   1      49.989  54.934  44.626  0.00  0.00     0.071 C 
HETATM    6  C   UNK N   1      49.420  55.618  45.914  0.00  0.00     0.254 C 
HETATM    7  N   UNK N   1      50.276  56.735  46.338  0.00  0.00     0.096 N 
HETATM    8  C   UNK N   1      48.088  56.350  45.685  0.00  0.00     0.153 C 
HETATM    9  C   UNK N   1      51.674  56.424  46.682  0.00  0.00     0.310 C 
HETATM   10  C   UNK N   1      50.048  57.726  45.275  0.00  0.00     0.228 C 
HETATM   11  C   UNK N   1      50.703  57.262  43.941  0.00  0.00     0.068 C 
HETATM   12  C   UNK N   1      48.511  57.749  45.164  0.00  0.00     0.069 C 
BRANCH   8  13
HETATM   13  O   UNK N   1      47.205  55.659  44.844  0.00  0.00    -0.393 OA
HETATM   14  H   UNK N   1      46.324  56.106  44.944  0.00  0.00     0.210 HD
ENDBRANCH   8  13
ENDBRANCH   3   4
ENDBRANCH   2   3
BRANCH   2  15
HETATM   15  C   UNK N   1      50.248  56.079  40.183  0.00  0.00     0.142 C 
BRANCH  15  16
HETATM   16  C   UNK N   1      51.359  56.137  39.121  0.00  0.00     0.183 C 
BRANCH  16  17
HETATM   17  O   UNK N   1      52.407  55.275  39.485  0.00  0.00    -0.400 OA
HETATM   18  H   UNK N   1      52.198  54.928  40.391  0.00  0.00     0.209 HD
ENDBRANCH  16  17
ENDBRANCH  15  16
BRANCH  15  19
HETATM   19  C   UNK N   1      48.886  55.909  39.520  0.00  0.00    -0.043 A 
HETATM   20  C   UNK N   1      48.814  55.498  38.175  0.00  0.00     0.008 A 
HETATM   21  C   UNK N   1      47.573  55.319  37.555  0.00  0.00     0.001 A 
HETATM   22  C   UNK N   1      46.393  55.553  38.263  0.00  0.00     0.000 A 
HETATM   23  C   UNK N   1      46.449  55.963  39.597  0.00  0.00     0.001 A 
HETATM   24  C   UNK N   1      47.686  56.134  40.229  0.00  0.00     0.008 A 
ENDBRANCH  15  19
ENDBRANCH   2  15
TORSDOF 7
ENDMDL
MODEL 7
REMARK VINA RESULT:      -6.1      1.304      2.603
REMARK  7 active torsions:
REMARK  status: ('A' for Active; 'I' for Inactive)
REMARK    1  A    between atoms: C_2  and  O_3 
REMARK    2  A    between atoms: C_2  and  C_15 
REMARK    3  A    between atoms: O_3  and  C_4 
REMARK    4  A    between atoms: C_12  and  O_13 
REMARK    5  A    between atoms: C_15  and  C_16 
REMARK    6  A    between atoms: C_15  and  C_19 
REMARK    7  A    between atoms: C_16  and  O_17 
ROOT
HETATM    1  O   UNK N   1      40.408  48.708  47.535  0.00  0.00    -0.264 OA
HETATM    2  C   UNK N   1      40.022  48.693  46.376  0.00  0.00     0.270 C 
ENDROOT
BRANCH   2   3
HETATM    3  O   UNK N   1      40.626  47.900  45.453  0.00  0.00    -0.315 OA
BRANCH   3   4
HETATM    4  C   UNK N   1      40.696  46.519  45.501  0.00  0.00     0.136 C 
HETATM    5  C   UNK N   1      41.976  46.078  46.230  0.00  0.00     0.071 C 
HETATM    6  C   UNK N   1      41.911  44.570  46.645  0.00  0.00     0.254 C 
HETATM    7  N   UNK N   1      40.759  44.314  47.521  0.00  0.00     0.096 N 
HETATM    8  C   UNK N   1      41.597  43.623  45.476  0.00  0.00     0.153 C 
HETATM    9  C   UNK N   1      40.704  45.043  48.800  0.00  0.00     0.310 C 
HETATM   10  C   UNK N   1      39.623  44.482  46.601  0.00  0.00     0.228 C 
HETATM   11  C   UNK N   1      39.448  45.979  46.211  0.00  0.00     0.068 C 
HETATM   12  C   UNK N   1      40.049  43.634  45.386  0.00  0.00     0.069 C 
BRANCH   8  13
HETATM   13  O   UNK N   1      42.251  43.965  44.286  0.00  0.00    -0.393 OA
HETATM   14  H   UNK N   1      42.845  44.729  44.507  0.00  0.00     0.210 HD
ENDBRANCH   8  13
ENDBRANCH   3   4
ENDBRANCH   2   3
BRANCH   2  15
HETATM   15  C   UNK N   1      38.871  49.576  45.932  0.00  0.00     0.142 C 
BRANCH  15  16
HETATM   16  C   UNK N   1      38.734  50.845  46.789  0.00  0.00     0.183 C 
BRANCH  16  17
HETATM   17  O   UNK N   1      38.334  50.498  48.091  0.00  0.00    -0.400 OA
HETATM   18  H   UNK N   1      37.396  50.179  48.032  0.00  0.00     0.209 HD
ENDBRANCH  16  17
ENDBRANCH  15  16
BRANCH  15  19
HETATM   19  C   UNK N   1      38.972  49.938  44.455  0.00  0.00    -0.043 A 
HETATM   20  C   UNK N   1      38.134  49.295  43.523  0.00  0.00     0.008 A 
HETATM   21  C   UNK N   1      38.197  49.626  42.166  0.00  0.00     0.001 A 
HETATM   22  C   UNK N   1      39.101  50.594  41.721  0.00  0.00     0.000 A 
HETATM   23  C   UNK N   1      39.939  51.238  42.633  0.00  0.00     0.001 A 
HETATM   24  C   UNK N   1      39.874  50.921  43.995  0.00  0.00     0.008 A 
ENDBRANCH  15  19
ENDBRANCH   2  15
TORSDOF 7
ENDMDL
MODEL 8
REMARK VINA RESULT:      -5.9      9.256     12.530
REMARK  7 active torsions:
REMARK  status: ('A' for Active; 'I' for Inactive)
REMARK    1  A    between atoms: C_2  and  O_3 
REMARK    2  A    between atoms: C_2  and  C_15 
REMARK    3  A    between atoms: O_3  and  C_4 
REMARK    4  A    between atoms: C_12  and  O_13 
REMARK    5  A    between atoms: C_15  and  C_16 
REMARK    6  A    between atoms: C_15  and  C_19 
REMARK    7  A    between atoms: C_16  and  O_17 
ROOT
HETATM    1  O   UNK N   1      32.157  50.772  41.362  0.00  0.00    -0.264 OA
HETATM    2  C   UNK N   1      31.765  51.435  42.312  0.00  0.00     0.270 C 
ENDROOT
BRANCH   2   3
HETATM    3  O   UNK N   1      30.684  52.248  42.191  0.00  0.00    -0.315 OA
BRANCH   3   4
HETATM    4  C   UNK N   1      30.587  53.337  41.343  0.00  0.00     0.136 C 
HETATM    5  C   UNK N   1      29.646  53.013  40.170  0.00  0.00     0.071 C 
HETATM    6  C   UNK N   1      29.204  54.308  39.411  0.00  0.00     0.254 C 
HETATM    7  N   UNK N   1      28.522  55.243  40.317  0.00  0.00     0.096 N 
HETATM    8  C   UNK N   1      30.382  55.177  38.939  0.00  0.00     0.153 C 
HETATM    9  C   UNK N   1      27.291  54.772  40.974  0.00  0.00     0.310 C 
HETATM   10  C   UNK N   1      29.621  55.693  41.187  0.00  0.00     0.228 C 
HETATM   11  C   UNK N   1      30.076  54.547  42.136  0.00  0.00     0.068 C 
HETATM   12  C   UNK N   1      30.724  56.052  40.173  0.00  0.00     0.069 C 
BRANCH   8  13
HETATM   13  O   UNK N   1      31.459  54.436  38.435  0.00  0.00    -0.393 OA
HETATM   14  H   UNK N   1      32.106  54.346  39.183  0.00  0.00     0.210 HD
ENDBRANCH   8  13
ENDBRANCH   3   4
ENDBRANCH   2   3
BRANCH   2  15
HETATM   15  C   UNK N   1      32.490  51.383  43.643  0.00  0.00     0.142 C 
BRANCH  15  16
HETATM   16  C   UNK N   1      33.863  50.697  43.543  0.00  0.00     0.183 C 
BRANCH  16  17
HETATM   17  O   UNK N   1      33.691  49.306  43.432  0.00  0.00    -0.400 OA
HETATM   18  H   UNK N   1      32.934  49.058  44.025  0.00  0.00     0.209 HD
ENDBRANCH  16  17
ENDBRANCH  15  16
BRANCH  15  19
HETATM   19  C   UNK N   1      32.629  52.766  44.267  0.00  0.00    -0.043 A 
HETATM   20  C   UNK N   1      33.797  53.519  44.036  0.00  0.00     0.008 A 
HETATM   21  C   UNK N   1      33.937  54.797  44.585  0.00  0.00     0.001 A 
HETATM   22  C   UNK N   1      32.920  55.337  45.375  0.00  0.00     0.000 A 
HETATM   23  C   UNK N   1      31.756  54.602  45.614  0.00  0.00     0.001 A 
HETATM   24  C   UNK N   1      31.604  53.326  45.059  0.00  0.00     0.008 A 
ENDBRANCH  15  19
ENDBRANCH   2  15
TORSDOF 7
ENDMDL
MODEL 9
REMARK VINA RESULT:      -5.7     12.875     14.260
REMARK  7 active torsions:
REMARK  status: ('A' for Active; 'I' for Inactive)
REMARK    1  A    between atoms: C_2  and  O_3 
REMARK    2  A    between atoms: C_2  and  C_15 
REMARK    3  A    between atoms: O_3  and  C_4 
REMARK    4  A    between atoms: C_12  and  O_13 
REMARK    5  A    between atoms: C_15  and  C_16 
REMARK    6  A    between atoms: C_15  and  C_19 
REMARK    7  A    between atoms: C_16  and  O_17 
ROOT
HETATM    1  O   UNK N   1      50.298  53.882  40.991  0.00  0.00    -0.264 OA
HETATM    2  C   UNK N   1      50.741  54.973  41.320  0.00  0.00     0.270 C 
ENDROOT
BRANCH   2   3
HETATM    3  O   UNK N   1      51.636  55.080  42.336  0.00  0.00    -0.315 OA
BRANCH   3   4
HETATM    4  C   UNK N   1      51.323  55.317  43.663  0.00  0.00     0.136 C 
HETATM    5  C   UNK N   1      51.697  56.759  44.046  0.00  0.00     0.071 C 
HETATM    6  C   UNK N   1      51.023  57.190  45.391  0.00  0.00     0.254 C 
HETATM    7  N   UNK N   1      49.559  57.092  45.301  0.00  0.00     0.096 N 
HETATM    8  C   UNK N   1      51.302  56.227  46.557  0.00  0.00     0.153 C 
HETATM    9  C   UNK N   1      48.887  57.914  44.280  0.00  0.00     0.310 C 
HETATM   10  C   UNK N   1      49.346  55.637  45.243  0.00  0.00     0.228 C 
HETATM   11  C   UNK N   1      49.825  55.066  43.877  0.00  0.00     0.068 C 
HETATM   12  C   UNK N   1      50.222  55.125  46.403  0.00  0.00     0.069 C 
BRANCH   8  13
HETATM   13  O   UNK N   1      52.619  55.751  46.587  0.00  0.00    -0.393 OA
HETATM   14  H   UNK N   1      52.932  55.744  45.645  0.00  0.00     0.210 HD
ENDBRANCH   8  13
ENDBRANCH   3   4
ENDBRANCH   2   3
BRANCH   2  15
HETATM   15  C   UNK N   1      50.284  56.237  40.618  0.00  0.00     0.142 C 
BRANCH  15  16
HETATM   16  C   UNK N   1      51.390  56.868  39.755  0.00  0.00     0.183 C 
BRANCH  16  17
HETATM   17  O   UNK N   1      52.473  55.979  39.648  0.00  0.00    -0.400 OA
HETATM   18  H   UNK N   1      52.606  55.573  40.545  0.00  0.00     0.209 HD
ENDBRANCH  16  17
ENDBRANCH  15  16
BRANCH  15  19
HETATM   19  C   UNK N   1      49.028  56.003  39.788  0.00  0.00    -0.043 A 
HETATM   20  C   UNK N   1      47.762  56.189  40.376  0.00  0.00     0.008 A 
HETATM   21  C   UNK N   1      46.597  55.996  39.626  0.00  0.00     0.001 A 
HETATM   22  C   UNK N   1      46.680  55.609  38.287  0.00  0.00     0.000 A 
HETATM   23  C   UNK N   1      47.929  55.419  37.691  0.00  0.00     0.001 A 
HETATM   24  C   UNK N   1      49.099  55.621  38.431  0.00  0.00     0.008 A 
ENDBRANCH  15  19
ENDBRANCH   2  15
TORSDOF 7
ENDMDL
