MODEL 1
REMARK VINA RESULT:      -6.8      0.000      0.000
REMARK  8 active torsions:
REMARK  status: ('A' for Active; 'I' for Inactive)
REMARK    1  A    between atoms: C_6  and  C_8 
REMARK    2  A    between atoms: C_10  and  O_11 
REMARK    3  A    between atoms: C_13  and  O_14 
REMARK    4  A    between atoms: C_18  and  C_26 
REMARK    5  A    between atoms: C_19  and  O_20 
REMARK    6  A    between atoms: C_23  and  O_24 
REMARK    7  A    between atoms: C_26  and  C_27 
REMARK    8  A    between atoms: C_30  and  O_31 
ROOT
HETATM    1  O   UNK N   1      32.151  49.394  42.374  0.00  0.00    -0.287 OA
HETATM    2  C   UNK N   1      31.830  50.556  42.190  0.00  0.00     0.190 A 
HETATM    3  C   UNK N   1      32.242  51.579  43.069  0.00  0.00     0.082 A 
HETATM    4  C   UNK N   1      31.828  52.905  42.789  0.00  0.00     0.102 A 
HETATM    5  O   UNK N   1      31.053  53.153  41.736  0.00  0.00    -0.308 OA
HETATM    6  C   UNK N   1      30.662  52.213  40.877  0.00  0.00     0.090 A 
HETATM    7  C   UNK N   1      31.051  50.879  41.081  0.00  0.00     0.094 A 
HETATM    8  C   UNK N   1      32.254  53.974  43.606  0.00  0.00     0.014 A 
HETATM    9  C   UNK N   1      33.082  53.705  44.716  0.00  0.00     0.077 A 
HETATM   10  C   UNK N   1      33.465  52.393  45.008  0.00  0.00     0.074 A 
HETATM   11  C   UNK N   1      33.056  51.328  44.198  0.00  0.00     0.085 A 
ENDROOT
BRANCH   6  12
HETATM   12  C   UNK N   1      29.824  52.618  39.720  0.00  0.00     0.001 A 
HETATM   13  C   UNK N   1      30.379  53.456  38.741  0.00  0.00     0.053 A 
HETATM   14  C   UNK N   1      29.633  53.860  37.633  0.00  0.00     0.099 A 
HETATM   15  C   UNK N   1      28.313  53.404  37.467  0.00  0.00     0.101 A 
HETATM   16  C   UNK N   1      27.753  52.553  38.445  0.00  0.00     0.040 A 
HETATM   17  C   UNK N   1      28.498  52.176  39.565  0.00  0.00     0.017 A 
BRANCH  14  18
HETATM   18  O   UNK N   1      30.204  54.690  36.733  0.00  0.00    -0.358 OA
HETATM   19  H   UNK N   1      29.683  55.230  36.123  0.00  0.00     0.218 HD
ENDBRANCH  14  18
BRANCH  15  20
HETATM   20  O   UNK N   1      27.616  53.791  36.366  0.00  0.00    -0.353 OA
HETATM   21  C   UNK N   1      26.616  54.742  36.350  0.00  0.00     0.210 C 
ENDBRANCH  15  20
ENDBRANCH   6  12
BRANCH   8  22
HETATM   22  C   UNK N   1      31.848  55.407  43.296  0.00  0.00     0.083 C 
BRANCH  22  23
HETATM   23  C   UNK N   1      30.537  55.495  42.560  0.00  0.00    -0.054 A 
HETATM   24  C   UNK N   1      30.459  56.104  41.296  0.00  0.00     0.010 A 
HETATM   25  C   UNK N   1      29.224  56.224  40.648  0.00  0.00     0.037 A 
HETATM   26  C   UNK N   1      28.061  55.730  41.251  0.00  0.00     0.065 A 
HETATM   27  C   UNK N   1      28.137  55.117  42.508  0.00  0.00     0.037 A 
HETATM   28  C   UNK N   1      29.365  55.008  43.162  0.00  0.00     0.010 A 
BRANCH  26  29
HETATM   29  O   UNK N   1      26.877  55.853  40.618  0.00  0.00    -0.361 OA
HETATM   30  H   UNK N   1      26.130  56.314  41.025  0.00  0.00     0.217 HD
ENDBRANCH  26  29
ENDBRANCH  22  23
ENDBRANCH   8  22
BRANCH  11  31
HETATM   31  O   UNK N   1      33.450  50.073  44.502  0.00  0.00    -0.360 OA
HETATM   32  H   UNK N   1      32.855  49.314  44.413  0.00  0.00     0.217 HD
ENDBRANCH  11  31
BRANCH   9  33
HETATM   33  O   UNK N   1      33.502  54.714  45.511  0.00  0.00    -0.360 OA
HETATM   34  H   UNK N   1      34.112  55.397  45.198  0.00  0.00     0.217 HD
ENDBRANCH   9  33
TORSDOF 8
ENDMDL
MODEL 2
REMARK VINA RESULT:      -6.6      2.065      7.499
REMARK  8 active torsions:
REMARK  status: ('A' for Active; 'I' for Inactive)
REMARK    1  A    between atoms: C_6  and  C_8 
REMARK    2  A    between atoms: C_10  and  O_11 
REMARK    3  A    between atoms: C_13  and  O_14 
REMARK    4  A    between atoms: C_18  and  C_26 
REMARK    5  A    between atoms: C_19  and  O_20 
REMARK    6  A    between atoms: C_23  and  O_24 
REMARK    7  A    between atoms: C_26  and  C_27 
REMARK    8  A    between atoms: C_30  and  O_31 
ROOT
HETATM    1  O   UNK N   1      28.849  58.556  40.970  0.00  0.00    -0.287 OA
HETATM    2  C   UNK N   1      29.102  57.375  40.804  0.00  0.00     0.190 A 
HETATM    3  C   UNK N   1      28.580  56.660  39.705  0.00  0.00     0.082 A 
HETATM    4  C   UNK N   1      28.918  55.290  39.581  0.00  0.00     0.102 A 
HETATM    5  O   UNK N   1      29.687  54.707  40.497  0.00  0.00    -0.308 OA
HETATM    6  C   UNK N   1      30.211  55.358  41.536  0.00  0.00     0.090 A 
HETATM    7  C   UNK N   1      29.934  56.724  41.711  0.00  0.00     0.094 A 
HETATM    8  C   UNK N   1      28.466  54.540  38.473  0.00  0.00     0.014 A 
HETATM    9  C   UNK N   1      27.658  55.166  37.502  0.00  0.00     0.077 A 
HETATM   10  C   UNK N   1      27.300  56.510  37.642  0.00  0.00     0.074 A 
HETATM   11  C   UNK N   1      27.752  57.264  38.731  0.00  0.00     0.085 A 
ENDROOT
BRANCH   6  12
HETATM   12  C   UNK N   1      31.081  54.606  42.474  0.00  0.00     0.001 A 
HETATM   13  C   UNK N   1      31.898  55.322  43.362  0.00  0.00     0.053 A 
HETATM   14  C   UNK N   1      32.730  54.660  44.267  0.00  0.00     0.099 A 
HETATM   15  C   UNK N   1      32.736  53.254  44.320  0.00  0.00     0.101 A 
HETATM   16  C   UNK N   1      31.908  52.530  43.436  0.00  0.00     0.040 A 
HETATM   17  C   UNK N   1      31.099  53.200  42.514  0.00  0.00     0.017 A 
BRANCH  14  18
HETATM   18  O   UNK N   1      33.520  55.393  45.080  0.00  0.00    -0.358 OA
HETATM   19  H   UNK N   1      34.058  54.995  45.778  0.00  0.00     0.218 HD
ENDBRANCH  14  18
BRANCH  15  20
HETATM   20  O   UNK N   1      33.536  52.633  45.228  0.00  0.00    -0.353 OA
HETATM   21  C   UNK N   1      34.216  51.452  45.014  0.00  0.00     0.210 C 
ENDBRANCH  15  20
ENDBRANCH   6  12
BRANCH   8  22
HETATM   22  C   UNK N   1      28.852  53.078  38.307  0.00  0.00     0.083 C 
BRANCH  22  23
HETATM   23  C   UNK N   1      28.014  52.154  39.152  0.00  0.00    -0.054 A 
HETATM   24  C   UNK N   1      26.614  52.148  39.041  0.00  0.00     0.010 A 
HETATM   25  C   UNK N   1      25.846  51.320  39.869  0.00  0.00     0.037 A 
HETATM   26  C   UNK N   1      26.470  50.488  40.806  0.00  0.00     0.065 A 
HETATM   27  C   UNK N   1      27.867  50.489  40.915  0.00  0.00     0.037 A 
HETATM   28  C   UNK N   1      28.633  51.322  40.099  0.00  0.00     0.010 A 
BRANCH  26  29
HETATM   29  O   UNK N   1      25.720  49.697  41.600  0.00  0.00    -0.361 OA
HETATM   30  H   UNK N   1      24.982  49.179  41.247  0.00  0.00     0.217 HD
ENDBRANCH  26  29
ENDBRANCH  22  23
ENDBRANCH   8  22
BRANCH  11  31
HETATM   31  O   UNK N   1      27.397  58.563  38.832  0.00  0.00    -0.360 OA
HETATM   32  H   UNK N   1      26.848  58.997  38.163  0.00  0.00     0.217 HD
ENDBRANCH  11  31
BRANCH   9  33
HETATM   33  O   UNK N   1      27.214  54.467  36.434  0.00  0.00    -0.360 OA
HETATM   34  H   UNK N   1      27.094  53.507  36.461  0.00  0.00     0.217 HD
ENDBRANCH   9  33
TORSDOF 8
ENDMDL
MODEL 3
REMARK VINA RESULT:      -6.6     17.944     21.336
REMARK  8 active torsions:
REMARK  status: ('A' for Active; 'I' for Inactive)
REMARK    1  A    between atoms: C_6  and  C_8 
REMARK    2  A    between atoms: C_10  and  O_11 
REMARK    3  A    between atoms: C_13  and  O_14 
REMARK    4  A    between atoms: C_18  and  C_26 
REMARK    5  A    between atoms: C_19  and  O_20 
REMARK    6  A    between atoms: C_23  and  O_24 
REMARK    7  A    between atoms: C_26  and  C_27 
REMARK    8  A    between atoms: C_30  and  O_31 
ROOT
HETATM    1  O   UNK N   1      29.264  35.750  57.638  0.00  0.00    -0.287 OA
HETATM    2  C   UNK N   1      29.324  36.966  57.701  0.00  0.00     0.190 A 
HETATM    3  C   UNK N   1      29.466  37.631  58.938  0.00  0.00     0.082 A 
HETATM    4  C   UNK N   1      29.527  39.047  58.930  0.00  0.00     0.102 A 
HETATM    5  O   UNK N   1      29.429  39.712  57.782  0.00  0.00    -0.308 OA
HETATM    6  C   UNK N   1      29.313  39.114  56.596  0.00  0.00     0.090 A 
HETATM    7  C   UNK N   1      29.265  37.712  56.527  0.00  0.00     0.094 A 
HETATM    8  C   UNK N   1      29.720  39.760  60.133  0.00  0.00     0.014 A 
HETATM    9  C   UNK N   1      29.832  39.048  61.345  0.00  0.00     0.077 A 
HETATM   10  C   UNK N   1      29.740  37.654  61.355  0.00  0.00     0.074 A 
HETATM   11  C   UNK N   1      29.560  36.937  60.166  0.00  0.00     0.085 A 
ENDROOT
BRANCH   6  12
HETATM   12  C   UNK N   1      29.244  39.964  55.381  0.00  0.00     0.001 A 
HETATM   13  C   UNK N   1      28.302  39.652  54.389  0.00  0.00     0.053 A 
HETATM   14  C   UNK N   1      28.194  40.425  53.231  0.00  0.00     0.099 A 
HETATM   15  C   UNK N   1      29.017  41.552  53.057  0.00  0.00     0.101 A 
HETATM   16  C   UNK N   1      29.959  41.875  54.057  0.00  0.00     0.040 A 
HETATM   17  C   UNK N   1      30.079  41.081  55.200  0.00  0.00     0.017 A 
BRANCH  14  18
HETATM   18  O   UNK N   1      27.292  40.067  52.292  0.00  0.00    -0.358 OA
HETATM   19  H   UNK N   1      26.395  40.426  52.271  0.00  0.00     0.218 HD
ENDBRANCH  14  18
BRANCH  15  20
HETATM   20  O   UNK N   1      28.876  42.303  51.932  0.00  0.00    -0.353 OA
HETATM   21  C   UNK N   1      28.192  43.499  51.853  0.00  0.00     0.210 C 
ENDBRANCH  15  20
ENDBRANCH   6  12
BRANCH   8  22
HETATM   22  C   UNK N   1      29.826  41.277  60.135  0.00  0.00     0.083 C 
BRANCH  22  23
HETATM   23  C   UNK N   1      31.204  41.767  59.772  0.00  0.00    -0.054 A 
HETATM   24  C   UNK N   1      32.308  41.482  60.593  0.00  0.00     0.010 A 
HETATM   25  C   UNK N   1      33.573  41.987  60.270  0.00  0.00     0.037 A 
HETATM   26  C   UNK N   1      33.747  42.771  59.123  0.00  0.00     0.065 A 
HETATM   27  C   UNK N   1      32.648  43.052  58.300  0.00  0.00     0.037 A 
HETATM   28  C   UNK N   1      31.383  42.560  58.627  0.00  0.00     0.010 A 
BRANCH  26  29
HETATM   29  O   UNK N   1      34.969  43.254  58.822  0.00  0.00    -0.361 OA
HETATM   30  H   UNK N   1      35.113  43.831  58.059  0.00  0.00     0.217 HD
ENDBRANCH  26  29
ENDBRANCH  22  23
ENDBRANCH   8  22
BRANCH  11  31
HETATM   31  O   UNK N   1      29.485  35.590  60.208  0.00  0.00    -0.360 OA
HETATM   32  H   UNK N   1      29.926  35.073  60.899  0.00  0.00     0.217 HD
ENDBRANCH  11  31
BRANCH   9  33
HETATM   33  O   UNK N   1      30.017  39.712  62.508  0.00  0.00    -0.360 OA
HETATM   34  H   UNK N   1      30.874  40.087  62.756  0.00  0.00     0.217 HD
ENDBRANCH   9  33
TORSDOF 8
ENDMDL
MODEL 4
REMARK VINA RESULT:      -6.5     15.729     18.793
REMARK  8 active torsions:
REMARK  status: ('A' for Active; 'I' for Inactive)
REMARK    1  A    between atoms: C_6  and  C_8 
REMARK    2  A    between atoms: C_10  and  O_11 
REMARK    3  A    between atoms: C_13  and  O_14 
REMARK    4  A    between atoms: C_18  and  C_26 
REMARK    5  A    between atoms: C_19  and  O_20 
REMARK    6  A    between atoms: C_23  and  O_24 
REMARK    7  A    between atoms: C_26  and  C_27 
REMARK    8  A    between atoms: C_30  and  O_31 
ROOT
HETATM    1  O   UNK N   1      28.861  38.950  58.354  0.00  0.00    -0.287 OA
HETATM    2  C   UNK N   1      29.223  40.007  57.867  0.00  0.00     0.190 A 
HETATM    3  C   UNK N   1      30.142  40.845  58.532  0.00  0.00     0.082 A 
HETATM    4  C   UNK N   1      30.514  42.059  57.901  0.00  0.00     0.102 A 
HETATM    5  O   UNK N   1      29.982  42.391  56.727  0.00  0.00    -0.308 OA
HETATM    6  C   UNK N   1      29.126  41.613  56.065  0.00  0.00     0.090 A 
HETATM    7  C   UNK N   1      28.728  40.386  56.621  0.00  0.00     0.094 A 
HETATM    8  C   UNK N   1      31.469  42.910  58.498  0.00  0.00     0.014 A 
HETATM    9  C   UNK N   1      32.035  42.548  59.738  0.00  0.00     0.077 A 
HETATM   10  C   UNK N   1      31.644  41.366  60.373  0.00  0.00     0.074 A 
HETATM   11  C   UNK N   1      30.707  40.510  59.784  0.00  0.00     0.085 A 
ENDROOT
BRANCH   6  12
HETATM   12  C   UNK N   1      28.625  42.078  54.747  0.00  0.00     0.001 A 
HETATM   13  C   UNK N   1      29.460  41.961  53.626  0.00  0.00     0.053 A 
HETATM   14  C   UNK N   1      29.033  42.379  52.364  0.00  0.00     0.099 A 
HETATM   15  C   UNK N   1      27.737  42.899  52.196  0.00  0.00     0.101 A 
HETATM   16  C   UNK N   1      26.890  43.009  53.320  0.00  0.00     0.040 A 
HETATM   17  C   UNK N   1      27.335  42.614  54.583  0.00  0.00     0.017 A 
BRANCH  14  18
HETATM   18  O   UNK N   1      29.884  42.274  51.321  0.00  0.00    -0.358 OA
HETATM   19  H   UNK N   1      30.349  43.037  50.952  0.00  0.00     0.218 HD
ENDBRANCH  14  18
BRANCH  15  20
HETATM   20  O   UNK N   1      27.335  43.275  50.952  0.00  0.00    -0.353 OA
HETATM   21  C   UNK N   1      26.104  42.996  50.394  0.00  0.00     0.210 C 
ENDBRANCH  15  20
ENDBRANCH   6  12
BRANCH   8  22
HETATM   22  C   UNK N   1      31.905  44.197  57.815  0.00  0.00     0.083 C 
BRANCH  22  23
HETATM   23  C   UNK N   1      31.055  45.379  58.200  0.00  0.00    -0.054 A 
HETATM   24  C   UNK N   1      30.316  45.376  59.395  0.00  0.00     0.010 A 
HETATM   25  C   UNK N   1      29.490  46.460  59.715  0.00  0.00     0.037 A 
HETATM   26  C   UNK N   1      29.403  47.558  58.850  0.00  0.00     0.065 A 
HETATM   27  C   UNK N   1      30.143  47.566  57.660  0.00  0.00     0.037 A 
HETATM   28  C   UNK N   1      30.957  46.480  57.334  0.00  0.00     0.010 A 
BRANCH  26  29
HETATM   29  O   UNK N   1      28.603  48.596  59.167  0.00  0.00    -0.361 OA
HETATM   30  H   UNK N   1      27.866  48.497  59.786  0.00  0.00     0.217 HD
ENDBRANCH  26  29
ENDBRANCH  22  23
ENDBRANCH   8  22
BRANCH  11  31
HETATM   31  O   UNK N   1      30.357  39.370  60.419  0.00  0.00    -0.360 OA
HETATM   32  H   UNK N   1      30.328  38.518  59.960  0.00  0.00     0.217 HD
ENDBRANCH  11  31
BRANCH   9  33
HETATM   33  O   UNK N   1      32.951  43.349  60.326  0.00  0.00    -0.360 OA
HETATM   34  H   UNK N   1      33.542  43.919  59.813  0.00  0.00     0.217 HD
ENDBRANCH   9  33
TORSDOF 8
ENDMDL
MODEL 5
REMARK VINA RESULT:      -6.4     16.139     19.619
REMARK  8 active torsions:
REMARK  status: ('A' for Active; 'I' for Inactive)
REMARK    1  A    between atoms: C_6  and  C_8 
REMARK    2  A    between atoms: C_10  and  O_11 
REMARK    3  A    between atoms: C_13  and  O_14 
REMARK    4  A    between atoms: C_18  and  C_26 
REMARK    5  A    between atoms: C_19  and  O_20 
REMARK    6  A    between atoms: C_23  and  O_24 
REMARK    7  A    between atoms: C_26  and  C_27 
REMARK    8  A    between atoms: C_30  and  O_31 
ROOT
HETATM    1  O   UNK N   1      32.262  42.399  61.001  0.00  0.00    -0.287 OA
HETATM    2  C   UNK N   1      31.453  42.815  60.189  0.00  0.00     0.190 A 
HETATM    3  C   UNK N   1      30.669  41.932  59.416  0.00  0.00     0.082 A 
HETATM    4  C   UNK N   1      29.752  42.491  58.492  0.00  0.00     0.102 A 
HETATM    5  O   UNK N   1      29.664  43.812  58.356  0.00  0.00    -0.308 OA
HETATM    6  C   UNK N   1      30.376  44.672  59.083  0.00  0.00     0.090 A 
HETATM    7  C   UNK N   1      31.291  44.189  60.033  0.00  0.00     0.094 A 
HETATM    8  C   UNK N   1      28.907  41.656  57.730  0.00  0.00     0.014 A 
HETATM    9  C   UNK N   1      29.000  40.256  57.885  0.00  0.00     0.077 A 
HETATM   10  C   UNK N   1      29.927  39.706  58.775  0.00  0.00     0.074 A 
HETATM   11  C   UNK N   1      30.761  40.527  59.542  0.00  0.00     0.085 A 
ENDROOT
BRANCH   6  12
HETATM   12  C   UNK N   1      30.166  46.125  58.863  0.00  0.00     0.001 A 
HETATM   13  C   UNK N   1      30.538  46.684  57.631  0.00  0.00     0.053 A 
HETATM   14  C   UNK N   1      30.356  48.044  57.374  0.00  0.00     0.099 A 
HETATM   15  C   UNK N   1      29.764  48.872  58.345  0.00  0.00     0.101 A 
HETATM   16  C   UNK N   1      29.379  48.312  59.582  0.00  0.00     0.040 A 
HETATM   17  C   UNK N   1      29.590  46.956  59.841  0.00  0.00     0.017 A 
BRANCH  14  18
HETATM   18  O   UNK N   1      30.757  48.540  56.184  0.00  0.00    -0.358 OA
HETATM   19  H   UNK N   1      31.083  49.445  56.082  0.00  0.00     0.218 HD
ENDBRANCH  14  18
BRANCH  15  20
HETATM   20  O   UNK N   1      29.574  50.188  58.060  0.00  0.00    -0.353 OA
HETATM   21  C   UNK N   1      28.869  51.079  58.844  0.00  0.00     0.210 C 
ENDBRANCH  15  20
ENDBRANCH   6  12
BRANCH   8  22
HETATM   22  C   UNK N   1      27.891  42.242  56.762  0.00  0.00     0.083 C 
BRANCH  22  23
HETATM   23  C   UNK N   1      28.368  42.223  55.334  0.00  0.00    -0.054 A 
HETATM   24  C   UNK N   1      29.693  41.874  55.021  0.00  0.00     0.010 A 
HETATM   25  C   UNK N   1      30.135  41.910  53.693  0.00  0.00     0.037 A 
HETATM   26  C   UNK N   1      29.258  42.286  52.669  0.00  0.00     0.065 A 
HETATM   27  C   UNK N   1      27.935  42.629  52.977  0.00  0.00     0.037 A 
HETATM   28  C   UNK N   1      27.496  42.606  54.302  0.00  0.00     0.010 A 
BRANCH  26  29
HETATM   29  O   UNK N   1      29.696  42.319  51.394  0.00  0.00    -0.361 OA
HETATM   30  H   UNK N   1      29.083  42.268  50.646  0.00  0.00     0.217 HD
ENDBRANCH  26  29
ENDBRANCH  22  23
ENDBRANCH   8  22
BRANCH  11  31
HETATM   31  O   UNK N   1      31.640  39.964  60.400  0.00  0.00    -0.360 OA
HETATM   32  H   UNK N   1      32.386  39.430  60.091  0.00  0.00     0.217 HD
ENDBRANCH  11  31
BRANCH   9  33
HETATM   33  O   UNK N   1      28.200  39.438  57.166  0.00  0.00    -0.360 OA
HETATM   34  H   UNK N   1      28.291  38.475  57.192  0.00  0.00     0.217 HD
ENDBRANCH   9  33
TORSDOF 8
ENDMDL
MODEL 6
REMARK VINA RESULT:      -6.2      2.310      7.326
REMARK  8 active torsions:
REMARK  status: ('A' for Active; 'I' for Inactive)
REMARK    1  A    between atoms: C_6  and  C_8 
REMARK    2  A    between atoms: C_10  and  O_11 
REMARK    3  A    between atoms: C_13  and  O_14 
REMARK    4  A    between atoms: C_18  and  C_26 
REMARK    5  A    between atoms: C_19  and  O_20 
REMARK    6  A    between atoms: C_23  and  O_24 
REMARK    7  A    between atoms: C_26  and  C_27 
REMARK    8  A    between atoms: C_30  and  O_31 
ROOT
HETATM    1  O   UNK N   1      29.127  57.686  41.887  0.00  0.00    -0.287 OA
HETATM    2  C   UNK N   1      29.181  56.529  41.505  0.00  0.00     0.190 A 
HETATM    3  C   UNK N   1      28.391  56.074  40.429  0.00  0.00     0.082 A 
HETATM    4  C   UNK N   1      28.509  54.715  40.044  0.00  0.00     0.102 A 
HETATM    5  O   UNK N   1      29.330  53.903  40.706  0.00  0.00    -0.308 OA
HETATM    6  C   UNK N   1      30.103  54.307  41.714  0.00  0.00     0.090 A 
HETATM    7  C   UNK N   1      30.052  55.645  42.136  0.00  0.00     0.094 A 
HETATM    8  C   UNK N   1      27.780  54.219  38.941  0.00  0.00     0.014 A 
HETATM    9  C   UNK N   1      26.918  55.087  38.239  0.00  0.00     0.077 A 
HETATM   10  C   UNK N   1      26.780  56.419  38.639  0.00  0.00     0.074 A 
HETATM   11  C   UNK N   1      27.506  56.922  39.724  0.00  0.00     0.085 A 
ENDROOT
BRANCH   6  12
HETATM   12  C   UNK N   1      31.002  53.314  42.354  0.00  0.00     0.001 A 
HETATM   13  C   UNK N   1      31.128  52.041  41.776  0.00  0.00     0.053 A 
HETATM   14  C   UNK N   1      31.965  51.076  42.338  0.00  0.00     0.099 A 
HETATM   15  C   UNK N   1      32.722  51.380  43.483  0.00  0.00     0.101 A 
HETATM   16  C   UNK N   1      32.607  52.662  44.062  0.00  0.00     0.040 A 
HETATM   17  C   UNK N   1      31.746  53.614  43.510  0.00  0.00     0.017 A 
BRANCH  14  18
HETATM   18  O   UNK N   1      32.029  49.856  41.761  0.00  0.00    -0.358 OA
HETATM   19  H   UNK N   1      31.957  49.038  42.271  0.00  0.00     0.218 HD
ENDBRANCH  14  18
BRANCH  15  20
HETATM   20  O   UNK N   1      33.550  50.430  43.996  0.00  0.00    -0.353 OA
HETATM   21  C   UNK N   1      34.903  50.334  43.745  0.00  0.00     0.210 C 
ENDBRANCH  15  20
ENDBRANCH   6  12
BRANCH   8  22
HETATM   22  C   UNK N   1      27.925  52.773  38.493  0.00  0.00     0.083 C 
BRANCH  22  23
HETATM   23  C   UNK N   1      26.971  51.845  39.199  0.00  0.00    -0.054 A 
HETATM   24  C   UNK N   1      27.317  51.252  40.425  0.00  0.00     0.010 A 
HETATM   25  C   UNK N   1      26.441  50.352  41.043  0.00  0.00     0.037 A 
HETATM   26  C   UNK N   1      25.211  50.046  40.448  0.00  0.00     0.065 A 
HETATM   27  C   UNK N   1      24.861  50.640  39.229  0.00  0.00     0.037 A 
HETATM   28  C   UNK N   1      25.739  51.528  38.604  0.00  0.00     0.010 A 
BRANCH  26  29
HETATM   29  O   UNK N   1      24.375  49.176  41.052  0.00  0.00    -0.361 OA
HETATM   30  H   UNK N   1      23.861  49.427  41.832  0.00  0.00     0.217 HD
ENDBRANCH  26  29
ENDBRANCH  22  23
ENDBRANCH   8  22
BRANCH  11  31
HETATM   31  O   UNK N   1      27.357  58.217  40.080  0.00  0.00    -0.360 OA
HETATM   32  H   UNK N   1      26.558  58.537  40.524  0.00  0.00     0.217 HD
ENDBRANCH  11  31
BRANCH   9  33
HETATM   33  O   UNK N   1      26.211  54.632  37.180  0.00  0.00    -0.360 OA
HETATM   34  H   UNK N   1      26.502  54.773  36.268  0.00  0.00     0.217 HD
ENDBRANCH   9  33
TORSDOF 8
ENDMDL
MODEL 7
REMARK VINA RESULT:      -6.2      2.085      6.758
REMARK  8 active torsions:
REMARK  status: ('A' for Active; 'I' for Inactive)
REMARK    1  A    between atoms: C_6  and  C_8 
REMARK    2  A    between atoms: C_10  and  O_11 
REMARK    3  A    between atoms: C_13  and  O_14 
REMARK    4  A    between atoms: C_18  and  C_26 
REMARK    5  A    between atoms: C_19  and  O_20 
REMARK    6  A    between atoms: C_23  and  O_24 
REMARK    7  A    between atoms: C_26  and  C_27 
REMARK    8  A    between atoms: C_30  and  O_31 
ROOT
HETATM    1  O   UNK N   1      30.886  56.191  43.818  0.00  0.00    -0.287 OA
HETATM    2  C   UNK N   1      30.839  55.248  43.047  0.00  0.00     0.190 A 
HETATM    3  C   UNK N   1      30.127  55.327  41.831  0.00  0.00     0.082 A 
HETATM    4  C   UNK N   1      30.118  54.188  40.989  0.00  0.00     0.102 A 
HETATM    5  O   UNK N   1      30.748  53.077  41.362  0.00  0.00    -0.308 OA
HETATM    6  C   UNK N   1      31.444  52.976  42.494  0.00  0.00     0.090 A 
HETATM    7  C   UNK N   1      31.513  54.073  43.369  0.00  0.00     0.094 A 
HETATM    8  C   UNK N   1      29.465  54.230  39.738  0.00  0.00     0.014 A 
HETATM    9  C   UNK N   1      28.805  55.414  39.345  0.00  0.00     0.077 A 
HETATM   10  C   UNK N   1      28.789  56.526  40.191  0.00  0.00     0.074 A 
HETATM   11  C   UNK N   1      29.443  56.497  41.428  0.00  0.00     0.085 A 
ENDROOT
BRANCH   6  12
HETATM   12  C   UNK N   1      32.133  51.693  42.787  0.00  0.00     0.001 A 
HETATM   13  C   UNK N   1      31.678  50.522  42.162  0.00  0.00     0.053 A 
HETATM   14  C   UNK N   1      32.295  49.293  42.400  0.00  0.00     0.099 A 
HETATM   15  C   UNK N   1      33.409  49.219  43.255  0.00  0.00     0.101 A 
HETATM   16  C   UNK N   1      33.877  50.396  43.878  0.00  0.00     0.040 A 
HETATM   17  C   UNK N   1      33.236  51.617  43.655  0.00  0.00     0.017 A 
BRANCH  14  18
HETATM   18  O   UNK N   1      31.801  48.190  41.797  0.00  0.00    -0.358 OA
HETATM   19  H   UNK N   1      32.225  47.324  41.873  0.00  0.00     0.218 HD
ENDBRANCH  14  18
BRANCH  15  20
HETATM   20  O   UNK N   1      34.009  48.014  43.451  0.00  0.00    -0.353 OA
HETATM   21  C   UNK N   1      35.311  47.708  43.111  0.00  0.00     0.210 C 
ENDBRANCH  15  20
ENDBRANCH   6  12
BRANCH   8  22
HETATM   22  C   UNK N   1      29.478  53.028  38.807  0.00  0.00     0.083 C 
BRANCH  22  23
HETATM   23  C   UNK N   1      28.223  52.201  38.903  0.00  0.00    -0.054 A 
HETATM   24  C   UNK N   1      27.367  52.060  37.798  0.00  0.00     0.010 A 
HETATM   25  C   UNK N   1      26.177  51.331  37.918  0.00  0.00     0.037 A 
HETATM   26  C   UNK N   1      25.839  50.731  39.136  0.00  0.00     0.065 A 
HETATM   27  C   UNK N   1      26.693  50.866  40.238  0.00  0.00     0.037 A 
HETATM   28  C   UNK N   1      27.874  51.603  40.125  0.00  0.00     0.010 A 
BRANCH  26  29
HETATM   29  O   UNK N   1      24.690  50.033  39.241  0.00  0.00    -0.361 OA
HETATM   30  H   UNK N   1      23.952  50.178  38.631  0.00  0.00     0.217 HD
ENDBRANCH  26  29
ENDBRANCH  22  23
ENDBRANCH   8  22
BRANCH  11  31
HETATM   31  O   UNK N   1      29.417  57.592  42.218  0.00  0.00    -0.360 OA
HETATM   32  H   UNK N   1      29.104  57.555  43.134  0.00  0.00     0.217 HD
ENDBRANCH  11  31
BRANCH   9  33
HETATM   33  O   UNK N   1      28.174  55.475  38.151  0.00  0.00    -0.360 OA
HETATM   34  H   UNK N   1      28.592  55.856  37.367  0.00  0.00     0.217 HD
ENDBRANCH   9  33
TORSDOF 8
ENDMDL
MODEL 8
REMARK VINA RESULT:      -6.1     17.834     21.950
REMARK  8 active torsions:
REMARK  status: ('A' for Active; 'I' for Inactive)
REMARK    1  A    between atoms: C_6  and  C_8 
REMARK    2  A    between atoms: C_10  and  O_11 
REMARK    3  A    between atoms: C_13  and  O_14 
REMARK    4  A    between atoms: C_18  and  C_26 
REMARK    5  A    between atoms: C_19  and  O_20 
REMARK    6  A    between atoms: C_23  and  O_24 
REMARK    7  A    between atoms: C_26  and  C_27 
REMARK    8  A    between atoms: C_30  and  O_31 
ROOT
HETATM    1  O   UNK N   1      30.842  40.147  61.217  0.00  0.00    -0.287 OA
HETATM    2  C   UNK N   1      31.274  41.187  60.752  0.00  0.00     0.190 A 
HETATM    3  C   UNK N   1      30.683  41.786  59.619  0.00  0.00     0.082 A 
HETATM    4  C   UNK N   1      31.243  42.995  59.136  0.00  0.00     0.102 A 
HETATM    5  O   UNK N   1      32.309  43.522  59.734  0.00  0.00    -0.308 OA
HETATM    6  C   UNK N   1      32.878  42.992  60.816  0.00  0.00     0.090 A 
HETATM    7  C   UNK N   1      32.364  41.804  61.361  0.00  0.00     0.094 A 
HETATM    8  C   UNK N   1      30.660  43.663  58.038  0.00  0.00     0.014 A 
HETATM    9  C   UNK N   1      29.526  43.103  57.414  0.00  0.00     0.077 A 
HETATM   10  C   UNK N   1      28.994  41.895  57.872  0.00  0.00     0.074 A 
HETATM   11  C   UNK N   1      29.558  41.231  58.967  0.00  0.00     0.085 A 
ENDROOT
BRANCH   6  12
HETATM   12  C   UNK N   1      34.045  43.690  61.413  0.00  0.00     0.001 A 
HETATM   13  C   UNK N   1      33.930  44.215  62.709  0.00  0.00     0.053 A 
HETATM   14  C   UNK N   1      35.000  44.874  63.316  0.00  0.00     0.099 A 
HETATM   15  C   UNK N   1      36.227  44.997  62.639  0.00  0.00     0.101 A 
HETATM   16  C   UNK N   1      36.350  44.461  61.339  0.00  0.00     0.040 A 
HETATM   17  C   UNK N   1      35.266  43.827  60.729  0.00  0.00     0.017 A 
BRANCH  14  18
HETATM   18  O   UNK N   1      34.830  45.388  64.553  0.00  0.00    -0.358 OA
HETATM   19  H   UNK N   1      35.189  46.248  64.812  0.00  0.00     0.218 HD
ENDBRANCH  14  18
BRANCH  15  20
HETATM   20  O   UNK N   1      37.262  45.621  63.262  0.00  0.00    -0.353 OA
HETATM   21  C   UNK N   1      38.472  45.036  63.578  0.00  0.00     0.210 C 
ENDBRANCH  15  20
ENDBRANCH   6  12
BRANCH   8  22
HETATM   22  C   UNK N   1      31.228  44.981  57.533  0.00  0.00     0.083 C 
BRANCH  22  23
HETATM   23  C   UNK N   1      30.564  46.180  58.158  0.00  0.00    -0.054 A 
HETATM   24  C   UNK N   1      30.414  47.377  57.438  0.00  0.00     0.010 A 
HETATM   25  C   UNK N   1      29.841  48.499  58.049  0.00  0.00     0.037 A 
HETATM   26  C   UNK N   1      29.406  48.431  59.378  0.00  0.00     0.065 A 
HETATM   27  C   UNK N   1      29.548  47.236  60.096  0.00  0.00     0.037 A 
HETATM   28  C   UNK N   1      30.131  46.121  59.492  0.00  0.00     0.010 A 
BRANCH  26  29
HETATM   29  O   UNK N   1      28.856  49.517  59.957  0.00  0.00    -0.361 OA
HETATM   30  H   UNK N   1      29.403  50.237  60.305  0.00  0.00     0.217 HD
ENDBRANCH  26  29
ENDBRANCH  22  23
ENDBRANCH   8  22
BRANCH  11  31
HETATM   31  O   UNK N   1      29.014  40.070  59.392  0.00  0.00    -0.360 OA
HETATM   32  H   UNK N   1      29.356  39.597  60.166  0.00  0.00     0.217 HD
ENDBRANCH  11  31
BRANCH   9  33
HETATM   33  O   UNK N   1      28.953  43.727  56.361  0.00  0.00    -0.360 OA
HETATM   34  H   UNK N   1      29.474  44.202  55.698  0.00  0.00     0.217 HD
ENDBRANCH   9  33
TORSDOF 8
ENDMDL
MODEL 9
REMARK VINA RESULT:      -5.9     17.385     21.233
REMARK  8 active torsions:
REMARK  status: ('A' for Active; 'I' for Inactive)
REMARK    1  A    between atoms: C_6  and  C_8 
REMARK    2  A    between atoms: C_10  and  O_11 
REMARK    3  A    between atoms: C_13  and  O_14 
REMARK    4  A    between atoms: C_18  and  C_26 
REMARK    5  A    between atoms: C_19  and  O_20 
REMARK    6  A    between atoms: C_23  and  O_24 
REMARK    7  A    between atoms: C_26  and  C_27 
REMARK    8  A    between atoms: C_30  and  O_31 
ROOT
HETATM    1  O   UNK N   1      28.707  40.255  55.012  0.00  0.00    -0.287 OA
HETATM    2  C   UNK N   1      29.050  40.715  56.087  0.00  0.00     0.190 A 
HETATM    3  C   UNK N   1      29.320  39.879  57.191  0.00  0.00     0.082 A 
HETATM    4  C   UNK N   1      29.713  40.489  58.408  0.00  0.00     0.102 A 
HETATM    5  O   UNK N   1      29.797  41.815  58.493  0.00  0.00    -0.308 OA
HETATM    6  C   UNK N   1      29.566  42.631  57.465  0.00  0.00     0.090 A 
HETATM    7  C   UNK N   1      29.192  42.094  56.222  0.00  0.00     0.094 A 
HETATM    8  C   UNK N   1      30.045  39.698  59.529  0.00  0.00     0.014 A 
HETATM    9  C   UNK N   1      29.962  38.293  59.429  0.00  0.00     0.077 A 
HETATM   10  C   UNK N   1      29.545  37.695  58.237  0.00  0.00     0.074 A 
HETATM   11  C   UNK N   1      29.224  38.470  57.118  0.00  0.00     0.085 A 
ENDROOT
BRANCH   6  12
HETATM   12  C   UNK N   1      29.723  44.092  57.675  0.00  0.00     0.001 A 
HETATM   13  C   UNK N   1      28.600  44.848  58.043  0.00  0.00     0.053 A 
HETATM   14  C   UNK N   1      28.698  46.224  58.257  0.00  0.00     0.099 A 
HETATM   15  C   UNK N   1      29.941  46.870  58.133  0.00  0.00     0.101 A 
HETATM   16  C   UNK N   1      31.076  46.111  57.773  0.00  0.00     0.040 A 
HETATM   17  C   UNK N   1      30.964  44.739  57.534  0.00  0.00     0.017 A 
BRANCH  14  18
HETATM   18  O   UNK N   1      27.582  46.912  58.581  0.00  0.00    -0.358 OA
HETATM   19  H   UNK N   1      27.575  47.598  59.262  0.00  0.00     0.218 HD
ENDBRANCH  14  18
BRANCH  15  20
HETATM   20  O   UNK N   1      30.015  48.206  58.372  0.00  0.00    -0.353 OA
HETATM   21  C   UNK N   1      30.102  49.185  57.403  0.00  0.00     0.210 C 
ENDBRANCH  15  20
ENDBRANCH   6  12
BRANCH   8  22
HETATM   22  C   UNK N   1      30.505  40.338  60.830  0.00  0.00     0.083 C 
BRANCH  22  23
HETATM   23  C   UNK N   1      31.743  41.178  60.661  0.00  0.00    -0.054 A 
HETATM   24  C   UNK N   1      32.879  40.666  60.012  0.00  0.00     0.010 A 
HETATM   25  C   UNK N   1      34.040  41.441  59.908  0.00  0.00     0.037 A 
HETATM   26  C   UNK N   1      34.073  42.734  60.443  0.00  0.00     0.065 A 
HETATM   27  C   UNK N   1      32.940  43.250  61.086  0.00  0.00     0.037 A 
HETATM   28  C   UNK N   1      31.786  42.474  61.202  0.00  0.00     0.010 A 
BRANCH  26  29
HETATM   29  O   UNK N   1      35.197  43.472  60.338  0.00  0.00    -0.361 OA
HETATM   30  H   UNK N   1      35.663  43.799  61.121  0.00  0.00     0.217 HD
ENDBRANCH  26  29
ENDBRANCH  22  23
ENDBRANCH   8  22
BRANCH  11  31
HETATM   31  O   UNK N   1      28.833  37.861  55.978  0.00  0.00    -0.360 OA
HETATM   32  H   UNK N   1      28.334  38.329  55.292  0.00  0.00     0.217 HD
ENDBRANCH  11  31
BRANCH   9  33
HETATM   33  O   UNK N   1      30.276  37.517  60.491  0.00  0.00    -0.360 OA
HETATM   34  H   UNK N   1      31.163  37.507  60.876  0.00  0.00     0.217 HD
ENDBRANCH   9  33
TORSDOF 8
ENDMDL
