MODEL 1
REMARK VINA RESULT:      -6.0      0.000      0.000
REMARK  9 active torsions:
REMARK  status: ('A' for Active; 'I' for Inactive)
REMARK    1  A    between atoms: C_3  and  O_4 
REMARK    2  A    between atoms: C_6  and  C_27 
REMARK    3  A    between atoms: C_10  and  O_11 
REMARK    4  A    between atoms: C_14  and  O_25 
REMARK    5  A    between atoms: C_15  and  C_16 
REMARK    6  A    between atoms: C_16  and  C_17 
REMARK    7  A    between atoms: C_20  and  O_21 
REMARK    8  A    between atoms: C_29  and  O_30 
REMARK    9  A    between atoms: C_32  and  O_33 
ROOT
HETATM    1  O   UNK N   1      28.692  38.953  58.143  0.00  0.00    -0.284 OA
HETATM    2  C   UNK N   1      29.030  40.001  57.617  0.00  0.00     0.223 A 
HETATM    3  C   UNK N   1      28.545  40.324  56.338  0.00  0.00     0.152 A 
HETATM    4  C   UNK N   1      28.959  41.536  55.738  0.00  0.00     0.123 A 
HETATM    5  O   UNK N   1      29.799  42.328  56.394  0.00  0.00    -0.305 OA
HETATM    6  C   UNK N   1      30.272  42.077  57.610  0.00  0.00     0.102 A 
HETATM    7  C   UNK N   1      29.909  40.887  58.276  0.00  0.00     0.085 A 
HETATM    8  C   UNK N   1      30.439  40.625  59.561  0.00  0.00     0.085 A 
HETATM    9  C   UNK N   1      31.317  41.545  60.153  0.00  0.00     0.074 A 
HETATM   10  C   UNK N   1      31.677  42.725  59.497  0.00  0.00     0.077 A 
HETATM   11  C   UNK N   1      31.149  43.006  58.214  0.00  0.00     0.014 A 
ENDROOT
BRANCH   4  12
HETATM   12  C   UNK N   1      28.514  41.988  54.384  0.00  0.00     0.004 A 
HETATM   13  C   UNK N   1      29.405  41.856  53.300  0.00  0.00     0.053 A 
HETATM   14  C   UNK N   1      29.039  42.270  52.013  0.00  0.00     0.099 A 
HETATM   15  C   UNK N   1      27.778  42.851  51.798  0.00  0.00     0.098 A 
HETATM   16  C   UNK N   1      26.892  43.001  52.874  0.00  0.00     0.040 A 
HETATM   17  C   UNK N   1      27.251  42.569  54.153  0.00  0.00     0.017 A 
BRANCH  14  18
HETATM   18  O   UNK N   1      29.910  42.102  50.995  0.00  0.00    -0.358 OA
HETATM   19  H   UNK N   1      30.043  42.775  50.311  0.00  0.00     0.218 HD
ENDBRANCH  14  18
BRANCH  15  20
HETATM   20  O   UNK N   1      27.425  43.267  50.565  0.00  0.00    -0.358 OA
HETATM   21  H   UNK N   1      27.579  44.177  50.270  0.00  0.00     0.218 HD
ENDBRANCH  15  20
ENDBRANCH   4  12
BRANCH   3  22
HETATM   22  O   UNK N   1      27.731  39.469  55.680  0.00  0.00    -0.355 OA
HETATM   23  H   UNK N   1      27.974  39.057  54.840  0.00  0.00     0.218 HD
ENDBRANCH   3  22
BRANCH  11  24
HETATM   24  C   UNK N   1      31.504  44.280  57.461  0.00  0.00     0.083 C 
BRANCH  24  25
HETATM   25  C   UNK N   1      30.564  45.412  57.780  0.00  0.00    -0.054 A 
HETATM   26  C   UNK N   1      29.322  45.161  58.385  0.00  0.00     0.010 A 
HETATM   27  C   UNK N   1      28.438  46.216  58.635  0.00  0.00     0.037 A 
HETATM   28  C   UNK N   1      28.791  47.528  58.295  0.00  0.00     0.065 A 
HETATM   29  C   UNK N   1      30.034  47.781  57.697  0.00  0.00     0.037 A 
HETATM   30  C   UNK N   1      30.910  46.728  57.432  0.00  0.00     0.010 A 
BRANCH  28  31
HETATM   31  O   UNK N   1      27.932  48.537  58.543  0.00  0.00    -0.361 OA
HETATM   32  H   UNK N   1      27.471  48.614  59.391  0.00  0.00     0.217 HD
ENDBRANCH  28  31
ENDBRANCH  24  25
ENDBRANCH  11  24
BRANCH   8  33
HETATM   33  O   UNK N   1      30.113  39.494  60.226  0.00  0.00    -0.360 OA
HETATM   34  H   UNK N   1      30.326  38.615  59.882  0.00  0.00     0.217 HD
ENDBRANCH   8  33
BRANCH  10  35
HETATM   35  O   UNK N   1      32.521  43.574  60.123  0.00  0.00    -0.360 OA
HETATM   36  H   UNK N   1      32.627  43.608  61.082  0.00  0.00     0.217 HD
ENDBRANCH  10  35
TORSDOF 9
ENDMDL
MODEL 2
REMARK VINA RESULT:      -5.8     15.802     18.562
REMARK  9 active torsions:
REMARK  status: ('A' for Active; 'I' for Inactive)
REMARK    1  A    between atoms: C_3  and  O_4 
REMARK    2  A    between atoms: C_6  and  C_27 
REMARK    3  A    between atoms: C_10  and  O_11 
REMARK    4  A    between atoms: C_14  and  O_25 
REMARK    5  A    between atoms: C_15  and  C_16 
REMARK    6  A    between atoms: C_16  and  C_17 
REMARK    7  A    between atoms: C_20  and  O_21 
REMARK    8  A    between atoms: C_29  and  O_30 
REMARK    9  A    between atoms: C_32  and  O_33 
ROOT
HETATM    1  O   UNK N   1      32.254  49.692  42.677  0.00  0.00    -0.284 OA
HETATM    2  C   UNK N   1      31.863  50.808  42.381  0.00  0.00     0.223 A 
HETATM    3  C   UNK N   1      31.069  50.986  41.234  0.00  0.00     0.152 A 
HETATM    4  C   UNK N   1      30.637  52.289  40.898  0.00  0.00     0.123 A 
HETATM    5  O   UNK N   1      31.000  53.309  41.669  0.00  0.00    -0.305 OA
HETATM    6  C   UNK N   1      31.733  53.193  42.771  0.00  0.00     0.102 A 
HETATM    7  C   UNK N   1      32.206  51.926  43.173  0.00  0.00     0.085 A 
HETATM    8  C   UNK N   1      33.004  51.823  44.336  0.00  0.00     0.085 A 
HETATM    9  C   UNK N   1      33.315  52.976  45.070  0.00  0.00     0.074 A 
HETATM   10  C   UNK N   1      32.846  54.233  44.677  0.00  0.00     0.077 A 
HETATM   11  C   UNK N   1      32.041  54.352  43.519  0.00  0.00     0.014 A 
ENDROOT
BRANCH   4  12
HETATM   12  C   UNK N   1      29.793  52.604  39.706  0.00  0.00     0.004 A 
HETATM   13  C   UNK N   1      30.335  53.413  38.686  0.00  0.00     0.053 A 
HETATM   14  C   UNK N   1      29.583  53.742  37.551  0.00  0.00     0.099 A 
HETATM   15  C   UNK N   1      28.260  53.286  37.434  0.00  0.00     0.098 A 
HETATM   16  C   UNK N   1      27.707  52.496  38.451  0.00  0.00     0.040 A 
HETATM   17  C   UNK N   1      28.465  52.151  39.572  0.00  0.00     0.017 A 
BRANCH  14  18
HETATM   18  O   UNK N   1      30.148  54.496  36.584  0.00  0.00    -0.358 OA
HETATM   19  H   UNK N   1      30.493  55.384  36.755  0.00  0.00     0.218 HD
ENDBRANCH  14  18
BRANCH  15  20
HETATM   20  O   UNK N   1      27.524  53.613  36.352  0.00  0.00    -0.358 OA
HETATM   21  H   UNK N   1      27.695  53.224  35.482  0.00  0.00     0.218 HD
ENDBRANCH  15  20
ENDBRANCH   4  12
BRANCH   3  22
HETATM   22  O   UNK N   1      30.763  49.932  40.447  0.00  0.00    -0.355 OA
HETATM   23  H   UNK N   1      30.122  49.985  39.725  0.00  0.00     0.218 HD
ENDBRANCH   3  22
BRANCH  11  24
HETATM   24  C   UNK N   1      31.500  55.696  43.051  0.00  0.00     0.083 C 
BRANCH  24  25
HETATM   25  C   UNK N   1      30.115  55.581  42.471  0.00  0.00    -0.054 A 
HETATM   26  C   UNK N   1      29.844  56.033  41.169  0.00  0.00     0.010 A 
HETATM   27  C   UNK N   1      28.544  55.963  40.659  0.00  0.00     0.037 A 
HETATM   28  C   UNK N   1      27.508  55.431  41.437  0.00  0.00     0.065 A 
HETATM   29  C   UNK N   1      27.778  54.974  42.735  0.00  0.00     0.037 A 
HETATM   30  C   UNK N   1      29.071  55.058  43.252  0.00  0.00     0.010 A 
BRANCH  28  31
HETATM   31  O   UNK N   1      26.259  55.367  40.934  0.00  0.00    -0.361 OA
HETATM   32  H   UNK N   1      26.099  55.302  39.981  0.00  0.00     0.217 HD
ENDBRANCH  28  31
ENDBRANCH  24  25
ENDBRANCH  11  24
BRANCH   8  33
HETATM   33  O   UNK N   1      33.474  50.625  44.748  0.00  0.00    -0.360 OA
HETATM   34  H   UNK N   1      33.158  49.791  44.372  0.00  0.00     0.217 HD
ENDBRANCH   8  33
BRANCH  10  35
HETATM   35  O   UNK N   1      33.176  55.305  45.430  0.00  0.00    -0.360 OA
HETATM   36  H   UNK N   1      32.773  55.498  46.286  0.00  0.00     0.217 HD
ENDBRANCH  10  35
TORSDOF 9
ENDMDL
MODEL 3
REMARK VINA RESULT:      -5.6      2.431      4.709
REMARK  9 active torsions:
REMARK  status: ('A' for Active; 'I' for Inactive)
REMARK    1  A    between atoms: C_3  and  O_4 
REMARK    2  A    between atoms: C_6  and  C_27 
REMARK    3  A    between atoms: C_10  and  O_11 
REMARK    4  A    between atoms: C_14  and  O_25 
REMARK    5  A    between atoms: C_15  and  C_16 
REMARK    6  A    between atoms: C_16  and  C_17 
REMARK    7  A    between atoms: C_20  and  O_21 
REMARK    8  A    between atoms: C_29  and  O_30 
REMARK    9  A    between atoms: C_32  and  O_33 
ROOT
HETATM    1  O   UNK N   1      31.837  43.812  61.323  0.00  0.00    -0.284 OA
HETATM    2  C   UNK N   1      31.111  44.204  60.424  0.00  0.00     0.223 A 
HETATM    3  C   UNK N   1      30.927  43.406  59.282  0.00  0.00     0.152 A 
HETATM    4  C   UNK N   1      30.093  43.883  58.244  0.00  0.00     0.123 A 
HETATM    5  O   UNK N   1      29.517  45.072  58.373  0.00  0.00    -0.305 OA
HETATM    6  C   UNK N   1      29.644  45.856  59.438  0.00  0.00     0.102 A 
HETATM    7  C   UNK N   1      30.461  45.454  60.516  0.00  0.00     0.085 A 
HETATM    8  C   UNK N   1      30.604  46.311  61.633  0.00  0.00     0.085 A 
HETATM    9  C   UNK N   1      29.937  47.544  61.653  0.00  0.00     0.074 A 
HETATM   10  C   UNK N   1      29.126  47.945  60.588  0.00  0.00     0.077 A 
HETATM   11  C   UNK N   1      28.966  47.096  59.467  0.00  0.00     0.014 A 
ENDROOT
BRANCH   4  12
HETATM   12  C   UNK N   1      29.822  43.128  56.982  0.00  0.00     0.004 A 
HETATM   13  C   UNK N   1      30.914  42.706  56.197  0.00  0.00     0.053 A 
HETATM   14  C   UNK N   1      30.714  42.002  55.004  0.00  0.00     0.099 A 
HETATM   15  C   UNK N   1      29.407  41.731  54.563  0.00  0.00     0.098 A 
HETATM   16  C   UNK N   1      28.315  42.162  55.329  0.00  0.00     0.040 A 
HETATM   17  C   UNK N   1      28.517  42.847  56.529  0.00  0.00     0.017 A 
BRANCH  14  18
HETATM   18  O   UNK N   1      31.786  41.591  54.293  0.00  0.00    -0.358 OA
HETATM   19  H   UNK N   1      31.903  41.813  53.358  0.00  0.00     0.218 HD
ENDBRANCH  14  18
BRANCH  15  20
HETATM   20  O   UNK N   1      29.206  41.068  53.406  0.00  0.00    -0.358 OA
HETATM   21  H   UNK N   1      28.550  41.361  52.757  0.00  0.00     0.218 HD
ENDBRANCH  15  20
ENDBRANCH   4  12
BRANCH   3  22
HETATM   22  O   UNK N   1      31.570  42.224  59.164  0.00  0.00    -0.355 OA
HETATM   23  H   UNK N   1      31.991  41.780  59.913  0.00  0.00     0.218 HD
ENDBRANCH   3  22
BRANCH  11  24
HETATM   24  C   UNK N   1      28.089  47.483  58.284  0.00  0.00     0.083 C 
BRANCH  24  25
HETATM   25  C   UNK N   1      28.760  48.484  57.381  0.00  0.00    -0.054 A 
HETATM   26  C   UNK N   1      30.151  48.455  57.188  0.00  0.00     0.010 A 
HETATM   27  C   UNK N   1      30.767  49.418  56.383  0.00  0.00     0.037 A 
HETATM   28  C   UNK N   1      30.001  50.409  55.756  0.00  0.00     0.065 A 
HETATM   29  C   UNK N   1      28.612  50.435  55.942  0.00  0.00     0.037 A 
HETATM   30  C   UNK N   1      27.997  49.486  56.758  0.00  0.00     0.010 A 
BRANCH  28  31
HETATM   31  O   UNK N   1      30.606  51.331  54.981  0.00  0.00    -0.361 OA
HETATM   32  H   UNK N   1      30.147  52.133  54.694  0.00  0.00     0.217 HD
ENDBRANCH  28  31
ENDBRANCH  24  25
ENDBRANCH  11  24
BRANCH   8  33
HETATM   33  O   UNK N   1      31.379  45.956  62.681  0.00  0.00    -0.360 OA
HETATM   34  H   UNK N   1      31.004  45.677  63.528  0.00  0.00     0.217 HD
ENDBRANCH   8  33
BRANCH  10  35
HETATM   35  O   UNK N   1      28.505  49.143  60.670  0.00  0.00    -0.360 OA
HETATM   36  H   UNK N   1      28.900  49.918  61.088  0.00  0.00     0.217 HD
ENDBRANCH  10  35
TORSDOF 9
ENDMDL
MODEL 4
REMARK VINA RESULT:      -5.5      1.418      6.220
REMARK  9 active torsions:
REMARK  status: ('A' for Active; 'I' for Inactive)
REMARK    1  A    between atoms: C_3  and  O_4 
REMARK    2  A    between atoms: C_6  and  C_27 
REMARK    3  A    between atoms: C_10  and  O_11 
REMARK    4  A    between atoms: C_14  and  O_25 
REMARK    5  A    between atoms: C_15  and  C_16 
REMARK    6  A    between atoms: C_16  and  C_17 
REMARK    7  A    between atoms: C_20  and  O_21 
REMARK    8  A    between atoms: C_29  and  O_30 
REMARK    9  A    between atoms: C_32  and  O_33 
ROOT
HETATM    1  O   UNK N   1      31.956  41.739  60.948  0.00  0.00    -0.284 OA
HETATM    2  C   UNK N   1      31.201  42.274  60.154  0.00  0.00     0.223 A 
HETATM    3  C   UNK N   1      31.162  43.677  60.070  0.00  0.00     0.152 A 
HETATM    4  C   UNK N   1      30.271  44.282  59.154  0.00  0.00     0.123 A 
HETATM    5  O   UNK N   1      29.492  43.509  58.406  0.00  0.00    -0.305 OA
HETATM    6  C   UNK N   1      29.503  42.181  58.434  0.00  0.00     0.102 A 
HETATM    7  C   UNK N   1      30.361  41.501  59.323  0.00  0.00     0.085 A 
HETATM    8  C   UNK N   1      30.345  40.087  59.356  0.00  0.00     0.085 A 
HETATM    9  C   UNK N   1      29.477  39.382  58.510  0.00  0.00     0.074 A 
HETATM   10  C   UNK N   1      28.626  40.052  57.626  0.00  0.00     0.077 A 
HETATM   11  C   UNK N   1      28.636  41.466  57.576  0.00  0.00     0.014 A 
ENDROOT
BRANCH   4  12
HETATM   12  C   UNK N   1      30.138  45.760  58.975  0.00  0.00     0.004 A 
HETATM   13  C   UNK N   1      30.549  46.334  57.754  0.00  0.00     0.053 A 
HETATM   14  C   UNK N   1      30.450  47.714  57.539  0.00  0.00     0.099 A 
HETATM   15  C   UNK N   1      29.962  48.547  58.559  0.00  0.00     0.098 A 
HETATM   16  C   UNK N   1      29.568  47.987  59.782  0.00  0.00     0.040 A 
HETATM   17  C   UNK N   1      29.647  46.608  59.988  0.00  0.00     0.017 A 
BRANCH  14  18
HETATM   18  O   UNK N   1      30.829  48.222  56.347  0.00  0.00    -0.358 OA
HETATM   19  H   UNK N   1      31.622  47.918  55.883  0.00  0.00     0.218 HD
ENDBRANCH  14  18
BRANCH  15  20
HETATM   20  O   UNK N   1      29.881  49.880  58.365  0.00  0.00    -0.358 OA
HETATM   21  H   UNK N   1      29.088  50.294  57.995  0.00  0.00     0.218 HD
ENDBRANCH  15  20
ENDBRANCH   4  12
BRANCH   3  22
HETATM   22  O   UNK N   1      31.934  44.431  60.884  0.00  0.00    -0.355 OA
HETATM   23  H   UNK N   1      31.657  44.696  61.772  0.00  0.00     0.218 HD
ENDBRANCH   3  22
BRANCH  11  24
HETATM   24  C   UNK N   1      27.734  42.243  56.627  0.00  0.00     0.083 C 
BRANCH  24  25
HETATM   25  C   UNK N   1      28.255  42.238  55.214  0.00  0.00    -0.054 A 
HETATM   26  C   UNK N   1      29.577  41.850  54.940  0.00  0.00     0.010 A 
HETATM   27  C   UNK N   1      30.063  41.894  53.629  0.00  0.00     0.037 A 
HETATM   28  C   UNK N   1      29.232  42.311  52.582  0.00  0.00     0.065 A 
HETATM   29  C   UNK N   1      27.910  42.692  52.853  0.00  0.00     0.037 A 
HETATM   30  C   UNK N   1      27.429  42.665  54.162  0.00  0.00     0.010 A 
BRANCH  28  31
HETATM   31  O   UNK N   1      29.711  42.346  51.322  0.00  0.00    -0.361 OA
HETATM   32  H   UNK N   1      30.636  42.140  51.126  0.00  0.00     0.217 HD
ENDBRANCH  28  31
ENDBRANCH  24  25
ENDBRANCH  11  24
BRANCH   8  33
HETATM   33  O   UNK N   1      31.154  39.406  60.197  0.00  0.00    -0.360 OA
HETATM   34  H   UNK N   1      30.953  38.506  60.488  0.00  0.00     0.217 HD
ENDBRANCH   8  33
BRANCH  10  35
HETATM   35  O   UNK N   1      27.818  39.315  56.833  0.00  0.00    -0.360 OA
HETATM   36  H   UNK N   1      27.202  39.700  56.197  0.00  0.00     0.217 HD
ENDBRANCH  10  35
TORSDOF 9
ENDMDL
MODEL 5
REMARK VINA RESULT:      -5.3     16.045     19.610
REMARK  9 active torsions:
REMARK  status: ('A' for Active; 'I' for Inactive)
REMARK    1  A    between atoms: C_3  and  O_4 
REMARK    2  A    between atoms: C_6  and  C_27 
REMARK    3  A    between atoms: C_10  and  O_11 
REMARK    4  A    between atoms: C_14  and  O_25 
REMARK    5  A    between atoms: C_15  and  C_16 
REMARK    6  A    between atoms: C_16  and  C_17 
REMARK    7  A    between atoms: C_20  and  O_21 
REMARK    8  A    between atoms: C_29  and  O_30 
REMARK    9  A    between atoms: C_32  and  O_33 
ROOT
HETATM    1  O   UNK N   1      25.654  51.605  39.237  0.00  0.00    -0.284 OA
HETATM    2  C   UNK N   1      26.751  52.087  39.468  0.00  0.00     0.223 A 
HETATM    3  C   UNK N   1      26.989  53.442  39.182  0.00  0.00     0.152 A 
HETATM    4  C   UNK N   1      28.270  53.980  39.443  0.00  0.00     0.123 A 
HETATM    5  O   UNK N   1      29.213  53.189  39.941  0.00  0.00    -0.305 OA
HETATM    6  C   UNK N   1      29.035  51.908  40.246  0.00  0.00     0.102 A 
HETATM    7  C   UNK N   1      27.786  51.295  40.012  0.00  0.00     0.085 A 
HETATM    8  C   UNK N   1      27.619  49.925  40.321  0.00  0.00     0.085 A 
HETATM    9  C   UNK N   1      28.694  49.196  40.849  0.00  0.00     0.074 A 
HETATM   10  C   UNK N   1      29.932  49.799  41.084  0.00  0.00     0.077 A 
HETATM   11  C   UNK N   1      30.113  51.171  40.788  0.00  0.00     0.014 A 
ENDROOT
BRANCH   4  12
HETATM   12  C   UNK N   1      28.644  55.403  39.180  0.00  0.00     0.004 A 
HETATM   13  C   UNK N   1      28.572  56.329  40.241  0.00  0.00     0.053 A 
HETATM   14  C   UNK N   1      28.906  57.675  40.046  0.00  0.00     0.099 A 
HETATM   15  C   UNK N   1      29.292  58.121  38.771  0.00  0.00     0.098 A 
HETATM   16  C   UNK N   1      29.349  57.211  37.707  0.00  0.00     0.040 A 
HETATM   17  C   UNK N   1      29.036  55.865  37.907  0.00  0.00     0.017 A 
BRANCH  14  18
HETATM   18  O   UNK N   1      28.851  58.525  41.094  0.00  0.00    -0.358 OA
HETATM   19  H   UNK N   1      29.624  58.721  41.642  0.00  0.00     0.218 HD
ENDBRANCH  14  18
BRANCH  15  20
HETATM   20  O   UNK N   1      29.598  59.420  38.571  0.00  0.00    -0.358 OA
HETATM   21  H   UNK N   1      28.997  60.132  38.835  0.00  0.00     0.218 HD
ENDBRANCH  15  20
ENDBRANCH   4  12
BRANCH   3  22
HETATM   22  O   UNK N   1      26.019  54.203  38.628  0.00  0.00    -0.355 OA
HETATM   23  H   UNK N   1      25.533  54.876  39.124  0.00  0.00     0.218 HD
ENDBRANCH   3  22
BRANCH  11  24
HETATM   24  C   UNK N   1      31.439  51.878  41.030  0.00  0.00     0.083 C 
BRANCH  24  25
HETATM   25  C   UNK N   1      31.461  52.612  42.344  0.00  0.00    -0.054 A 
HETATM   26  C   UNK N   1      32.030  52.021  43.485  0.00  0.00     0.010 A 
HETATM   27  C   UNK N   1      32.003  52.695  44.710  0.00  0.00     0.037 A 
HETATM   28  C   UNK N   1      31.423  53.966  44.805  0.00  0.00     0.065 A 
HETATM   29  C   UNK N   1      30.861  54.560  43.666  0.00  0.00     0.037 A 
HETATM   30  C   UNK N   1      30.871  53.883  42.446  0.00  0.00     0.010 A 
BRANCH  28  31
HETATM   31  O   UNK N   1      31.405  54.606  45.991  0.00  0.00    -0.361 OA
HETATM   32  H   UNK N   1      30.577  54.901  46.396  0.00  0.00     0.217 HD
ENDBRANCH  28  31
ENDBRANCH  24  25
ENDBRANCH  11  24
BRANCH   8  33
HETATM   33  O   UNK N   1      26.436  49.308  40.108  0.00  0.00    -0.360 OA
HETATM   34  H   UNK N   1      26.091  48.634  40.711  0.00  0.00     0.217 HD
ENDBRANCH   8  33
BRANCH  10  35
HETATM   35  O   UNK N   1      30.926  49.044  41.601  0.00  0.00    -0.360 OA
HETATM   36  H   UNK N   1      31.834  49.064  41.273  0.00  0.00     0.217 HD
ENDBRANCH  10  35
TORSDOF 9
ENDMDL
MODEL 6
REMARK VINA RESULT:      -5.3     26.717     29.440
REMARK  9 active torsions:
REMARK  status: ('A' for Active; 'I' for Inactive)
REMARK    1  A    between atoms: C_3  and  O_4 
REMARK    2  A    between atoms: C_6  and  C_27 
REMARK    3  A    between atoms: C_10  and  O_11 
REMARK    4  A    between atoms: C_14  and  O_25 
REMARK    5  A    between atoms: C_15  and  C_16 
REMARK    6  A    between atoms: C_16  and  C_17 
REMARK    7  A    between atoms: C_20  and  O_21 
REMARK    8  A    between atoms: C_29  and  O_30 
REMARK    9  A    between atoms: C_32  and  O_33 
ROOT
HETATM    1  O   UNK N   1      52.552  54.551  41.082  0.00  0.00    -0.284 OA
HETATM    2  C   UNK N   1      51.629  55.348  41.079  0.00  0.00     0.223 A 
HETATM    3  C   UNK N   1      50.977  55.659  42.285  0.00  0.00     0.152 A 
HETATM    4  C   UNK N   1      49.899  56.575  42.262  0.00  0.00     0.123 A 
HETATM    5  O   UNK N   1      49.529  57.107  41.103  0.00  0.00    -0.305 OA
HETATM    6  C   UNK N   1      50.123  56.861  39.940  0.00  0.00     0.102 A 
HETATM    7  C   UNK N   1      51.204  55.956  39.878  0.00  0.00     0.085 A 
HETATM    8  C   UNK N   1      51.810  55.688  38.629  0.00  0.00     0.085 A 
HETATM    9  C   UNK N   1      51.329  56.319  37.473  0.00  0.00     0.074 A 
HETATM   10  C   UNK N   1      50.260  57.218  37.530  0.00  0.00     0.077 A 
HETATM   11  C   UNK N   1      49.648  57.503  38.774  0.00  0.00     0.014 A 
ENDROOT
BRANCH   4  12
HETATM   12  C   UNK N   1      49.128  56.983  43.476  0.00  0.00     0.004 A 
HETATM   13  C   UNK N   1      48.348  56.014  44.140  0.00  0.00     0.053 A 
HETATM   14  C   UNK N   1      47.602  56.346  45.278  0.00  0.00     0.099 A 
HETATM   15  C   UNK N   1      47.606  57.668  45.753  0.00  0.00     0.098 A 
HETATM   16  C   UNK N   1      48.365  58.641  45.090  0.00  0.00     0.040 A 
HETATM   17  C   UNK N   1      49.124  58.304  43.967  0.00  0.00     0.017 A 
BRANCH  14  18
HETATM   18  O   UNK N   1      46.889  55.384  45.901  0.00  0.00    -0.358 OA
HETATM   19  H   UNK N   1      45.937  55.463  46.054  0.00  0.00     0.218 HD
ENDBRANCH  14  18
BRANCH  15  20
HETATM   20  O   UNK N   1      46.876  57.999  46.839  0.00  0.00    -0.358 OA
HETATM   21  H   UNK N   1      45.950  58.272  46.767  0.00  0.00     0.218 HD
ENDBRANCH  15  20
ENDBRANCH   4  12
BRANCH   3  22
HETATM   22  O   UNK N   1      51.349  55.059  43.437  0.00  0.00    -0.355 OA
HETATM   23  H   UNK N   1      50.753  54.958  44.192  0.00  0.00     0.218 HD
ENDBRANCH   3  22
BRANCH  11  24
HETATM   24  C   UNK N   1      48.485  58.478  38.892  0.00  0.00     0.083 C 
BRANCH  24  25
HETATM   25  C   UNK N   1      47.232  57.951  38.245  0.00  0.00    -0.054 A 
HETATM   26  C   UNK N   1      46.867  56.602  38.385  0.00  0.00     0.010 A 
HETATM   27  C   UNK N   1      45.725  56.115  37.740  0.00  0.00     0.037 A 
HETATM   28  C   UNK N   1      44.933  56.969  36.964  0.00  0.00     0.065 A 
HETATM   29  C   UNK N   1      45.293  58.318  36.829  0.00  0.00     0.037 A 
HETATM   30  C   UNK N   1      46.440  58.802  37.457  0.00  0.00     0.010 A 
BRANCH  28  31
HETATM   31  O   UNK N   1      43.834  56.488  36.350  0.00  0.00    -0.361 OA
HETATM   32  H   UNK N   1      43.338  57.017  35.709  0.00  0.00     0.217 HD
ENDBRANCH  28  31
ENDBRANCH  24  25
ENDBRANCH  11  24
BRANCH   8  33
HETATM   33  O   UNK N   1      52.847  54.826  38.535  0.00  0.00    -0.360 OA
HETATM   34  H   UNK N   1      53.138  54.288  39.284  0.00  0.00     0.217 HD
ENDBRANCH   8  33
BRANCH  10  35
HETATM   35  O   UNK N   1      49.848  57.798  36.382  0.00  0.00    -0.360 OA
HETATM   36  H   UNK N   1      49.079  58.379  36.326  0.00  0.00     0.217 HD
ENDBRANCH  10  35
TORSDOF 9
ENDMDL
MODEL 7
REMARK VINA RESULT:      -5.2      2.559      6.404
REMARK  9 active torsions:
REMARK  status: ('A' for Active; 'I' for Inactive)
REMARK    1  A    between atoms: C_3  and  O_4 
REMARK    2  A    between atoms: C_6  and  C_27 
REMARK    3  A    between atoms: C_10  and  O_11 
REMARK    4  A    between atoms: C_14  and  O_25 
REMARK    5  A    between atoms: C_15  and  C_16 
REMARK    6  A    between atoms: C_16  and  C_17 
REMARK    7  A    between atoms: C_20  and  O_21 
REMARK    8  A    between atoms: C_29  and  O_30 
REMARK    9  A    between atoms: C_32  and  O_33 
ROOT
HETATM    1  O   UNK N   1      29.544  45.732  62.734  0.00  0.00    -0.284 OA
HETATM    2  C   UNK N   1      29.869  45.735  61.559  0.00  0.00     0.223 A 
HETATM    3  C   UNK N   1      29.410  46.760  60.713  0.00  0.00     0.152 A 
HETATM    4  C   UNK N   1      29.786  46.740  59.350  0.00  0.00     0.123 A 
HETATM    5  O   UNK N   1      30.554  45.751  58.906  0.00  0.00    -0.305 OA
HETATM    6  C   UNK N   1      31.029  44.770  59.667  0.00  0.00     0.102 A 
HETATM    7  C   UNK N   1      30.697  44.716  61.037  0.00  0.00     0.085 A 
HETATM    8  C   UNK N   1      31.192  43.653  61.827  0.00  0.00     0.085 A 
HETATM    9  C   UNK N   1      32.000  42.669  61.241  0.00  0.00     0.074 A 
HETATM   10  C   UNK N   1      32.333  42.719  59.884  0.00  0.00     0.077 A 
HETATM   11  C   UNK N   1      31.852  43.781  59.082  0.00  0.00     0.014 A 
ENDROOT
BRANCH   4  12
HETATM   12  C   UNK N   1      29.361  47.771  58.355  0.00  0.00     0.004 A 
HETATM   13  C   UNK N   1      30.310  48.713  57.909  0.00  0.00     0.053 A 
HETATM   14  C   UNK N   1      29.961  49.703  56.982  0.00  0.00     0.099 A 
HETATM   15  C   UNK N   1      28.641  49.780  56.506  0.00  0.00     0.098 A 
HETATM   16  C   UNK N   1      27.687  48.858  56.957  0.00  0.00     0.040 A 
HETATM   17  C   UNK N   1      28.042  47.859  57.866  0.00  0.00     0.017 A 
BRANCH  14  18
HETATM   18  O   UNK N   1      30.905  50.571  56.559  0.00  0.00    -0.358 OA
HETATM   19  H   UNK N   1      31.782  50.621  56.966  0.00  0.00     0.218 HD
ENDBRANCH  14  18
BRANCH  15  20
HETATM   20  O   UNK N   1      28.293  50.742  55.626  0.00  0.00    -0.358 OA
HETATM   21  H   UNK N   1      28.954  51.310  55.204  0.00  0.00     0.218 HD
ENDBRANCH  15  20
ENDBRANCH   4  12
BRANCH   3  22
HETATM   22  O   UNK N   1      28.589  47.721  61.189  0.00  0.00    -0.355 OA
HETATM   23  H   UNK N   1      27.817  48.040  60.702  0.00  0.00     0.218 HD
ENDBRANCH   3  22
BRANCH  11  24
HETATM   24  C   UNK N   1      32.190  43.886  57.601  0.00  0.00     0.083 C 
BRANCH  24  25
HETATM   25  C   UNK N   1      31.335  42.979  56.756  0.00  0.00    -0.054 A 
HETATM   26  C   UNK N   1      31.800  42.507  55.517  0.00  0.00     0.010 A 
HETATM   27  C   UNK N   1      30.978  41.702  54.722  0.00  0.00     0.037 A 
HETATM   28  C   UNK N   1      29.695  41.352  55.160  0.00  0.00     0.065 A 
HETATM   29  C   UNK N   1      29.233  41.816  56.400  0.00  0.00     0.037 A 
HETATM   30  C   UNK N   1      30.044  42.632  57.187  0.00  0.00     0.010 A 
BRANCH  28  31
HETATM   31  O   UNK N   1      28.913  40.573  54.385  0.00  0.00    -0.361 OA
HETATM   32  H   UNK N   1      28.313  40.953  53.726  0.00  0.00     0.217 HD
ENDBRANCH  28  31
ENDBRANCH  24  25
ENDBRANCH  11  24
BRANCH   8  33
HETATM   33  O   UNK N   1      30.892  43.572  63.143  0.00  0.00    -0.360 OA
HETATM   34  H   UNK N   1      31.394  43.013  63.752  0.00  0.00     0.217 HD
ENDBRANCH   8  33
BRANCH  10  35
HETATM   35  O   UNK N   1      33.121  41.744  59.381  0.00  0.00    -0.360 OA
HETATM   36  H   UNK N   1      33.389  40.965  59.884  0.00  0.00     0.217 HD
ENDBRANCH  10  35
TORSDOF 9
ENDMDL
MODEL 8
REMARK VINA RESULT:      -5.2      2.629      6.710
REMARK  9 active torsions:
REMARK  status: ('A' for Active; 'I' for Inactive)
REMARK    1  A    between atoms: C_3  and  O_4 
REMARK    2  A    between atoms: C_6  and  C_27 
REMARK    3  A    between atoms: C_10  and  O_11 
REMARK    4  A    between atoms: C_14  and  O_25 
REMARK    5  A    between atoms: C_15  and  C_16 
REMARK    6  A    between atoms: C_16  and  C_17 
REMARK    7  A    between atoms: C_20  and  O_21 
REMARK    8  A    between atoms: C_29  and  O_30 
REMARK    9  A    between atoms: C_32  and  O_33 
ROOT
HETATM    1  O   UNK N   1      26.233  41.331  60.606  0.00  0.00    -0.284 OA
HETATM    2  C   UNK N   1      27.099  41.071  59.788  0.00  0.00     0.223 A 
HETATM    3  C   UNK N   1      28.387  41.613  59.943  0.00  0.00     0.152 A 
HETATM    4  C   UNK N   1      29.375  41.312  58.978  0.00  0.00     0.123 A 
HETATM    5  O   UNK N   1      29.057  40.535  57.949  0.00  0.00    -0.305 OA
HETATM    6  C   UNK N   1      27.862  39.984  57.766  0.00  0.00     0.102 A 
HETATM    7  C   UNK N   1      26.820  40.238  58.683  0.00  0.00     0.085 A 
HETATM    8  C   UNK N   1      25.548  39.662  58.461  0.00  0.00     0.085 A 
HETATM    9  C   UNK N   1      25.337  38.852  57.336  0.00  0.00     0.074 A 
HETATM   10  C   UNK N   1      26.367  38.596  56.426  0.00  0.00     0.077 A 
HETATM   11  C   UNK N   1      27.648  39.159  56.638  0.00  0.00     0.014 A 
ENDROOT
BRANCH   4  12
HETATM   12  C   UNK N   1      30.777  41.828  59.033  0.00  0.00     0.004 A 
HETATM   13  C   UNK N   1      31.129  42.919  58.211  0.00  0.00     0.053 A 
HETATM   14  C   UNK N   1      32.431  43.436  58.221  0.00  0.00     0.099 A 
HETATM   15  C   UNK N   1      33.410  42.848  59.038  0.00  0.00     0.098 A 
HETATM   16  C   UNK N   1      33.073  41.753  59.845  0.00  0.00     0.040 A 
HETATM   17  C   UNK N   1      31.769  41.251  59.850  0.00  0.00     0.017 A 
BRANCH  14  18
HETATM   18  O   UNK N   1      32.722  44.499  57.440  0.00  0.00    -0.358 OA
HETATM   19  H   UNK N   1      33.501  44.521  56.867  0.00  0.00     0.218 HD
ENDBRANCH  14  18
BRANCH  15  20
HETATM   20  O   UNK N   1      34.670  43.330  59.040  0.00  0.00    -0.358 OA
HETATM   21  H   UNK N   1      35.348  42.988  58.440  0.00  0.00     0.218 HD
ENDBRANCH  15  20
ENDBRANCH   4  12
BRANCH   3  22
HETATM   22  O   UNK N   1      28.659  42.441  60.976  0.00  0.00    -0.355 OA
HETATM   23  H   UNK N   1      29.168  42.163  61.750  0.00  0.00     0.218 HD
ENDBRANCH   3  22
BRANCH  11  24
HETATM   24  C   UNK N   1      28.805  38.907  55.680  0.00  0.00     0.083 C 
BRANCH  24  25
HETATM   25  C   UNK N   1      28.932  39.991  54.643  0.00  0.00    -0.054 A 
HETATM   26  C   UNK N   1      27.996  40.098  53.601  0.00  0.00     0.010 A 
HETATM   27  C   UNK N   1      28.152  41.080  52.618  0.00  0.00     0.037 A 
HETATM   28  C   UNK N   1      29.231  41.971  52.674  0.00  0.00     0.065 A 
HETATM   29  C   UNK N   1      30.161  41.870  53.718  0.00  0.00     0.037 A 
HETATM   30  C   UNK N   1      30.018  40.880  54.690  0.00  0.00     0.010 A 
BRANCH  28  31
HETATM   31  O   UNK N   1      29.368  42.915  51.722  0.00  0.00    -0.361 OA
HETATM   32  H   UNK N   1      29.323  42.696  50.780  0.00  0.00     0.217 HD
ENDBRANCH  28  31
ENDBRANCH  24  25
ENDBRANCH  11  24
BRANCH   8  33
HETATM   33  O   UNK N   1      24.529  39.886  59.320  0.00  0.00    -0.360 OA
HETATM   34  H   UNK N   1      23.652  39.497  59.192  0.00  0.00     0.217 HD
ENDBRANCH   8  33
BRANCH  10  35
HETATM   35  O   UNK N   1      26.102  37.803  55.365  0.00  0.00    -0.360 OA
HETATM   36  H   UNK N   1      26.476  36.919  55.256  0.00  0.00     0.217 HD
ENDBRANCH  10  35
TORSDOF 9
ENDMDL
MODEL 9
REMARK VINA RESULT:      -5.1      2.202      7.215
REMARK  9 active torsions:
REMARK  status: ('A' for Active; 'I' for Inactive)
REMARK    1  A    between atoms: C_3  and  O_4 
REMARK    2  A    between atoms: C_6  and  C_27 
REMARK    3  A    between atoms: C_10  and  O_11 
REMARK    4  A    between atoms: C_14  and  O_25 
REMARK    5  A    between atoms: C_15  and  C_16 
REMARK    6  A    between atoms: C_16  and  C_17 
REMARK    7  A    between atoms: C_20  and  O_21 
REMARK    8  A    between atoms: C_29  and  O_30 
REMARK    9  A    between atoms: C_32  and  O_33 
ROOT
HETATM    1  O   UNK N   1      28.456  46.986  59.673  0.00  0.00    -0.284 OA
HETATM    2  C   UNK N   1      28.608  45.873  59.199  0.00  0.00     0.223 A 
HETATM    3  C   UNK N   1      29.745  45.121  59.543  0.00  0.00     0.152 A 
HETATM    4  C   UNK N   1      29.913  43.838  58.972  0.00  0.00     0.123 A 
HETATM    5  O   UNK N   1      28.997  43.384  58.124  0.00  0.00    -0.305 OA
HETATM    6  C   UNK N   1      27.897  44.046  57.781  0.00  0.00     0.102 A 
HETATM    7  C   UNK N   1      27.658  45.334  58.304  0.00  0.00     0.085 A 
HETATM    8  C   UNK N   1      26.494  46.035  57.912  0.00  0.00     0.085 A 
HETATM    9  C   UNK N   1      25.598  45.444  57.010  0.00  0.00     0.074 A 
HETATM   10  C   UNK N   1      25.830  44.167  56.491  0.00  0.00     0.077 A 
HETATM   11  C   UNK N   1      26.986  43.450  56.880  0.00  0.00     0.014 A 
ENDROOT
BRANCH   4  12
HETATM   12  C   UNK N   1      31.078  42.947  59.258  0.00  0.00     0.004 A 
HETATM   13  C   UNK N   1      32.342  43.299  58.741  0.00  0.00     0.053 A 
HETATM   14  C   UNK N   1      33.465  42.495  58.975  0.00  0.00     0.099 A 
HETATM   15  C   UNK N   1      33.331  41.305  59.710  0.00  0.00     0.098 A 
HETATM   16  C   UNK N   1      32.075  40.939  60.213  0.00  0.00     0.040 A 
HETATM   17  C   UNK N   1      30.960  41.753  59.997  0.00  0.00     0.017 A 
BRANCH  14  18
HETATM   18  O   UNK N   1      34.663  42.879  58.486  0.00  0.00    -0.358 OA
HETATM   19  H   UNK N   1      34.746  43.510  57.756  0.00  0.00     0.218 HD
ENDBRANCH  14  18
BRANCH  15  20
HETATM   20  O   UNK N   1      34.404  40.517  59.925  0.00  0.00    -0.358 OA
HETATM   21  H   UNK N   1      34.437  39.888  60.661  0.00  0.00     0.218 HD
ENDBRANCH  15  20
ENDBRANCH   4  12
BRANCH   3  22
HETATM   22  O   UNK N   1      30.680  45.638  60.369  0.00  0.00    -0.355 OA
HETATM   23  H   UNK N   1      30.563  46.479  60.833  0.00  0.00     0.218 HD
ENDBRANCH   3  22
BRANCH  11  24
HETATM   24  C   UNK N   1      27.283  42.054  56.349  0.00  0.00     0.083 C 
BRANCH  24  25
HETATM   25  C   UNK N   1      27.959  42.088  55.004  0.00  0.00    -0.054 A 
HETATM   26  C   UNK N   1      29.341  41.862  54.892  0.00  0.00     0.010 A 
HETATM   27  C   UNK N   1      29.964  41.941  53.643  0.00  0.00     0.037 A 
HETATM   28  C   UNK N   1      29.215  42.234  52.497  0.00  0.00     0.065 A 
HETATM   29  C   UNK N   1      27.835  42.453  52.606  0.00  0.00     0.037 A 
HETATM   30  C   UNK N   1      27.213  42.391  53.853  0.00  0.00     0.010 A 
BRANCH  28  31
HETATM   31  O   UNK N   1      29.828  42.305  51.298  0.00  0.00    -0.361 OA
HETATM   32  H   UNK N   1      30.686  42.740  51.192  0.00  0.00     0.217 HD
ENDBRANCH  28  31
ENDBRANCH  24  25
ENDBRANCH  11  24
BRANCH   8  33
HETATM   33  O   UNK N   1      26.235  47.271  58.393  0.00  0.00    -0.360 OA
HETATM   34  H   UNK N   1      26.738  47.653  59.127  0.00  0.00     0.217 HD
ENDBRANCH   8  33
BRANCH  10  35
HETATM   35  O   UNK N   1      24.925  43.650  55.631  0.00  0.00    -0.360 OA
HETATM   36  H   UNK N   1      25.159  43.291  54.766  0.00  0.00     0.217 HD
ENDBRANCH  10  35
TORSDOF 9
ENDMDL
