MODEL 1
REMARK VINA RESULT:      -6.8      0.000      0.000
REMARK  8 active torsions:
REMARK  status: ('A' for Active; 'I' for Inactive)
REMARK    1  A    between atoms: C_6  and  C_8 
REMARK    2  A    between atoms: C_10  and  O_11 
REMARK    3  A    between atoms: C_13  and  O_14 
REMARK    4  A    between atoms: C_18  and  C_26 
REMARK    5  A    between atoms: C_19  and  O_20 
REMARK    6  A    between atoms: C_23  and  O_24 
REMARK    7  A    between atoms: C_26  and  C_27 
REMARK    8  A    between atoms: C_30  and  O_31 
ROOT
HETATM    1  O   UNK N   1      32.331  49.732  42.508  0.00  0.00    -0.287 OA
HETATM    2  C   UNK N   1      31.914  50.853  42.279  0.00  0.00     0.190 A 
HETATM    3  C   UNK N   1      32.217  51.937  43.129  0.00  0.00     0.082 A 
HETATM    4  C   UNK N   1      31.695  53.212  42.795  0.00  0.00     0.102 A 
HETATM    5  O   UNK N   1      30.961  53.367  41.694  0.00  0.00    -0.308 OA
HETATM    6  C   UNK N   1      30.643  52.358  40.881  0.00  0.00     0.090 A 
HETATM    7  C   UNK N   1      31.110  51.065  41.161  0.00  0.00     0.094 A 
HETATM    8  C   UNK N   1      31.928  54.319  43.640  0.00  0.00     0.014 A 
HETATM    9  C   UNK N   1      32.703  54.147  44.808  0.00  0.00     0.077 A 
HETATM   10  C   UNK N   1      33.240  52.895  45.117  0.00  0.00     0.074 A 
HETATM   11  C   UNK N   1      33.006  51.788  44.294  0.00  0.00     0.085 A 
ENDROOT
BRANCH   6  12
HETATM   12  C   UNK N   1      29.793  52.642  39.694  0.00  0.00     0.001 A 
HETATM   13  C   UNK N   1      30.287  53.486  38.684  0.00  0.00     0.053 A 
HETATM   14  C   UNK N   1      29.520  53.776  37.552  0.00  0.00     0.099 A 
HETATM   15  C   UNK N   1      28.224  53.243  37.431  0.00  0.00     0.098 A 
HETATM   16  C   UNK N   1      27.721  52.409  38.438  0.00  0.00     0.040 A 
HETATM   17  C   UNK N   1      28.500  52.099  39.556  0.00  0.00     0.017 A 
BRANCH  14  18
HETATM   18  O   UNK N   1      30.043  54.567  36.591  0.00  0.00    -0.358 OA
HETATM   19  H   UNK N   1      30.996  54.639  36.444  0.00  0.00     0.218 HD
ENDBRANCH  14  18
BRANCH  15  20
HETATM   20  O   UNK N   1      27.471  53.537  36.350  0.00  0.00    -0.358 OA
HETATM   21  H   UNK N   1      27.856  53.608  35.465  0.00  0.00     0.218 HD
ENDBRANCH  15  20
ENDBRANCH   6  12
BRANCH   8  22
HETATM   22  C   UNK N   1      31.347  55.685  43.320  0.00  0.00     0.083 C 
BRANCH  22  23
HETATM   23  C   UNK N   1      30.091  55.601  42.494  0.00  0.00    -0.054 A 
HETATM   24  C   UNK N   1      30.048  56.208  41.226  0.00  0.00     0.010 A 
HETATM   25  C   UNK N   1      28.877  56.174  40.467  0.00  0.00     0.037 A 
HETATM   26  C   UNK N   1      27.732  55.552  40.970  0.00  0.00     0.065 A 
HETATM   27  C   UNK N   1      27.765  54.949  42.237  0.00  0.00     0.037 A 
HETATM   28  C   UNK N   1      28.942  54.967  42.993  0.00  0.00     0.010 A 
BRANCH  26  29
HETATM   29  O   UNK N   1      26.602  55.548  40.234  0.00  0.00    -0.361 OA
HETATM   30  H   UNK N   1      25.874  54.938  40.421  0.00  0.00     0.217 HD
ENDBRANCH  26  29
ENDBRANCH  22  23
ENDBRANCH   8  22
BRANCH  11  31
HETATM   31  O   UNK N   1      33.532  50.590  44.626  0.00  0.00    -0.360 OA
HETATM   32  H   UNK N   1      33.255  49.771  44.190  0.00  0.00     0.217 HD
ENDBRANCH  11  31
BRANCH   9  33
HETATM   33  O   UNK N   1      32.941  55.195  45.627  0.00  0.00    -0.360 OA
HETATM   34  H   UNK N   1      32.231  55.772  45.942  0.00  0.00     0.217 HD
ENDBRANCH   9  33
TORSDOF 8
ENDMDL
MODEL 2
REMARK VINA RESULT:      -6.6      1.206      4.368
REMARK  8 active torsions:
REMARK  status: ('A' for Active; 'I' for Inactive)
REMARK    1  A    between atoms: C_6  and  C_8 
REMARK    2  A    between atoms: C_10  and  O_11 
REMARK    3  A    between atoms: C_13  and  O_14 
REMARK    4  A    between atoms: C_18  and  C_26 
REMARK    5  A    between atoms: C_19  and  O_20 
REMARK    6  A    between atoms: C_23  and  O_24 
REMARK    7  A    between atoms: C_26  and  C_27 
REMARK    8  A    between atoms: C_30  and  O_31 
ROOT
HETATM    1  O   UNK N   1      32.795  54.926  45.362  0.00  0.00    -0.287 OA
HETATM    2  C   UNK N   1      32.116  54.507  44.440  0.00  0.00     0.190 A 
HETATM    3  C   UNK N   1      32.286  53.201  43.937  0.00  0.00     0.082 A 
HETATM    4  C   UNK N   1      31.458  52.786  42.864  0.00  0.00     0.102 A 
HETATM    5  O   UNK N   1      30.535  53.614  42.374  0.00  0.00    -0.308 OA
HETATM    6  C   UNK N   1      30.363  54.860  42.817  0.00  0.00     0.090 A 
HETATM    7  C   UNK N   1      31.161  55.342  43.864  0.00  0.00     0.094 A 
HETATM    8  C   UNK N   1      31.624  51.507  42.292  0.00  0.00     0.014 A 
HETATM    9  C   UNK N   1      32.607  50.637  42.814  0.00  0.00     0.077 A 
HETATM   10  C   UNK N   1      33.400  51.039  43.891  0.00  0.00     0.074 A 
HETATM   11  C   UNK N   1      33.254  52.309  44.458  0.00  0.00     0.085 A 
ENDROOT
BRANCH   6  12
HETATM   12  C   UNK N   1      29.320  55.704  42.176  0.00  0.00     0.001 A 
HETATM   13  C   UNK N   1      27.965  55.393  42.382  0.00  0.00     0.053 A 
HETATM   14  C   UNK N   1      26.955  56.164  41.799  0.00  0.00     0.099 A 
HETATM   15  C   UNK N   1      27.294  57.248  40.969  0.00  0.00     0.098 A 
HETATM   16  C   UNK N   1      28.643  57.558  40.750  0.00  0.00     0.040 A 
HETATM   17  C   UNK N   1      29.650  56.802  41.356  0.00  0.00     0.017 A 
BRANCH  14  18
HETATM   18  O   UNK N   1      25.665  55.851  42.047  0.00  0.00    -0.358 OA
HETATM   19  H   UNK N   1      25.134  55.327  41.431  0.00  0.00     0.218 HD
ENDBRANCH  14  18
BRANCH  15  20
HETATM   20  O   UNK N   1      26.323  57.982  40.385  0.00  0.00    -0.358 OA
HETATM   21  H   UNK N   1      25.835  58.661  40.873  0.00  0.00     0.218 HD
ENDBRANCH  15  20
ENDBRANCH   6  12
BRANCH   8  22
HETATM   22  C   UNK N   1      30.772  51.058  41.118  0.00  0.00     0.083 C 
BRANCH  22  23
HETATM   23  C   UNK N   1      30.320  52.207  40.256  0.00  0.00    -0.054 A 
HETATM   24  C   UNK N   1      28.947  52.457  40.090  0.00  0.00     0.010 A 
HETATM   25  C   UNK N   1      28.513  53.493  39.262  0.00  0.00     0.037 A 
HETATM   26  C   UNK N   1      29.442  54.279  38.575  0.00  0.00     0.065 A 
HETATM   27  C   UNK N   1      30.815  54.032  38.731  0.00  0.00     0.037 A 
HETATM   28  C   UNK N   1      31.253  53.003  39.573  0.00  0.00     0.010 A 
BRANCH  26  29
HETATM   29  O   UNK N   1      29.006  55.261  37.761  0.00  0.00    -0.361 OA
HETATM   30  H   UNK N   1      28.127  55.235  37.356  0.00  0.00     0.217 HD
ENDBRANCH  26  29
ENDBRANCH  22  23
ENDBRANCH   8  22
BRANCH  11  31
HETATM   31  O   UNK N   1      34.043  52.670  45.492  0.00  0.00    -0.360 OA
HETATM   32  H   UNK N   1      34.999  52.793  45.389  0.00  0.00     0.217 HD
ENDBRANCH  11  31
BRANCH   9  33
HETATM   33  O   UNK N   1      32.777  49.407  42.282  0.00  0.00    -0.360 OA
HETATM   34  H   UNK N   1      33.341  48.740  42.700  0.00  0.00     0.217 HD
ENDBRANCH   9  33
TORSDOF 8
ENDMDL
MODEL 3
REMARK VINA RESULT:      -6.5      2.047      7.162
REMARK  8 active torsions:
REMARK  status: ('A' for Active; 'I' for Inactive)
REMARK    1  A    between atoms: C_6  and  C_8 
REMARK    2  A    between atoms: C_10  and  O_11 
REMARK    3  A    between atoms: C_13  and  O_14 
REMARK    4  A    between atoms: C_18  and  C_26 
REMARK    5  A    between atoms: C_19  and  O_20 
REMARK    6  A    between atoms: C_23  and  O_24 
REMARK    7  A    between atoms: C_26  and  C_27 
REMARK    8  A    between atoms: C_30  and  O_31 
ROOT
HETATM    1  O   UNK N   1      28.660  58.539  41.292  0.00  0.00    -0.287 OA
HETATM    2  C   UNK N   1      29.025  57.404  41.040  0.00  0.00     0.190 A 
HETATM    3  C   UNK N   1      28.651  56.762  39.842  0.00  0.00     0.082 A 
HETATM    4  C   UNK N   1      29.116  55.441  39.620  0.00  0.00     0.102 A 
HETATM    5  O   UNK N   1      29.901  54.849  40.519  0.00  0.00    -0.308 OA
HETATM    6  C   UNK N   1      30.258  55.424  41.669  0.00  0.00     0.090 A 
HETATM    7  C   UNK N   1      29.817  56.723  41.962  0.00  0.00     0.094 A 
HETATM    8  C   UNK N   1      28.727  54.737  38.460  0.00  0.00     0.014 A 
HETATM    9  C   UNK N   1      27.891  55.369  37.514  0.00  0.00     0.077 A 
HETATM   10  C   UNK N   1      27.460  56.681  37.722  0.00  0.00     0.074 A 
HETATM   11  C   UNK N   1      27.828  57.385  38.874  0.00  0.00     0.085 A 
ENDROOT
BRANCH   6  12
HETATM   12  C   UNK N   1      31.116  54.658  42.611  0.00  0.00     0.001 A 
HETATM   13  C   UNK N   1      31.926  55.357  43.522  0.00  0.00     0.053 A 
HETATM   14  C   UNK N   1      32.745  54.673  44.426  0.00  0.00     0.099 A 
HETATM   15  C   UNK N   1      32.786  53.268  44.406  0.00  0.00     0.098 A 
HETATM   16  C   UNK N   1      31.990  52.563  43.493  0.00  0.00     0.040 A 
HETATM   17  C   UNK N   1      31.151  53.249  42.609  0.00  0.00     0.017 A 
BRANCH  14  18
HETATM   18  O   UNK N   1      33.485  55.382  45.305  0.00  0.00    -0.358 OA
HETATM   19  H   UNK N   1      33.649  56.329  45.197  0.00  0.00     0.218 HD
ENDBRANCH  14  18
BRANCH  15  20
HETATM   20  O   UNK N   1      33.592  52.603  45.261  0.00  0.00    -0.358 OA
HETATM   21  H   UNK N   1      33.828  52.967  46.126  0.00  0.00     0.218 HD
ENDBRANCH  15  20
ENDBRANCH   6  12
BRANCH   8  22
HETATM   22  C   UNK N   1      29.185  53.308  38.221  0.00  0.00     0.083 C 
BRANCH  22  23
HETATM   23  C   UNK N   1      28.356  52.301  38.974  0.00  0.00    -0.054 A 
HETATM   24  C   UNK N   1      27.003  52.121  38.638  0.00  0.00     0.010 A 
HETATM   25  C   UNK N   1      26.212  51.221  39.353  0.00  0.00     0.037 A 
HETATM   26  C   UNK N   1      26.755  50.505  40.424  0.00  0.00     0.065 A 
HETATM   27  C   UNK N   1      28.103  50.684  40.769  0.00  0.00     0.037 A 
HETATM   28  C   UNK N   1      28.903  51.574  40.043  0.00  0.00     0.010 A 
BRANCH  26  29
HETATM   29  O   UNK N   1      25.971  49.657  41.119  0.00  0.00    -0.361 OA
HETATM   30  H   UNK N   1      26.172  48.711  41.180  0.00  0.00     0.217 HD
ENDBRANCH  26  29
ENDBRANCH  22  23
ENDBRANCH   8  22
BRANCH  11  31
HETATM   31  O   UNK N   1      27.387  58.648  39.049  0.00  0.00    -0.360 OA
HETATM   32  H   UNK N   1      27.940  59.417  38.845  0.00  0.00     0.217 HD
ENDBRANCH  11  31
BRANCH   9  33
HETATM   33  O   UNK N   1      27.513  54.713  36.395  0.00  0.00    -0.360 OA
HETATM   34  H   UNK N   1      26.712  54.948  35.906  0.00  0.00     0.217 HD
ENDBRANCH   9  33
TORSDOF 8
ENDMDL
MODEL 4
REMARK VINA RESULT:      -6.5     18.046     21.242
REMARK  8 active torsions:
REMARK  status: ('A' for Active; 'I' for Inactive)
REMARK    1  A    between atoms: C_6  and  C_8 
REMARK    2  A    between atoms: C_10  and  O_11 
REMARK    3  A    between atoms: C_13  and  O_14 
REMARK    4  A    between atoms: C_18  and  C_26 
REMARK    5  A    between atoms: C_19  and  O_20 
REMARK    6  A    between atoms: C_23  and  O_24 
REMARK    7  A    between atoms: C_26  and  C_27 
REMARK    8  A    between atoms: C_30  and  O_31 
ROOT
HETATM    1  O   UNK N   1      29.121  35.949  57.296  0.00  0.00    -0.287 OA
HETATM    2  C   UNK N   1      29.250  37.159  57.371  0.00  0.00     0.190 A 
HETATM    3  C   UNK N   1      29.456  37.800  58.610  0.00  0.00     0.082 A 
HETATM    4  C   UNK N   1      29.598  39.210  58.616  0.00  0.00     0.102 A 
HETATM    5  O   UNK N   1      29.558  39.891  57.471  0.00  0.00    -0.308 OA
HETATM    6  C   UNK N   1      29.347  39.315  56.286  0.00  0.00     0.090 A 
HETATM    7  C   UNK N   1      29.179  37.924  56.209  0.00  0.00     0.094 A 
HETATM    8  C   UNK N   1      29.755  39.903  59.836  0.00  0.00     0.014 A 
HETATM    9  C   UNK N   1      29.793  39.176  61.046  0.00  0.00     0.077 A 
HETATM   10  C   UNK N   1      29.683  37.783  61.032  0.00  0.00     0.074 A 
HETATM   11  C   UNK N   1      29.514  37.087  59.831  0.00  0.00     0.085 A 
ENDROOT
BRANCH   6  12
HETATM   12  C   UNK N   1      29.294  40.177  55.076  0.00  0.00     0.001 A 
HETATM   13  C   UNK N   1      28.316  39.927  54.099  0.00  0.00     0.053 A 
HETATM   14  C   UNK N   1      28.231  40.716  52.948  0.00  0.00     0.099 A 
HETATM   15  C   UNK N   1      29.156  41.756  52.746  0.00  0.00     0.098 A 
HETATM   16  C   UNK N   1      30.142  42.006  53.710  0.00  0.00     0.040 A 
HETATM   17  C   UNK N   1      30.207  41.232  54.872  0.00  0.00     0.017 A 
BRANCH  14  18
HETATM   18  O   UNK N   1      27.257  40.463  52.049  0.00  0.00    -0.358 OA
HETATM   19  H   UNK N   1      26.668  41.154  51.717  0.00  0.00     0.218 HD
ENDBRANCH  14  18
BRANCH  15  20
HETATM   20  O   UNK N   1      29.094  42.507  51.626  0.00  0.00    -0.358 OA
HETATM   21  H   UNK N   1      28.708  43.395  51.629  0.00  0.00     0.218 HD
ENDBRANCH  15  20
ENDBRANCH   6  12
BRANCH   8  22
HETATM   22  C   UNK N   1      29.872  41.417  59.866  0.00  0.00     0.083 C 
BRANCH  22  23
HETATM   23  C   UNK N   1      31.269  41.897  59.571  0.00  0.00    -0.054 A 
HETATM   24  C   UNK N   1      32.335  41.485  60.390  0.00  0.00     0.010 A 
HETATM   25  C   UNK N   1      33.628  41.954  60.152  0.00  0.00     0.037 A 
HETATM   26  C   UNK N   1      33.870  42.852  59.110  0.00  0.00     0.065 A 
HETATM   27  C   UNK N   1      32.809  43.272  58.291  0.00  0.00     0.037 A 
HETATM   28  C   UNK N   1      31.515  42.791  58.517  0.00  0.00     0.010 A 
BRANCH  26  29
HETATM   29  O   UNK N   1      35.121  43.313  58.908  0.00  0.00    -0.361 OA
HETATM   30  H   UNK N   1      35.824  43.181  59.561  0.00  0.00     0.217 HD
ENDBRANCH  26  29
ENDBRANCH  22  23
ENDBRANCH   8  22
BRANCH  11  31
HETATM   31  O   UNK N   1      29.401  35.741  59.854  0.00  0.00    -0.360 OA
HETATM   32  H   UNK N   1      30.134  35.171  60.132  0.00  0.00     0.217 HD
ENDBRANCH  11  31
BRANCH   9  33
HETATM   33  O   UNK N   1      29.948  39.821  62.222  0.00  0.00    -0.360 OA
HETATM   34  H   UNK N   1      30.821  40.043  62.576  0.00  0.00     0.217 HD
ENDBRANCH   9  33
TORSDOF 8
ENDMDL
MODEL 5
REMARK VINA RESULT:      -6.5     15.672     18.487
REMARK  8 active torsions:
REMARK  status: ('A' for Active; 'I' for Inactive)
REMARK    1  A    between atoms: C_6  and  C_8 
REMARK    2  A    between atoms: C_10  and  O_11 
REMARK    3  A    between atoms: C_13  and  O_14 
REMARK    4  A    between atoms: C_18  and  C_26 
REMARK    5  A    between atoms: C_19  and  O_20 
REMARK    6  A    between atoms: C_23  and  O_24 
REMARK    7  A    between atoms: C_26  and  C_27 
REMARK    8  A    between atoms: C_30  and  O_31 
ROOT
HETATM    1  O   UNK N   1      28.678  38.963  57.855  0.00  0.00    -0.287 OA
HETATM    2  C   UNK N   1      29.027  40.023  57.366  0.00  0.00     0.190 A 
HETATM    3  C   UNK N   1      29.900  40.895  58.049  0.00  0.00     0.082 A 
HETATM    4  C   UNK N   1      30.261  42.110  57.413  0.00  0.00     0.102 A 
HETATM    5  O   UNK N   1      29.798  42.391  56.196  0.00  0.00    -0.308 OA
HETATM    6  C   UNK N   1      28.958  41.595  55.532  0.00  0.00     0.090 A 
HETATM    7  C   UNK N   1      28.544  40.385  56.110  0.00  0.00     0.094 A 
HETATM    8  C   UNK N   1      31.091  43.039  58.077  0.00  0.00     0.014 A 
HETATM    9  C   UNK N   1      31.575  42.737  59.368  0.00  0.00     0.077 A 
HETATM   10  C   UNK N   1      31.241  41.525  59.978  0.00  0.00     0.074 A 
HETATM   11  C   UNK N   1      30.409  40.602  59.336  0.00  0.00     0.085 A 
ENDROOT
BRANCH   6  12
HETATM   12  C   UNK N   1      28.483  42.023  54.190  0.00  0.00     0.001 A 
HETATM   13  C   UNK N   1      29.326  41.852  53.079  0.00  0.00     0.053 A 
HETATM   14  C   UNK N   1      28.915  42.239  51.800  0.00  0.00     0.099 A 
HETATM   15  C   UNK N   1      27.655  42.837  51.622  0.00  0.00     0.098 A 
HETATM   16  C   UNK N   1      26.812  43.020  52.727  0.00  0.00     0.040 A 
HETATM   17  C   UNK N   1      27.214  42.608  54.000  0.00  0.00     0.017 A 
BRANCH  14  18
HETATM   18  O   UNK N   1      29.742  42.029  50.754  0.00  0.00    -0.358 OA
HETATM   19  H   UNK N   1      30.666  41.766  50.871  0.00  0.00     0.218 HD
ENDBRANCH  14  18
BRANCH  15  20
HETATM   20  O   UNK N   1      27.262  43.233  50.393  0.00  0.00    -0.358 OA
HETATM   21  H   UNK N   1      27.879  43.269  49.648  0.00  0.00     0.218 HD
ENDBRANCH  15  20
ENDBRANCH   6  12
BRANCH   8  22
HETATM   22  C   UNK N   1      31.459  44.363  57.428  0.00  0.00     0.083 C 
BRANCH  22  23
HETATM   23  C   UNK N   1      30.465  45.452  57.729  0.00  0.00    -0.054 A 
HETATM   24  C   UNK N   1      29.167  45.115  58.151  0.00  0.00     0.010 A 
HETATM   25  C   UNK N   1      28.222  46.113  58.394  0.00  0.00     0.037 A 
HETATM   26  C   UNK N   1      28.555  47.457  58.201  0.00  0.00     0.065 A 
HETATM   27  C   UNK N   1      29.847  47.801  57.775  0.00  0.00     0.037 A 
HETATM   28  C   UNK N   1      30.801  46.803  57.546  0.00  0.00     0.010 A 
BRANCH  26  29
HETATM   29  O   UNK N   1      27.623  48.407  58.418  0.00  0.00    -0.361 OA
HETATM   30  H   UNK N   1      26.817  48.225  58.922  0.00  0.00     0.217 HD
ENDBRANCH  26  29
ENDBRANCH  22  23
ENDBRANCH   8  22
BRANCH  11  31
HETATM   31  O   UNK N   1      30.098  39.444  59.957  0.00  0.00    -0.360 OA
HETATM   32  H   UNK N   1      29.437  38.833  59.600  0.00  0.00     0.217 HD
ENDBRANCH  11  31
BRANCH   9  33
HETATM   33  O   UNK N   1      32.374  43.612  60.017  0.00  0.00    -0.360 OA
HETATM   34  H   UNK N   1      32.899  44.275  59.547  0.00  0.00     0.217 HD
ENDBRANCH   9  33
TORSDOF 8
ENDMDL
MODEL 6
REMARK VINA RESULT:      -6.4      2.226      6.851
REMARK  8 active torsions:
REMARK  status: ('A' for Active; 'I' for Inactive)
REMARK    1  A    between atoms: C_6  and  C_8 
REMARK    2  A    between atoms: C_10  and  O_11 
REMARK    3  A    between atoms: C_13  and  O_14 
REMARK    4  A    between atoms: C_18  and  C_26 
REMARK    5  A    between atoms: C_19  and  O_20 
REMARK    6  A    between atoms: C_23  and  O_24 
REMARK    7  A    between atoms: C_26  and  C_27 
REMARK    8  A    between atoms: C_30  and  O_31 
ROOT
HETATM    1  O   UNK N   1      29.626  57.313  41.888  0.00  0.00    -0.287 OA
HETATM    2  C   UNK N   1      29.635  56.163  41.486  0.00  0.00     0.190 A 
HETATM    3  C   UNK N   1      28.893  55.776  40.351  0.00  0.00     0.082 A 
HETATM    4  C   UNK N   1      28.955  54.420  39.944  0.00  0.00     0.102 A 
HETATM    5  O   UNK N   1      29.715  53.555  40.615  0.00  0.00    -0.308 OA
HETATM    6  C   UNK N   1      30.413  53.886  41.702  0.00  0.00     0.090 A 
HETATM    7  C   UNK N   1      30.383  55.208  42.172  0.00  0.00     0.094 A 
HETATM    8  C   UNK N   1      28.191  53.972  38.845  0.00  0.00     0.014 A 
HETATM    9  C   UNK N   1      27.385  54.893  38.141  0.00  0.00     0.077 A 
HETATM   10  C   UNK N   1      27.351  56.235  38.527  0.00  0.00     0.074 A 
HETATM   11  C   UNK N   1      28.093  56.688  39.622  0.00  0.00     0.085 A 
ENDROOT
BRANCH   6  12
HETATM   12  C   UNK N   1      31.206  52.831  42.388  0.00  0.00     0.001 A 
HETATM   13  C   UNK N   1      31.256  51.542  41.831  0.00  0.00     0.053 A 
HETATM   14  C   UNK N   1      31.992  50.523  42.443  0.00  0.00     0.099 A 
HETATM   15  C   UNK N   1      32.667  50.778  43.650  0.00  0.00     0.098 A 
HETATM   16  C   UNK N   1      32.613  52.058  44.218  0.00  0.00     0.040 A 
HETATM   17  C   UNK N   1      31.899  53.082  43.589  0.00  0.00     0.017 A 
BRANCH  14  18
HETATM   18  O   UNK N   1      32.039  49.307  41.860  0.00  0.00    -0.358 OA
HETATM   19  H   UNK N   1      32.700  49.081  41.190  0.00  0.00     0.218 HD
ENDBRANCH  14  18
BRANCH  15  20
HETATM   20  O   UNK N   1      33.361  49.793  44.258  0.00  0.00    -0.358 OA
HETATM   21  H   UNK N   1      34.225  49.502  43.932  0.00  0.00     0.218 HD
ENDBRANCH  15  20
ENDBRANCH   6  12
BRANCH   8  22
HETATM   22  C   UNK N   1      28.215  52.515  38.416  0.00  0.00     0.083 C 
BRANCH  22  23
HETATM   23  C   UNK N   1      27.174  51.686  39.122  0.00  0.00    -0.054 A 
HETATM   24  C   UNK N   1      27.478  51.091  40.358  0.00  0.00     0.010 A 
HETATM   25  C   UNK N   1      26.538  50.287  41.005  0.00  0.00     0.037 A 
HETATM   26  C   UNK N   1      25.293  50.052  40.417  0.00  0.00     0.065 A 
HETATM   27  C   UNK N   1      24.984  50.638  39.180  0.00  0.00     0.037 A 
HETATM   28  C   UNK N   1      25.919  51.458  38.537  0.00  0.00     0.010 A 
BRANCH  26  29
HETATM   29  O   UNK N   1      24.404  49.254  41.043  0.00  0.00    -0.361 OA
HETATM   30  H   UNK N   1      24.601  48.844  41.898  0.00  0.00     0.217 HD
ENDBRANCH  26  29
ENDBRANCH  22  23
ENDBRANCH   8  22
BRANCH  11  31
HETATM   31  O   UNK N   1      28.031  57.990  39.975  0.00  0.00    -0.360 OA
HETATM   32  H   UNK N   1      28.773  58.440  40.406  0.00  0.00     0.217 HD
ENDBRANCH  11  31
BRANCH   9  33
HETATM   33  O   UNK N   1      26.651  54.485  37.083  0.00  0.00    -0.360 OA
HETATM   34  H   UNK N   1      26.484  53.548  36.903  0.00  0.00     0.217 HD
ENDBRANCH   9  33
TORSDOF 8
ENDMDL
MODEL 7
REMARK VINA RESULT:      -6.4      2.322      6.496
REMARK  8 active torsions:
REMARK  status: ('A' for Active; 'I' for Inactive)
REMARK    1  A    between atoms: C_6  and  C_8 
REMARK    2  A    between atoms: C_10  and  O_11 
REMARK    3  A    between atoms: C_13  and  O_14 
REMARK    4  A    between atoms: C_18  and  C_26 
REMARK    5  A    between atoms: C_19  and  O_20 
REMARK    6  A    between atoms: C_23  and  O_24 
REMARK    7  A    between atoms: C_26  and  C_27 
REMARK    8  A    between atoms: C_30  and  O_31 
ROOT
HETATM    1  O   UNK N   1      30.632  56.073  43.324  0.00  0.00    -0.287 OA
HETATM    2  C   UNK N   1      30.485  55.062  42.660  0.00  0.00     0.190 A 
HETATM    3  C   UNK N   1      29.581  55.018  41.579  0.00  0.00     0.082 A 
HETATM    4  C   UNK N   1      29.467  53.806  40.853  0.00  0.00     0.102 A 
HETATM    5  O   UNK N   1      30.218  52.756  41.184  0.00  0.00    -0.308 OA
HETATM    6  C   UNK N   1      31.070  52.762  42.211  0.00  0.00     0.090 A 
HETATM    7  C   UNK N   1      31.218  53.923  42.984  0.00  0.00     0.094 A 
HETATM    8  C   UNK N   1      28.539  53.695  39.796  0.00  0.00     0.014 A 
HETATM    9  C   UNK N   1      27.742  54.810  39.454  0.00  0.00     0.077 A 
HETATM   10  C   UNK N   1      27.880  56.012  40.153  0.00  0.00     0.074 A 
HETATM   11  C   UNK N   1      28.787  56.130  41.210  0.00  0.00     0.085 A 
ENDROOT
BRANCH   6  12
HETATM   12  C   UNK N   1      31.837  51.523  42.505  0.00  0.00     0.001 A 
HETATM   13  C   UNK N   1      33.008  51.610  43.277  0.00  0.00     0.053 A 
HETATM   14  C   UNK N   1      33.757  50.468  43.577  0.00  0.00     0.099 A 
HETATM   15  C   UNK N   1      33.354  49.217  43.076  0.00  0.00     0.098 A 
HETATM   16  C   UNK N   1      32.194  49.123  42.297  0.00  0.00     0.040 A 
HETATM   17  C   UNK N   1      31.432  50.262  42.021  0.00  0.00     0.017 A 
BRANCH  14  18
HETATM   18  O   UNK N   1      34.858  50.590  44.348  0.00  0.00    -0.358 OA
HETATM   19  H   UNK N   1      35.709  50.204  44.098  0.00  0.00     0.218 HD
ENDBRANCH  14  18
BRANCH  15  20
HETATM   20  O   UNK N   1      34.085  48.115  43.345  0.00  0.00    -0.358 OA
HETATM   21  H   UNK N   1      34.134  47.740  44.236  0.00  0.00     0.218 HD
ENDBRANCH  15  20
ENDBRANCH   6  12
BRANCH   8  22
HETATM   22  C   UNK N   1      28.375  52.394  39.030  0.00  0.00     0.083 C 
BRANCH  22  23
HETATM   23  C   UNK N   1      27.232  51.559  39.543  0.00  0.00    -0.054 A 
HETATM   24  C   UNK N   1      26.086  51.383  38.748  0.00  0.00     0.010 A 
HETATM   25  C   UNK N   1      25.001  50.646  39.226  0.00  0.00     0.037 A 
HETATM   26  C   UNK N   1      25.039  50.093  40.509  0.00  0.00     0.065 A 
HETATM   27  C   UNK N   1      26.178  50.270  41.311  0.00  0.00     0.037 A 
HETATM   28  C   UNK N   1      27.273  50.995  40.827  0.00  0.00     0.010 A 
BRANCH  26  29
HETATM   29  O   UNK N   1      23.974  49.404  40.966  0.00  0.00    -0.361 OA
HETATM   30  H   UNK N   1      23.088  49.792  40.988  0.00  0.00     0.217 HD
ENDBRANCH  26  29
ENDBRANCH  22  23
ENDBRANCH   8  22
BRANCH  11  31
HETATM   31  O   UNK N   1      28.888  57.303  41.871  0.00  0.00    -0.360 OA
HETATM   32  H   UNK N   1      28.818  58.156  41.415  0.00  0.00     0.217 HD
ENDBRANCH  11  31
BRANCH   9  33
HETATM   33  O   UNK N   1      26.852  54.725  38.442  0.00  0.00    -0.360 OA
HETATM   34  H   UNK N   1      27.008  54.169  37.665  0.00  0.00     0.217 HD
ENDBRANCH   9  33
TORSDOF 8
ENDMDL
MODEL 8
REMARK VINA RESULT:      -6.2      1.259      2.094
REMARK  8 active torsions:
REMARK  status: ('A' for Active; 'I' for Inactive)
REMARK    1  A    between atoms: C_6  and  C_8 
REMARK    2  A    between atoms: C_10  and  O_11 
REMARK    3  A    between atoms: C_13  and  O_14 
REMARK    4  A    between atoms: C_18  and  C_26 
REMARK    5  A    between atoms: C_19  and  O_20 
REMARK    6  A    between atoms: C_23  and  O_24 
REMARK    7  A    between atoms: C_26  and  C_27 
REMARK    8  A    between atoms: C_30  and  O_31 
ROOT
HETATM    1  O   UNK N   1      32.032  49.596  41.577  0.00  0.00    -0.287 OA
HETATM    2  C   UNK N   1      31.527  50.703  41.639  0.00  0.00     0.190 A 
HETATM    3  C   UNK N   1      31.953  51.652  42.591  0.00  0.00     0.082 A 
HETATM    4  C   UNK N   1      31.317  52.919  42.601  0.00  0.00     0.102 A 
HETATM    5  O   UNK N   1      30.362  53.194  41.713  0.00  0.00    -0.308 OA
HETATM    6  C   UNK N   1      29.926  52.312  40.812  0.00  0.00     0.090 A 
HETATM    7  C   UNK N   1      30.498  51.032  40.760  0.00  0.00     0.094 A 
HETATM    8  C   UNK N   1      31.672  53.885  43.567  0.00  0.00     0.014 A 
HETATM    9  C   UNK N   1      32.682  53.585  44.507  0.00  0.00     0.077 A 
HETATM   10  C   UNK N   1      33.327  52.346  44.475  0.00  0.00     0.074 A 
HETATM   11  C   UNK N   1      32.975  51.376  43.531  0.00  0.00     0.085 A 
ENDROOT
BRANCH   6  12
HETATM   12  C   UNK N   1      28.835  52.719  39.888  0.00  0.00     0.001 A 
HETATM   13  C   UNK N   1      27.521  52.809  40.377  0.00  0.00     0.053 A 
HETATM   14  C   UNK N   1      26.467  53.191  39.541  0.00  0.00     0.099 A 
HETATM   15  C   UNK N   1      26.716  53.459  38.183  0.00  0.00     0.098 A 
HETATM   16  C   UNK N   1      28.022  53.362  37.685  0.00  0.00     0.040 A 
HETATM   17  C   UNK N   1      29.077  53.006  38.529  0.00  0.00     0.017 A 
BRANCH  14  18
HETATM   18  O   UNK N   1      25.225  53.294  40.057  0.00  0.00    -0.358 OA
HETATM   19  H   UNK N   1      24.430  53.164  39.521  0.00  0.00     0.218 HD
ENDBRANCH  14  18
BRANCH  15  20
HETATM   20  O   UNK N   1      25.700  53.806  37.366  0.00  0.00    -0.358 OA
HETATM   21  H   UNK N   1      25.159  54.592  37.531  0.00  0.00     0.218 HD
ENDBRANCH  15  20
ENDBRANCH   6  12
BRANCH   8  22
HETATM   22  C   UNK N   1      30.977  55.235  43.617  0.00  0.00     0.083 C 
BRANCH  22  23
HETATM   23  C   UNK N   1      30.503  55.693  42.263  0.00  0.00    -0.054 A 
HETATM   24  C   UNK N   1      29.134  55.920  42.043  0.00  0.00     0.010 A 
HETATM   25  C   UNK N   1      28.675  56.306  40.783  0.00  0.00     0.037 A 
HETATM   26  C   UNK N   1      29.574  56.450  39.723  0.00  0.00     0.065 A 
HETATM   27  C   UNK N   1      30.943  56.220  39.932  0.00  0.00     0.037 A 
HETATM   28  C   UNK N   1      31.407  55.849  41.200  0.00  0.00     0.010 A 
BRANCH  26  29
HETATM   29  O   UNK N   1      29.112  56.801  38.505  0.00  0.00    -0.361 OA
HETATM   30  H   UNK N   1      29.711  57.031  37.780  0.00  0.00     0.217 HD
ENDBRANCH  26  29
ENDBRANCH  22  23
ENDBRANCH   8  22
BRANCH  11  31
HETATM   31  O   UNK N   1      33.612  50.186  43.533  0.00  0.00    -0.360 OA
HETATM   32  H   UNK N   1      34.286  49.965  42.873  0.00  0.00     0.217 HD
ENDBRANCH  11  31
BRANCH   9  33
HETATM   33  O   UNK N   1      33.039  54.499  45.436  0.00  0.00    -0.360 OA
HETATM   34  H   UNK N   1      33.742  55.145  45.278  0.00  0.00     0.217 HD
ENDBRANCH   9  33
TORSDOF 8
ENDMDL
MODEL 9
REMARK VINA RESULT:      -6.1     16.626     19.287
REMARK  8 active torsions:
REMARK  status: ('A' for Active; 'I' for Inactive)
REMARK    1  A    between atoms: C_6  and  C_8 
REMARK    2  A    between atoms: C_10  and  O_11 
REMARK    3  A    between atoms: C_13  and  O_14 
REMARK    4  A    between atoms: C_18  and  C_26 
REMARK    5  A    between atoms: C_19  and  O_20 
REMARK    6  A    between atoms: C_23  and  O_24 
REMARK    7  A    between atoms: C_26  and  C_27 
REMARK    8  A    between atoms: C_30  and  O_31 
ROOT
HETATM    1  O   UNK N   1      33.530  42.114  60.347  0.00  0.00    -0.287 OA
HETATM    2  C   UNK N   1      32.597  42.724  59.856  0.00  0.00     0.190 A 
HETATM    3  C   UNK N   1      31.993  43.808  60.527  0.00  0.00     0.082 A 
HETATM    4  C   UNK N   1      30.913  44.469  59.890  0.00  0.00     0.102 A 
HETATM    5  O   UNK N   1      30.508  44.077  58.682  0.00  0.00    -0.308 OA
HETATM    6  C   UNK N   1      31.047  43.045  58.031  0.00  0.00     0.090 A 
HETATM    7  C   UNK N   1      32.108  42.334  58.611  0.00  0.00     0.094 A 
HETATM    8  C   UNK N   1      30.242  45.526  60.542  0.00  0.00     0.014 A 
HETATM    9  C   UNK N   1      30.674  45.933  61.824  0.00  0.00     0.077 A 
HETATM   10  C   UNK N   1      31.758  45.299  62.434  0.00  0.00     0.074 A 
HETATM   11  C   UNK N   1      32.422  44.242  61.804  0.00  0.00     0.085 A 
ENDROOT
BRANCH   6  12
HETATM   12  C   UNK N   1      30.496  42.679  56.699  0.00  0.00     0.001 A 
HETATM   13  C   UNK N   1      29.135  42.908  56.434  0.00  0.00     0.053 A 
HETATM   14  C   UNK N   1      28.580  42.580  55.193  0.00  0.00     0.099 A 
HETATM   15  C   UNK N   1      29.383  41.983  54.205  0.00  0.00     0.098 A 
HETATM   16  C   UNK N   1      30.739  41.741  54.465  0.00  0.00     0.040 A 
HETATM   17  C   UNK N   1      31.297  42.095  55.696  0.00  0.00     0.017 A 
BRANCH  14  18
HETATM   18  O   UNK N   1      27.276  42.845  54.968  0.00  0.00    -0.358 OA
HETATM   19  H   UNK N   1      26.671  43.102  55.678  0.00  0.00     0.218 HD
ENDBRANCH  14  18
BRANCH  15  20
HETATM   20  O   UNK N   1      28.848  41.644  53.013  0.00  0.00    -0.358 OA
HETATM   21  H   UNK N   1      28.866  42.247  52.256  0.00  0.00     0.218 HD
ENDBRANCH  15  20
ENDBRANCH   6  12
BRANCH   8  22
HETATM   22  C   UNK N   1      29.059  46.222  59.892  0.00  0.00     0.083 C 
BRANCH  22  23
HETATM   23  C   UNK N   1      29.465  47.437  59.100  0.00  0.00    -0.054 A 
HETATM   24  C   UNK N   1      29.246  48.720  59.629  0.00  0.00     0.010 A 
HETATM   25  C   UNK N   1      29.580  49.856  58.889  0.00  0.00     0.037 A 
HETATM   26  C   UNK N   1      30.117  49.724  57.606  0.00  0.00     0.065 A 
HETATM   27  C   UNK N   1      30.333  48.446  57.068  0.00  0.00     0.037 A 
HETATM   28  C   UNK N   1      30.015  47.306  57.815  0.00  0.00     0.010 A 
BRANCH  26  29
HETATM   29  O   UNK N   1      30.413  50.831  56.895  0.00  0.00    -0.361 OA
HETATM   30  H   UNK N   1      30.272  51.720  57.253  0.00  0.00     0.217 HD
ENDBRANCH  26  29
ENDBRANCH  22  23
ENDBRANCH   8  22
BRANCH  11  31
HETATM   31  O   UNK N   1      33.461  43.645  62.426  0.00  0.00    -0.360 OA
HETATM   32  H   UNK N   1      34.259  43.375  61.946  0.00  0.00     0.217 HD
ENDBRANCH  11  31
BRANCH   9  33
HETATM   33  O   UNK N   1      30.048  46.947  62.461  0.00  0.00    -0.360 OA
HETATM   34  H   UNK N   1      29.749  47.741  61.996  0.00  0.00     0.217 HD
ENDBRANCH   9  33
TORSDOF 8
ENDMDL
