MODEL 1
REMARK VINA RESULT:      -5.9      0.000      0.000
REMARK  7 active torsions:
REMARK  status: ('A' for Active; 'I' for Inactive)
REMARK    1  A    between atoms: C_2  and  O_3 
REMARK    2  A    between atoms: C_2  and  C_23 
REMARK    3  A    between atoms: O_3  and  C_4 
REMARK    4  A    between atoms: C_6  and  O_7 
REMARK    5  A    between atoms: C_6  and  C_9 
REMARK    6  A    between atoms: C_16  and  O_17 
REMARK    7  A    between atoms: C_26  and  O_27 
ROOT
HETATM    1  C   UNK N   1      29.897  54.853  40.673  0.00  0.00     0.144 C 
HETATM    2  C   UNK N   1      28.583  55.542  40.190  0.00  0.00     0.058 C 
HETATM    3  C   UNK N   1      28.294  56.959  40.839  0.00  0.00     0.067 C 
HETATM    4  C   UNK N   1      27.517  57.733  39.729  0.00  0.00     0.039 C 
HETATM    5  C   UNK N   1      27.139  56.692  38.701  0.00  0.00     0.012 C 
HETATM    6  C   UNK N   1      28.341  55.721  38.666  0.00  0.00    -0.033 C 
HETATM    7  C   UNK N   1      27.845  54.416  37.959  0.00  0.00     0.046 C 
HETATM    8  C   UNK N   1      28.741  53.169  37.921  0.00  0.00     0.147 C 
HETATM    9  C   UNK N   1      29.250  52.766  39.296  0.00  0.00    -0.058 C 
HETATM   10  C   UNK N   1      30.340  53.587  39.924  0.00  0.00     0.069 C 
HETATM   11  C   UNK N   1      28.809  51.651  39.894  0.00  0.00     0.017 C 
HETATM   12  C   UNK N   1      29.552  56.354  37.930  0.00  0.00     0.016 C 
ENDROOT
BRANCH   1  13
HETATM   13  O   UNK N   1      29.793  54.569  42.030  0.00  0.00    -0.311 OA
BRANCH  13  14
HETATM   14  C   UNK N   1      30.721  54.989  42.937  0.00  0.00     0.293 C 
HETATM   15  O   UNK N   1      30.738  56.158  43.298  0.00  0.00    -0.259 OA
BRANCH  14  16
HETATM   16  C   UNK N   1      31.656  54.022  43.557  0.00  0.00     0.039 A 
HETATM   17  C   UNK N   1      31.605  52.668  43.179  0.00  0.00     0.020 A 
HETATM   18  C   UNK N   1      32.529  51.757  43.690  0.00  0.00     0.037 A 
HETATM   19  C   UNK N   1      33.510  52.183  44.595  0.00  0.00     0.065 A 
HETATM   20  C   UNK N   1      33.549  53.522  44.997  0.00  0.00     0.037 A 
HETATM   21  C   UNK N   1      32.628  54.441  44.481  0.00  0.00     0.020 A 
BRANCH  19  22
HETATM   22  O   UNK N   1      34.421  51.313  45.075  0.00  0.00    -0.361 OA
HETATM   23  H   UNK N   1      34.197  50.388  45.248  0.00  0.00     0.217 HD
ENDBRANCH  19  22
ENDBRANCH  14  16
ENDBRANCH  13  14
ENDBRANCH   1  13
BRANCH   3  24
HETATM   24  O   UNK N   1      29.532  57.605  41.059  0.00  0.00    -0.389 OA
HETATM   25  H   UNK N   1      29.552  58.461  40.559  0.00  0.00     0.210 HD
ENDBRANCH   3  24
BRANCH   3  26
HETATM   26  C   UNK N   1      27.518  56.867  42.215  0.00  0.00     0.012 C 
HETATM   27  C   UNK N   1      26.588  58.077  42.452  0.00  0.00     0.012 C 
HETATM   28  C   UNK N   1      26.678  55.585  42.408  0.00  0.00     0.012 C 
ENDBRANCH   3  26
BRANCH   8  29
HETATM   29  O   UNK N   1      29.813  53.366  37.034  0.00  0.00    -0.391 OA
HETATM   30  H   UNK N   1      29.959  54.346  36.972  0.00  0.00     0.210 HD
ENDBRANCH   8  29
TORSDOF 7
ENDMDL
MODEL 2
REMARK VINA RESULT:      -5.5      1.943      3.008
REMARK  7 active torsions:
REMARK  status: ('A' for Active; 'I' for Inactive)
REMARK    1  A    between atoms: C_2  and  O_3 
REMARK    2  A    between atoms: C_2  and  C_23 
REMARK    3  A    between atoms: O_3  and  C_4 
REMARK    4  A    between atoms: C_6  and  O_7 
REMARK    5  A    between atoms: C_6  and  C_9 
REMARK    6  A    between atoms: C_16  and  O_17 
REMARK    7  A    between atoms: C_26  and  O_27 
ROOT
HETATM    1  C   UNK N   1      29.211  52.757  39.669  0.00  0.00     0.144 C 
HETATM    2  C   UNK N   1      28.598  53.984  38.925  0.00  0.00     0.058 C 
HETATM    3  C   UNK N   1      29.603  55.185  38.677  0.00  0.00     0.067 C 
HETATM    4  C   UNK N   1      29.101  55.832  37.349  0.00  0.00     0.039 C 
HETATM    5  C   UNK N   1      27.742  55.223  37.093  0.00  0.00     0.012 C 
HETATM    6  C   UNK N   1      27.872  53.759  37.570  0.00  0.00    -0.033 C 
HETATM    7  C   UNK N   1      26.416  53.207  37.731  0.00  0.00     0.046 C 
HETATM    8  C   UNK N   1      26.177  51.831  38.370  0.00  0.00     0.147 C 
HETATM    9  C   UNK N   1      26.863  51.680  39.719  0.00  0.00    -0.058 C 
HETATM   10  C   UNK N   1      28.353  51.485  39.745  0.00  0.00     0.069 C 
HETATM   11  C   UNK N   1      26.152  51.623  40.853  0.00  0.00     0.017 C 
HETATM   12  C   UNK N   1      28.703  52.914  36.568  0.00  0.00     0.016 C 
ENDROOT
BRANCH   1  13
HETATM   13  O   UNK N   1      29.577  53.138  40.954  0.00  0.00    -0.311 OA
BRANCH  13  14
HETATM   14  C   UNK N   1      30.696  52.655  41.568  0.00  0.00     0.293 C 
HETATM   15  O   UNK N   1      31.246  51.652  41.134  0.00  0.00    -0.259 OA
BRANCH  14  16
HETATM   16  C   UNK N   1      31.305  53.386  42.703  0.00  0.00     0.039 A 
HETATM   17  C   UNK N   1      32.136  52.698  43.606  0.00  0.00     0.020 A 
HETATM   18  C   UNK N   1      32.783  53.385  44.633  0.00  0.00     0.037 A 
HETATM   19  C   UNK N   1      32.601  54.766  44.780  0.00  0.00     0.065 A 
HETATM   20  C   UNK N   1      31.755  55.452  43.903  0.00  0.00     0.037 A 
HETATM   21  C   UNK N   1      31.109  54.768  42.867  0.00  0.00     0.020 A 
BRANCH  19  22
HETATM   22  O   UNK N   1      33.242  55.440  45.756  0.00  0.00    -0.361 OA
HETATM   23  H   UNK N   1      33.384  55.051  46.631  0.00  0.00     0.217 HD
ENDBRANCH  19  22
ENDBRANCH  14  16
ENDBRANCH  13  14
ENDBRANCH   1  13
BRANCH   3  24
HETATM   24  O   UNK N   1      30.892  54.645  38.459  0.00  0.00    -0.389 OA
HETATM   25  H   UNK N   1      30.934  53.727  38.832  0.00  0.00     0.210 HD
ENDBRANCH   3  24
BRANCH   3  26
HETATM   26  C   UNK N   1      29.676  56.196  39.891  0.00  0.00     0.012 C 
HETATM   27  C   UNK N   1      29.991  57.640  39.442  0.00  0.00     0.012 C 
HETATM   28  C   UNK N   1      28.412  56.246  40.778  0.00  0.00     0.012 C 
ENDBRANCH   3  26
BRANCH   8  29
HETATM   29  O   UNK N   1      26.578  50.810  37.493  0.00  0.00    -0.391 OA
HETATM   30  H   UNK N   1      27.333  51.170  36.958  0.00  0.00     0.210 HD
ENDBRANCH   8  29
TORSDOF 7
ENDMDL
MODEL 3
REMARK VINA RESULT:      -5.2      2.213      3.266
REMARK  7 active torsions:
REMARK  status: ('A' for Active; 'I' for Inactive)
REMARK    1  A    between atoms: C_2  and  O_3 
REMARK    2  A    between atoms: C_2  and  C_23 
REMARK    3  A    between atoms: O_3  and  C_4 
REMARK    4  A    between atoms: C_6  and  O_7 
REMARK    5  A    between atoms: C_6  and  C_9 
REMARK    6  A    between atoms: C_16  and  O_17 
REMARK    7  A    between atoms: C_26  and  O_27 
ROOT
HETATM    1  C   UNK N   1      28.552  52.905  39.500  0.00  0.00     0.144 C 
HETATM    2  C   UNK N   1      27.878  54.296  39.715  0.00  0.00     0.058 C 
HETATM    3  C   UNK N   1      28.880  55.524  39.756  0.00  0.00     0.067 C 
HETATM    4  C   UNK N   1      28.046  56.713  39.183  0.00  0.00     0.039 C 
HETATM    5  C   UNK N   1      26.617  56.223  39.150  0.00  0.00     0.012 C 
HETATM    6  C   UNK N   1      26.722  54.729  38.772  0.00  0.00    -0.033 C 
HETATM    7  C   UNK N   1      25.347  54.075  39.135  0.00  0.00     0.046 C 
HETATM    8  C   UNK N   1      25.172  52.550  39.057  0.00  0.00     0.147 C 
HETATM    9  C   UNK N   1      26.243  51.793  39.825  0.00  0.00    -0.058 C 
HETATM   10  C   UNK N   1      27.623  51.711  39.235  0.00  0.00     0.069 C 
HETATM   11  C   UNK N   1      25.947  51.131  40.952  0.00  0.00     0.017 C 
HETATM   12  C   UNK N   1      27.067  54.554  37.269  0.00  0.00     0.016 C 
ENDROOT
BRANCH   1  13
HETATM   13  O   UNK N   1      29.367  52.618  40.588  0.00  0.00    -0.311 OA
BRANCH  13  14
HETATM   14  C   UNK N   1      30.667  52.229  40.444  0.00  0.00     0.293 C 
HETATM   15  O   UNK N   1      31.316  52.610  39.480  0.00  0.00    -0.259 OA
BRANCH  14  16
HETATM   16  C   UNK N   1      31.329  51.420  41.493  0.00  0.00     0.039 A 
HETATM   17  C   UNK N   1      31.898  52.061  42.608  0.00  0.00     0.020 A 
HETATM   18  C   UNK N   1      32.454  51.312  43.645  0.00  0.00     0.037 A 
HETATM   19  C   UNK N   1      32.458  49.913  43.580  0.00  0.00     0.065 A 
HETATM   20  C   UNK N   1      31.918  49.269  42.462  0.00  0.00     0.037 A 
HETATM   21  C   UNK N   1      31.354  50.017  41.421  0.00  0.00     0.020 A 
BRANCH  19  22
HETATM   22  O   UNK N   1      32.971  49.183  44.590  0.00  0.00    -0.361 OA
HETATM   23  H   UNK N   1      33.302  48.284  44.448  0.00  0.00     0.217 HD
ENDBRANCH  19  22
ENDBRANCH  14  16
ENDBRANCH  13  14
ENDBRANCH   1  13
BRANCH   3  24
HETATM   24  O   UNK N   1      29.949  55.253  38.871  0.00  0.00    -0.389 OA
HETATM   25  H   UNK N   1      30.474  56.081  38.722  0.00  0.00     0.210 HD
ENDBRANCH   3  24
BRANCH   3  26
HETATM   26  C   UNK N   1      29.472  55.798  41.197  0.00  0.00     0.012 C 
HETATM   27  C   UNK N   1      31.016  55.809  41.211  0.00  0.00     0.012 C 
HETATM   28  C   UNK N   1      28.986  57.103  41.867  0.00  0.00     0.012 C 
ENDBRANCH   3  26
BRANCH   8  29
HETATM   29  O   UNK N   1      25.134  52.132  37.716  0.00  0.00    -0.391 OA
HETATM   30  H   UNK N   1      25.972  51.627  37.549  0.00  0.00     0.210 HD
ENDBRANCH   8  29
TORSDOF 7
ENDMDL
MODEL 4
REMARK VINA RESULT:      -5.0     12.908     16.812
REMARK  7 active torsions:
REMARK  status: ('A' for Active; 'I' for Inactive)
REMARK    1  A    between atoms: C_2  and  O_3 
REMARK    2  A    between atoms: C_2  and  C_23 
REMARK    3  A    between atoms: O_3  and  C_4 
REMARK    4  A    between atoms: C_6  and  O_7 
REMARK    5  A    between atoms: C_6  and  C_9 
REMARK    6  A    between atoms: C_16  and  O_17 
REMARK    7  A    between atoms: C_26  and  O_27 
ROOT
HETATM    1  C   UNK N   1      41.296  45.721  46.307  0.00  0.00     0.144 C 
HETATM    2  C   UNK N   1      41.213  46.345  47.735  0.00  0.00     0.058 C 
HETATM    3  C   UNK N   1      41.566  45.351  48.919  0.00  0.00     0.067 C 
HETATM    4  C   UNK N   1      42.184  46.273  50.016  0.00  0.00     0.039 C 
HETATM    5  C   UNK N   1      41.877  47.685  49.575  0.00  0.00     0.012 C 
HETATM    6  C   UNK N   1      41.999  47.650  48.035  0.00  0.00    -0.033 C 
HETATM    7  C   UNK N   1      41.290  48.938  47.498  0.00  0.00     0.046 C 
HETATM    8  C   UNK N   1      41.067  49.126  45.989  0.00  0.00     0.147 C 
HETATM    9  C   UNK N   1      40.378  47.935  45.342  0.00  0.00    -0.058 C 
HETATM   10  C   UNK N   1      41.179  46.683  45.115  0.00  0.00     0.069 C 
HETATM   11  C   UNK N   1      39.118  48.026  44.895  0.00  0.00     0.017 C 
HETATM   12  C   UNK N   1      43.485  47.580  47.591  0.00  0.00     0.016 C 
ENDROOT
BRANCH   1  13
HETATM   13  O   UNK N   1      40.335  44.725  46.186  0.00  0.00    -0.311 OA
BRANCH  13  14
HETATM   14  C   UNK N   1      40.525  43.617  45.413  0.00  0.00     0.293 C 
HETATM   15  O   UNK N   1      39.624  43.214  44.690  0.00  0.00    -0.259 OA
BRANCH  14  16
HETATM   16  C   UNK N   1      41.845  42.947  45.372  0.00  0.00     0.039 A 
HETATM   17  C   UNK N   1      42.780  43.316  44.388  0.00  0.00     0.020 A 
HETATM   18  C   UNK N   1      44.058  42.756  44.384  0.00  0.00     0.037 A 
HETATM   19  C   UNK N   1      44.416  41.812  45.354  0.00  0.00     0.065 A 
HETATM   20  C   UNK N   1      43.482  41.420  46.319  0.00  0.00     0.037 A 
HETATM   21  C   UNK N   1      42.201  41.984  46.331  0.00  0.00     0.020 A 
BRANCH  19  22
HETATM   22  O   UNK N   1      45.656  41.285  45.370  0.00  0.00    -0.361 OA
HETATM   23  H   UNK N   1      45.803  40.332  45.281  0.00  0.00     0.217 HD
ENDBRANCH  19  22
ENDBRANCH  14  16
ENDBRANCH  13  14
ENDBRANCH   1  13
BRANCH   3  24
HETATM   24  O   UNK N   1      42.563  44.458  48.464  0.00  0.00    -0.389 OA
HETATM   25  H   UNK N   1      43.062  44.873  47.714  0.00  0.00     0.210 HD
ENDBRANCH   3  24
BRANCH   3  26
HETATM   26  C   UNK N   1      40.322  44.510  49.418  0.00  0.00     0.012 C 
HETATM   27  C   UNK N   1      40.395  44.185  50.926  0.00  0.00     0.012 C 
HETATM   28  C   UNK N   1      38.944  45.154  49.142  0.00  0.00     0.012 C 
ENDBRANCH   3  26
BRANCH   8  29
HETATM   29  O   UNK N   1      42.285  49.404  45.347  0.00  0.00    -0.391 OA
HETATM   30  H   UNK N   1      42.940  49.633  46.058  0.00  0.00     0.210 HD
ENDBRANCH   8  29
TORSDOF 7
ENDMDL
MODEL 5
REMARK VINA RESULT:      -5.0     17.502     21.383
REMARK  7 active torsions:
REMARK  status: ('A' for Active; 'I' for Inactive)
REMARK    1  A    between atoms: C_2  and  O_3 
REMARK    2  A    between atoms: C_2  and  C_23 
REMARK    3  A    between atoms: O_3  and  C_4 
REMARK    4  A    between atoms: C_6  and  O_7 
REMARK    5  A    between atoms: C_6  and  C_9 
REMARK    6  A    between atoms: C_16  and  O_17 
REMARK    7  A    between atoms: C_26  and  O_27 
ROOT
HETATM    1  C   UNK N   1      29.922  43.001  59.628  0.00  0.00     0.144 C 
HETATM    2  C   UNK N   1      30.361  44.455  59.987  0.00  0.00     0.058 C 
HETATM    3  C   UNK N   1      29.470  45.599  59.347  0.00  0.00     0.067 C 
HETATM    4  C   UNK N   1      29.537  46.760  60.388  0.00  0.00     0.039 C 
HETATM    5  C   UNK N   1      30.643  46.379  61.344  0.00  0.00     0.012 C 
HETATM    6  C   UNK N   1      30.533  44.844  61.481  0.00  0.00    -0.033 C 
HETATM    7  C   UNK N   1      31.883  44.349  62.100  0.00  0.00     0.046 C 
HETATM    8  C   UNK N   1      32.182  42.845  62.201  0.00  0.00     0.147 C 
HETATM    9  C   UNK N   1      32.004  42.118  60.877  0.00  0.00    -0.058 C 
HETATM   10  C   UNK N   1      30.607  41.855  60.388  0.00  0.00     0.069 C 
HETATM   11  C   UNK N   1      33.060  41.636  60.208  0.00  0.00     0.017 C 
HETATM   12  C   UNK N   1      29.315  44.445  62.356  0.00  0.00     0.016 C 
ENDROOT
BRANCH   1  13
HETATM   13  O   UNK N   1      30.077  42.801  58.261  0.00  0.00    -0.311 OA
BRANCH  13  14
HETATM   14  C   UNK N   1      29.117  42.202  57.499  0.00  0.00     0.293 C 
HETATM   15  O   UNK N   1      28.092  41.786  58.020  0.00  0.00    -0.259 OA
BRANCH  14  16
HETATM   16  C   UNK N   1      29.266  42.129  56.027  0.00  0.00     0.039 A 
HETATM   17  C   UNK N   1      28.168  42.436  55.202  0.00  0.00     0.020 A 
HETATM   18  C   UNK N   1      28.310  42.453  53.815  0.00  0.00     0.037 A 
HETATM   19  C   UNK N   1      29.546  42.153  53.230  0.00  0.00     0.065 A 
HETATM   20  C   UNK N   1      30.636  41.819  54.042  0.00  0.00     0.037 A 
HETATM   21  C   UNK N   1      30.499  41.808  55.435  0.00  0.00     0.020 A 
BRANCH  19  22
HETATM   22  O   UNK N   1      29.697  42.190  51.891  0.00  0.00    -0.361 OA
HETATM   23  H   UNK N   1      29.150  42.765  51.336  0.00  0.00     0.217 HD
ENDBRANCH  19  22
ENDBRANCH  14  16
ENDBRANCH  13  14
ENDBRANCH   1  13
BRANCH   3  24
HETATM   24  O   UNK N   1      28.137  45.133  59.274  0.00  0.00    -0.389 OA
HETATM   25  H   UNK N   1      27.653  45.621  58.559  0.00  0.00     0.210 HD
ENDBRANCH   3  24
BRANCH   3  26
HETATM   26  C   UNK N   1      29.940  46.016  57.895  0.00  0.00     0.012 C 
HETATM   27  C   UNK N   1      29.813  47.535  57.645  0.00  0.00     0.012 C 
HETATM   28  C   UNK N   1      31.383  45.600  57.530  0.00  0.00     0.012 C 
ENDBRANCH   3  26
BRANCH   8  29
HETATM   29  O   UNK N   1      31.388  42.257  63.200  0.00  0.00    -0.391 OA
HETATM   30  H   UNK N   1      30.655  42.896  63.398  0.00  0.00     0.210 HD
ENDBRANCH   8  29
TORSDOF 7
ENDMDL
MODEL 6
REMARK VINA RESULT:      -5.0     16.693     20.781
REMARK  7 active torsions:
REMARK  status: ('A' for Active; 'I' for Inactive)
REMARK    1  A    between atoms: C_2  and  O_3 
REMARK    2  A    between atoms: C_2  and  C_23 
REMARK    3  A    between atoms: O_3  and  C_4 
REMARK    4  A    between atoms: C_6  and  O_7 
REMARK    5  A    between atoms: C_6  and  C_9 
REMARK    6  A    between atoms: C_16  and  O_17 
REMARK    7  A    between atoms: C_26  and  O_27 
ROOT
HETATM    1  C   UNK N   1      30.557  42.219  56.917  0.00  0.00     0.144 C 
HETATM    2  C   UNK N   1      29.408  42.081  57.964  0.00  0.00     0.058 C 
HETATM    3  C   UNK N   1      28.378  40.911  57.675  0.00  0.00     0.067 C 
HETATM    4  C   UNK N   1      27.904  40.464  59.093  0.00  0.00     0.039 C 
HETATM    5  C   UNK N   1      28.396  41.536  60.038  0.00  0.00     0.012 C 
HETATM    6  C   UNK N   1      29.769  41.960  59.470  0.00  0.00    -0.033 C 
HETATM    7  C   UNK N   1      30.127  43.332  60.135  0.00  0.00     0.046 C 
HETATM    8  C   UNK N   1      31.348  44.129  59.652  0.00  0.00     0.147 C 
HETATM    9  C   UNK N   1      31.353  44.347  58.147  0.00  0.00    -0.058 C 
HETATM   10  C   UNK N   1      31.701  43.187  57.257  0.00  0.00     0.069 C 
HETATM   11  C   UNK N   1      31.148  45.565  57.626  0.00  0.00     0.017 C 
HETATM   12  C   UNK N   1      30.850  40.882  59.750  0.00  0.00     0.016 C 
ENDROOT
BRANCH   1  13
HETATM   13  O   UNK N   1      30.015  42.566  55.686  0.00  0.00    -0.311 OA
BRANCH  13  14
HETATM   14  C   UNK N   1      30.306  41.881  54.542  0.00  0.00     0.293 C 
HETATM   15  O   UNK N   1      31.414  41.386  54.390  0.00  0.00    -0.259 OA
BRANCH  14  16
HETATM   16  C   UNK N   1      29.261  41.654  53.517  0.00  0.00     0.039 A 
HETATM   17  C   UNK N   1      29.228  42.465  52.368  0.00  0.00     0.020 A 
HETATM   18  C   UNK N   1      28.304  42.215  51.354  0.00  0.00     0.037 A 
HETATM   19  C   UNK N   1      27.391  41.160  51.478  0.00  0.00     0.065 A 
HETATM   20  C   UNK N   1      27.399  40.367  52.630  0.00  0.00     0.037 A 
HETATM   21  C   UNK N   1      28.329  40.610  53.647  0.00  0.00     0.020 A 
BRANCH  19  22
HETATM   22  O   UNK N   1      26.511  40.898  50.491  0.00  0.00    -0.361 OA
HETATM   23  H   UNK N   1      26.751  40.350  49.730  0.00  0.00     0.217 HD
ENDBRANCH  19  22
ENDBRANCH  14  16
ENDBRANCH  13  14
ENDBRANCH   1  13
BRANCH   3  24
HETATM   24  O   UNK N   1      29.083  39.841  57.076  0.00  0.00    -0.389 OA
HETATM   25  H   UNK N   1      29.462  40.138  56.209  0.00  0.00     0.210 HD
ENDBRANCH   3  24
BRANCH   3  26
HETATM   26  C   UNK N   1      27.198  41.342  56.715  0.00  0.00     0.012 C 
HETATM   27  C   UNK N   1      25.944  40.456  56.882  0.00  0.00     0.012 C 
HETATM   28  C   UNK N   1      26.753  42.816  56.846  0.00  0.00     0.012 C 
ENDBRANCH   3  26
BRANCH   8  29
HETATM   29  O   UNK N   1      32.535  43.501  60.065  0.00  0.00    -0.391 OA
HETATM   30  H   UNK N   1      32.990  44.127  60.688  0.00  0.00     0.210 HD
ENDBRANCH   8  29
TORSDOF 7
ENDMDL
MODEL 7
REMARK VINA RESULT:      -4.8     17.256     21.872
REMARK  7 active torsions:
REMARK  status: ('A' for Active; 'I' for Inactive)
REMARK    1  A    between atoms: C_2  and  O_3 
REMARK    2  A    between atoms: C_2  and  C_23 
REMARK    3  A    between atoms: O_3  and  C_4 
REMARK    4  A    between atoms: C_6  and  O_7 
REMARK    5  A    between atoms: C_6  and  C_9 
REMARK    6  A    between atoms: C_16  and  O_17 
REMARK    7  A    between atoms: C_26  and  O_27 
ROOT
HETATM    1  C   UNK N   1      30.963  45.095  60.237  0.00  0.00     0.144 C 
HETATM    2  C   UNK N   1      30.842  43.545  60.372  0.00  0.00     0.058 C 
HETATM    3  C   UNK N   1      31.330  42.724  59.107  0.00  0.00     0.067 C 
HETATM    4  C   UNK N   1      31.864  41.386  59.706  0.00  0.00     0.039 C 
HETATM    5  C   UNK N   1      31.392  41.370  61.141  0.00  0.00     0.012 C 
HETATM    6  C   UNK N   1      31.483  42.842  61.600  0.00  0.00    -0.033 C 
HETATM    7  C   UNK N   1      30.622  42.962  62.902  0.00  0.00     0.046 C 
HETATM    8  C   UNK N   1      30.345  44.340  63.523  0.00  0.00     0.147 C 
HETATM    9  C   UNK N   1      29.781  45.335  62.522  0.00  0.00    -0.058 C 
HETATM   10  C   UNK N   1      30.712  45.930  61.502  0.00  0.00     0.069 C 
HETATM   11  C   UNK N   1      28.510  45.750  62.603  0.00  0.00     0.017 C 
HETATM   12  C   UNK N   1      32.957  43.265  61.841  0.00  0.00     0.016 C 
ENDROOT
BRANCH   1  13
HETATM   13  O   UNK N   1      30.117  45.533  59.225  0.00  0.00    -0.311 OA
BRANCH  13  14
HETATM   14  C   UNK N   1      30.539  46.368  58.232  0.00  0.00     0.293 C 
HETATM   15  O   UNK N   1      31.232  45.936  57.322  0.00  0.00    -0.259 OA
BRANCH  14  16
HETATM   16  C   UNK N   1      30.090  47.780  58.198  0.00  0.00     0.039 A 
HETATM   17  C   UNK N   1      29.493  48.346  59.339  0.00  0.00     0.020 A 
HETATM   18  C   UNK N   1      29.138  49.694  59.354  0.00  0.00     0.037 A 
HETATM   19  C   UNK N   1      29.365  50.494  58.227  0.00  0.00     0.065 A 
HETATM   20  C   UNK N   1      29.932  49.932  57.079  0.00  0.00     0.037 A 
HETATM   21  C   UNK N   1      30.296  48.581  57.062  0.00  0.00     0.020 A 
BRANCH  19  22
HETATM   22  O   UNK N   1      29.046  51.804  58.243  0.00  0.00    -0.361 OA
HETATM   23  H   UNK N   1      29.408  52.422  57.592  0.00  0.00     0.217 HD
ENDBRANCH  19  22
ENDBRANCH  14  16
ENDBRANCH  13  14
ENDBRANCH   1  13
BRANCH   3  24
HETATM   24  O   UNK N   1      32.411  43.420  58.519  0.00  0.00    -0.389 OA
HETATM   25  H   UNK N   1      33.115  42.774  58.251  0.00  0.00     0.210 HD
ENDBRANCH   3  24
BRANCH   3  26
HETATM   26  C   UNK N   1      30.200  42.529  58.017  0.00  0.00     0.012 C 
HETATM   27  C   UNK N   1      30.750  42.593  56.575  0.00  0.00     0.012 C 
HETATM   28  C   UNK N   1      29.381  41.225  58.150  0.00  0.00     0.012 C 
ENDBRANCH   3  26
BRANCH   8  29
HETATM   29  O   UNK N   1      31.511  44.846  64.123  0.00  0.00    -0.391 OA
HETATM   30  H   UNK N   1      32.167  44.999  63.393  0.00  0.00     0.210 HD
ENDBRANCH   8  29
TORSDOF 7
ENDMDL
MODEL 8
REMARK VINA RESULT:      -4.8     18.616     21.306
REMARK  7 active torsions:
REMARK  status: ('A' for Active; 'I' for Inactive)
REMARK    1  A    between atoms: C_2  and  O_3 
REMARK    2  A    between atoms: C_2  and  C_23 
REMARK    3  A    between atoms: O_3  and  C_4 
REMARK    4  A    between atoms: C_6  and  O_7 
REMARK    5  A    between atoms: C_6  and  C_9 
REMARK    6  A    between atoms: C_16  and  O_17 
REMARK    7  A    between atoms: C_26  and  O_27 
ROOT
HETATM    1  C   UNK N   1      29.829  42.358  57.538  0.00  0.00     0.144 C 
HETATM    2  C   UNK N   1      29.668  40.852  57.916  0.00  0.00     0.058 C 
HETATM    3  C   UNK N   1      29.677  40.550  59.473  0.00  0.00     0.067 C 
HETATM    4  C   UNK N   1      28.760  39.296  59.621  0.00  0.00     0.039 C 
HETATM    5  C   UNK N   1      28.550  38.782  58.216  0.00  0.00     0.012 C 
HETATM    6  C   UNK N   1      28.466  40.053  57.342  0.00  0.00    -0.033 C 
HETATM    7  C   UNK N   1      28.678  39.595  55.860  0.00  0.00     0.046 C 
HETATM    8  C   UNK N   1      28.838  40.638  54.743  0.00  0.00     0.147 C 
HETATM    9  C   UNK N   1      29.912  41.670  55.049  0.00  0.00    -0.058 C 
HETATM   10  C   UNK N   1      29.611  42.736  56.065  0.00  0.00     0.069 C 
HETATM   11  C   UNK N   1      31.062  41.692  54.363  0.00  0.00     0.017 C 
HETATM   12  C   UNK N   1      27.108  40.778  57.534  0.00  0.00     0.016 C 
ENDROOT
BRANCH   1  13
HETATM   13  O   UNK N   1      31.082  42.800  57.943  0.00  0.00    -0.311 OA
BRANCH  13  14
HETATM   14  C   UNK N   1      31.525  44.066  57.694  0.00  0.00     0.293 C 
HETATM   15  O   UNK N   1      32.421  44.252  56.882  0.00  0.00    -0.259 OA
BRANCH  14  16
HETATM   16  C   UNK N   1      30.869  45.230  58.333  0.00  0.00     0.039 A 
HETATM   17  C   UNK N   1      30.542  45.178  59.700  0.00  0.00     0.020 A 
HETATM   18  C   UNK N   1      29.998  46.292  60.339  0.00  0.00     0.037 A 
HETATM   19  C   UNK N   1      29.763  47.471  59.619  0.00  0.00     0.065 A 
HETATM   20  C   UNK N   1      30.060  47.521  58.253  0.00  0.00     0.037 A 
HETATM   21  C   UNK N   1      30.611  46.407  57.610  0.00  0.00     0.020 A 
BRANCH  19  22
HETATM   22  O   UNK N   1      29.261  48.559  60.235  0.00  0.00    -0.361 OA
HETATM   23  H   UNK N   1      29.804  49.106  60.822  0.00  0.00     0.217 HD
ENDBRANCH  19  22
ENDBRANCH  14  16
ENDBRANCH  13  14
ENDBRANCH   1  13
BRANCH   3  24
HETATM   24  O   UNK N   1      29.067  41.639  60.138  0.00  0.00    -0.389 OA
HETATM   25  H   UNK N   1      28.813  42.332  59.475  0.00  0.00     0.210 HD
ENDBRANCH   3  24
BRANCH   3  26
HETATM   26  C   UNK N   1      31.132  40.349  60.060  0.00  0.00     0.012 C 
HETATM   27  C   UNK N   1      31.494  41.408  61.124  0.00  0.00     0.012 C 
HETATM   28  C   UNK N   1      31.404  38.956  60.672  0.00  0.00     0.012 C 
ENDBRANCH   3  26
BRANCH   8  29
HETATM   29  O   UNK N   1      27.608  41.265  54.483  0.00  0.00    -0.391 OA
HETATM   30  H   UNK N   1      27.538  41.364  53.497  0.00  0.00     0.210 HD
ENDBRANCH   8  29
TORSDOF 7
ENDMDL
MODEL 9
REMARK VINA RESULT:      -4.8     17.350     21.726
REMARK  7 active torsions:
REMARK  status: ('A' for Active; 'I' for Inactive)
REMARK    1  A    between atoms: C_2  and  O_3 
REMARK    2  A    between atoms: C_2  and  C_23 
REMARK    3  A    between atoms: O_3  and  C_4 
REMARK    4  A    between atoms: C_6  and  O_7 
REMARK    5  A    between atoms: C_6  and  C_9 
REMARK    6  A    between atoms: C_16  and  O_17 
REMARK    7  A    between atoms: C_26  and  O_27 
ROOT
HETATM    1  C   UNK N   1      29.093  40.793  57.752  0.00  0.00     0.144 C 
HETATM    2  C   UNK N   1      30.346  40.740  58.681  0.00  0.00     0.058 C 
HETATM    3  C   UNK N   1      30.844  42.148  59.212  0.00  0.00     0.067 C 
HETATM    4  C   UNK N   1      31.464  41.829  60.608  0.00  0.00     0.039 C 
HETATM    5  C   UNK N   1      31.579  40.324  60.664  0.00  0.00     0.012 C 
HETATM    6  C   UNK N   1      30.326  39.807  59.923  0.00  0.00    -0.033 C 
HETATM    7  C   UNK N   1      30.596  38.305  59.575  0.00  0.00     0.046 C 
HETATM    8  C   UNK N   1      29.622  37.533  58.671  0.00  0.00     0.147 C 
HETATM    9  C   UNK N   1      29.339  38.251  57.361  0.00  0.00    -0.058 C 
HETATM   10  C   UNK N   1      28.437  39.453  57.385  0.00  0.00     0.069 C 
HETATM   11  C   UNK N   1      29.800  37.771  56.198  0.00  0.00     0.017 C 
HETATM   12  C   UNK N   1      29.050  39.979  60.791  0.00  0.00     0.016 C 
ENDROOT
BRANCH   1  13
HETATM   13  O   UNK N   1      29.417  41.478  56.587  0.00  0.00    -0.311 OA
BRANCH  13  14
HETATM   14  C   UNK N   1      28.607  42.441  56.059  0.00  0.00     0.293 C 
HETATM   15  O   UNK N   1      28.167  43.331  56.775  0.00  0.00    -0.259 OA
BRANCH  14  16
HETATM   16  C   UNK N   1      28.327  42.471  54.605  0.00  0.00     0.039 A 
HETATM   17  C   UNK N   1      27.087  42.955  54.148  0.00  0.00     0.020 A 
HETATM   18  C   UNK N   1      26.835  43.067  52.781  0.00  0.00     0.037 A 
HETATM   19  C   UNK N   1      27.811  42.688  51.851  0.00  0.00     0.065 A 
HETATM   20  C   UNK N   1      29.036  42.180  52.298  0.00  0.00     0.037 A 
HETATM   21  C   UNK N   1      29.296  42.072  53.669  0.00  0.00     0.020 A 
BRANCH  19  22
HETATM   22  O   UNK N   1      27.583  42.816  50.529  0.00  0.00    -0.361 OA
HETATM   23  H   UNK N   1      28.183  42.434  49.872  0.00  0.00     0.217 HD
ENDBRANCH  19  22
ENDBRANCH  14  16
ENDBRANCH  13  14
ENDBRANCH   1  13
BRANCH   3  24
HETATM   24  O   UNK N   1      29.712  42.975  59.398  0.00  0.00    -0.389 OA
HETATM   25  H   UNK N   1      29.106  42.888  58.617  0.00  0.00     0.210 HD
ENDBRANCH   3  24
BRANCH   3  26
HETATM   26  C   UNK N   1      31.843  42.870  58.221  0.00  0.00     0.012 C 
HETATM   27  C   UNK N   1      31.380  44.295  57.847  0.00  0.00     0.012 C 
HETATM   28  C   UNK N   1      33.303  42.966  58.718  0.00  0.00     0.012 C 
ENDBRANCH   3  26
BRANCH   8  29
HETATM   29  O   UNK N   1      28.426  37.266  59.359  0.00  0.00    -0.391 OA
HETATM   30  H   UNK N   1      28.676  37.033  60.291  0.00  0.00     0.210 HD
ENDBRANCH   8  29
TORSDOF 7
ENDMDL
