MODEL 1
REMARK VINA RESULT:      -6.8      0.000      0.000
REMARK  8 active torsions:
REMARK  status: ('A' for Active; 'I' for Inactive)
REMARK    1  A    between atoms: C_6  and  C_7 
REMARK    2  A    between atoms: C_9  and  C_20 
REMARK    3  A    between atoms: C_10  and  O_11 
REMARK    4  A    between atoms: C_13  and  C_15 
REMARK    5  A    between atoms: C_15  and  C_16 
REMARK    6  A    between atoms: C_20  and  C_21 
REMARK    7  A    between atoms: C_27  and  O_28 
REMARK    8  A    between atoms: C_31  and  O_32 
ROOT
HETATM    1  C   UNK N   1      31.288  54.530  42.973  0.00  0.00    -0.027 A 
HETATM    2  C   UNK N   1      31.199  53.169  43.281  0.00  0.00     0.020 A 
HETATM    3  C   UNK N   1      32.116  52.540  44.150  0.00  0.00    -0.020 A 
HETATM    4  C   UNK N   1      33.138  53.346  44.765  0.00  0.00     0.081 A 
HETATM    5  C   UNK N   1      33.224  54.722  44.430  0.00  0.00    -0.020 A 
HETATM    6  C   UNK N   1      32.318  55.294  43.528  0.00  0.00     0.020 A 
ENDROOT
BRANCH   1   7
HETATM    7  C   UNK N   1      30.275  55.141  42.029  0.00  0.00     0.169 C 
HETATM    8  O   UNK N   1      29.095  54.402  42.006  0.00  0.00    -0.340 OA
HETATM    9  C   UNK N   1      27.999  54.828  41.314  0.00  0.00     0.089 A 
HETATM   10  C   UNK N   1      27.899  56.176  40.910  0.00  0.00     0.076 A 
HETATM   11  C   UNK N   1      26.990  53.920  40.983  0.00  0.00     0.074 A 
HETATM   12  C   UNK N   1      28.982  57.098  41.342  0.00  0.00     0.167 C 
HETATM   13  C   UNK N   1      26.808  56.592  40.118  0.00  0.00     0.085 A 
HETATM   14  O   UNK N   1      29.105  58.213  40.859  0.00  0.00    -0.292 OA
HETATM   15  C   UNK N   1      29.963  56.601  42.373  0.00  0.00     0.121 C 
HETATM   16  C   UNK N   1      25.812  55.663  39.775  0.00  0.00     0.074 A 
HETATM   17  C   UNK N   1      25.897  54.334  40.214  0.00  0.00     0.071 A 
BRANCH  13  18
HETATM   18  O   UNK N   1      26.716  57.869  39.696  0.00  0.00    -0.360 OA
HETATM   19  H   UNK N   1      27.017  58.610  40.242  0.00  0.00     0.217 HD
ENDBRANCH  13  18
BRANCH  17  20
HETATM   20  O   UNK N   1      24.937  53.441  39.892  0.00  0.00    -0.361 OA
HETATM   21  H   UNK N   1      25.065  52.788  39.190  0.00  0.00     0.217 HD
ENDBRANCH  17  20
ENDBRANCH   1   7
BRANCH   3  22
HETATM   22  C   UNK N   1      32.043  51.023  44.342  0.00  0.00     0.068 C 
BRANCH  22  23
HETATM   23  C   UNK N   1      31.526  50.214  43.168  0.00  0.00    -0.020 C 
HETATM   24  C   UNK N   1      32.165  49.150  42.624  0.00  0.00    -0.091 C 
HETATM   25  C   UNK N   1      31.542  48.428  41.457  0.00  0.00     0.042 C 
HETATM   26  C   UNK N   1      33.504  48.655  43.115  0.00  0.00     0.042 C 
ENDBRANCH  22  23
ENDBRANCH   3  22
BRANCH   5  27
HETATM   27  C   UNK N   1      34.297  55.601  45.042  0.00  0.00     0.068 C 
BRANCH  27  28
HETATM   28  C   UNK N   1      33.686  56.530  46.066  0.00  0.00    -0.020 C 
HETATM   29  C   UNK N   1      34.247  56.931  47.235  0.00  0.00    -0.091 C 
HETATM   30  C   UNK N   1      33.491  57.899  48.112  0.00  0.00     0.042 C 
HETATM   31  C   UNK N   1      35.598  56.477  47.731  0.00  0.00     0.042 C 
ENDBRANCH  27  28
ENDBRANCH   5  27
BRANCH   4  32
HETATM   32  O   UNK N   1      34.070  52.881  45.654  0.00  0.00    -0.355 OA
HETATM   33  C   UNK N   1      34.751  51.685  45.705  0.00  0.00     0.210 C 
ENDBRANCH   4  32
TORSDOF 8
ENDMDL
MODEL 2
REMARK VINA RESULT:      -6.6      1.350      2.307
REMARK  8 active torsions:
REMARK  status: ('A' for Active; 'I' for Inactive)
REMARK    1  A    between atoms: C_6  and  C_7 
REMARK    2  A    between atoms: C_9  and  C_20 
REMARK    3  A    between atoms: C_10  and  O_11 
REMARK    4  A    between atoms: C_13  and  C_15 
REMARK    5  A    between atoms: C_15  and  C_16 
REMARK    6  A    between atoms: C_20  and  C_21 
REMARK    7  A    between atoms: C_27  and  O_28 
REMARK    8  A    between atoms: C_31  and  O_32 
ROOT
HETATM    1  C   UNK N   1      31.090  55.016  43.327  0.00  0.00    -0.027 A 
HETATM    2  C   UNK N   1      31.077  53.618  43.298  0.00  0.00     0.020 A 
HETATM    3  C   UNK N   1      32.114  52.852  43.874  0.00  0.00    -0.020 A 
HETATM    4  C   UNK N   1      33.182  53.543  44.547  0.00  0.00     0.081 A 
HETATM    5  C   UNK N   1      33.187  54.962  44.554  0.00  0.00    -0.020 A 
HETATM    6  C   UNK N   1      32.159  55.682  43.931  0.00  0.00     0.020 A 
ENDROOT
BRANCH   1   7
HETATM    7  C   UNK N   1      29.949  55.777  42.686  0.00  0.00     0.169 C 
HETATM    8  O   UNK N   1      30.304  56.259  41.428  0.00  0.00    -0.340 OA
HETATM    9  C   UNK N   1      29.398  56.875  40.617  0.00  0.00     0.089 A 
HETATM   10  C   UNK N   1      28.016  56.725  40.860  0.00  0.00     0.076 A 
HETATM   11  C   UNK N   1      29.842  57.678  39.563  0.00  0.00     0.074 A 
HETATM   12  C   UNK N   1      27.614  55.815  41.964  0.00  0.00     0.167 C 
HETATM   13  C   UNK N   1      27.085  57.437  40.075  0.00  0.00     0.085 A 
HETATM   14  O   UNK N   1      26.472  55.797  42.396  0.00  0.00    -0.292 OA
HETATM   15  C   UNK N   1      28.675  54.934  42.575  0.00  0.00     0.121 C 
HETATM   16  C   UNK N   1      27.546  58.256  39.032  0.00  0.00     0.074 A 
HETATM   17  C   UNK N   1      28.919  58.370  38.770  0.00  0.00     0.071 A 
BRANCH  13  18
HETATM   18  O   UNK N   1      25.762  57.330  40.316  0.00  0.00    -0.360 OA
HETATM   19  H   UNK N   1      25.387  57.511  41.191  0.00  0.00     0.217 HD
ENDBRANCH  13  18
BRANCH  17  20
HETATM   20  O   UNK N   1      29.364  59.151  37.764  0.00  0.00    -0.361 OA
HETATM   21  H   UNK N   1      29.606  58.782  36.902  0.00  0.00     0.217 HD
ENDBRANCH  17  20
ENDBRANCH   1   7
BRANCH   3  22
HETATM   22  C   UNK N   1      32.108  51.333  43.692  0.00  0.00     0.068 C 
BRANCH  22  23
HETATM   23  C   UNK N   1      31.511  50.805  42.402  0.00  0.00    -0.020 C 
HETATM   24  C   UNK N   1      31.647  49.533  41.954  0.00  0.00    -0.091 C 
HETATM   25  C   UNK N   1      31.002  49.132  40.652  0.00  0.00     0.042 C 
HETATM   26  C   UNK N   1      32.448  48.482  42.686  0.00  0.00     0.042 C 
ENDBRANCH  22  23
ENDBRANCH   3  22
BRANCH   5  27
HETATM   27  C   UNK N   1      34.303  55.728  45.237  0.00  0.00     0.068 C 
BRANCH  27  28
HETATM   28  C   UNK N   1      33.727  56.724  46.216  0.00  0.00    -0.020 C 
HETATM   29  C   UNK N   1      34.259  57.091  47.409  0.00  0.00    -0.091 C 
HETATM   30  C   UNK N   1      33.550  58.137  48.234  0.00  0.00     0.042 C 
HETATM   31  C   UNK N   1      35.536  56.525  47.982  0.00  0.00     0.042 C 
ENDBRANCH  27  28
ENDBRANCH   5  27
BRANCH   4  32
HETATM   32  O   UNK N   1      34.231  52.933  45.180  0.00  0.00    -0.355 OA
HETATM   33  C   UNK N   1      34.478  51.603  45.440  0.00  0.00     0.210 C 
ENDBRANCH   4  32
TORSDOF 8
ENDMDL
MODEL 3
REMARK VINA RESULT:      -6.4      2.564      3.951
REMARK  8 active torsions:
REMARK  status: ('A' for Active; 'I' for Inactive)
REMARK    1  A    between atoms: C_6  and  C_7 
REMARK    2  A    between atoms: C_9  and  C_20 
REMARK    3  A    between atoms: C_10  and  O_11 
REMARK    4  A    between atoms: C_13  and  C_15 
REMARK    5  A    between atoms: C_15  and  C_16 
REMARK    6  A    between atoms: C_20  and  C_21 
REMARK    7  A    between atoms: C_27  and  O_28 
REMARK    8  A    between atoms: C_31  and  O_32 
ROOT
HETATM    1  C   UNK N   1      30.498  51.342  40.806  0.00  0.00    -0.027 A 
HETATM    2  C   UNK N   1      30.383  49.961  40.620  0.00  0.00     0.020 A 
HETATM    3  C   UNK N   1      31.143  49.042  41.376  0.00  0.00    -0.020 A 
HETATM    4  C   UNK N   1      32.020  49.554  42.395  0.00  0.00     0.081 A 
HETATM    5  C   UNK N   1      32.136  50.959  42.561  0.00  0.00    -0.020 A 
HETATM    6  C   UNK N   1      31.395  51.835  41.757  0.00  0.00     0.020 A 
ENDROOT
BRANCH   1   7
HETATM    7  C   UNK N   1      29.659  52.273  39.958  0.00  0.00     0.169 C 
HETATM    8  O   UNK N   1      28.610  52.821  40.694  0.00  0.00    -0.340 OA
HETATM    9  C   UNK N   1      27.791  53.776  40.167  0.00  0.00     0.089 A 
HETATM   10  C   UNK N   1      28.190  54.494  39.020  0.00  0.00     0.076 A 
HETATM   11  C   UNK N   1      26.546  54.022  40.751  0.00  0.00     0.074 A 
HETATM   12  C   UNK N   1      29.548  54.219  38.483  0.00  0.00     0.167 C 
HETATM   13  C   UNK N   1      27.302  55.417  38.427  0.00  0.00     0.085 A 
HETATM   14  O   UNK N   1      29.892  54.612  37.379  0.00  0.00    -0.292 OA
HETATM   15  C   UNK N   1      30.488  53.396  39.327  0.00  0.00     0.121 C 
HETATM   16  C   UNK N   1      26.046  55.638  39.013  0.00  0.00     0.074 A 
HETATM   17  C   UNK N   1      25.671  54.951  40.177  0.00  0.00     0.071 A 
BRANCH  13  18
HETATM   18  O   UNK N   1      27.656  56.086  37.310  0.00  0.00    -0.360 OA
HETATM   19  H   UNK N   1      28.244  55.696  36.647  0.00  0.00     0.217 HD
ENDBRANCH  13  18
BRANCH  17  20
HETATM   20  O   UNK N   1      24.467  55.168  40.745  0.00  0.00    -0.361 OA
HETATM   21  H   UNK N   1      24.229  56.029  41.119  0.00  0.00     0.217 HD
ENDBRANCH  17  20
ENDBRANCH   1   7
BRANCH   3  22
HETATM   22  C   UNK N   1      31.069  47.552  41.032  0.00  0.00     0.068 C 
BRANCH  22  23
HETATM   23  C   UNK N   1      30.895  47.200  39.567  0.00  0.00    -0.020 C 
HETATM   24  C   UNK N   1      30.978  45.945  39.061  0.00  0.00    -0.091 C 
HETATM   25  C   UNK N   1      30.784  45.728  37.583  0.00  0.00     0.042 C 
HETATM   26  C   UNK N   1      31.286  44.734  39.909  0.00  0.00     0.042 C 
ENDBRANCH  22  23
ENDBRANCH   3  22
BRANCH   5  27
HETATM   27  C   UNK N   1      33.062  51.539  43.610  0.00  0.00     0.068 C 
BRANCH  27  28
HETATM   28  C   UNK N   1      32.303  52.493  44.503  0.00  0.00    -0.020 C 
HETATM   29  C   UNK N   1      32.616  53.789  44.760  0.00  0.00    -0.091 C 
HETATM   30  C   UNK N   1      31.707  54.595  45.654  0.00  0.00     0.042 C 
HETATM   31  C   UNK N   1      33.827  54.498  44.204  0.00  0.00     0.042 C 
ENDBRANCH  27  28
ENDBRANCH   5  27
BRANCH   4  32
HETATM   32  O   UNK N   1      32.786  48.783  43.226  0.00  0.00    -0.355 OA
HETATM   33  C   UNK N   1      34.110  48.409  43.145  0.00  0.00     0.210 C 
ENDBRANCH   4  32
TORSDOF 8
ENDMDL
MODEL 4
REMARK VINA RESULT:      -6.3     15.530     18.211
REMARK  8 active torsions:
REMARK  status: ('A' for Active; 'I' for Inactive)
REMARK    1  A    between atoms: C_6  and  C_7 
REMARK    2  A    between atoms: C_9  and  C_20 
REMARK    3  A    between atoms: C_10  and  O_11 
REMARK    4  A    between atoms: C_13  and  C_15 
REMARK    5  A    between atoms: C_15  and  C_16 
REMARK    6  A    between atoms: C_20  and  C_21 
REMARK    7  A    between atoms: C_27  and  O_28 
REMARK    8  A    between atoms: C_31  and  O_32 
ROOT
HETATM    1  C   UNK N   1      29.885  44.751  58.993  0.00  0.00    -0.027 A 
HETATM    2  C   UNK N   1      29.633  43.670  58.142  0.00  0.00     0.020 A 
HETATM    3  C   UNK N   1      30.195  42.395  58.370  0.00  0.00    -0.020 A 
HETATM    4  C   UNK N   1      31.009  42.207  59.541  0.00  0.00     0.081 A 
HETATM    5  C   UNK N   1      31.268  43.317  60.386  0.00  0.00    -0.020 A 
HETATM    6  C   UNK N   1      30.724  44.576  60.096  0.00  0.00     0.020 A 
ENDROOT
BRANCH   1   7
HETATM    7  C   UNK N   1      29.255  46.093  58.688  0.00  0.00     0.169 C 
HETATM    8  O   UNK N   1      30.065  46.853  57.848  0.00  0.00    -0.340 OA
HETATM    9  C   UNK N   1      29.647  48.051  57.347  0.00  0.00     0.089 A 
HETATM   10  C   UNK N   1      28.276  48.384  57.361  0.00  0.00     0.076 A 
HETATM   11  C   UNK N   1      30.584  48.959  56.846  0.00  0.00     0.074 A 
HETATM   12  C   UNK N   1      27.331  47.352  57.859  0.00  0.00     0.167 C 
HETATM   13  C   UNK N   1      27.860  49.660  56.925  0.00  0.00     0.085 A 
HETATM   14  O   UNK N   1      26.169  47.620  58.123  0.00  0.00    -0.292 OA
HETATM   15  C   UNK N   1      27.859  45.955  58.073  0.00  0.00     0.121 C 
HETATM   16  C   UNK N   1      28.815  50.569  56.444  0.00  0.00     0.074 A 
HETATM   17  C   UNK N   1      30.172  50.218  56.394  0.00  0.00     0.071 A 
BRANCH  13  18
HETATM   18  O   UNK N   1      26.556  50.005  56.965  0.00  0.00    -0.360 OA
HETATM   19  H   UNK N   1      26.207  50.605  57.640  0.00  0.00     0.217 HD
ENDBRANCH  13  18
BRANCH  17  20
HETATM   20  O   UNK N   1      31.090  51.088  55.925  0.00  0.00    -0.361 OA
HETATM   21  H   UNK N   1      31.810  50.803  55.344  0.00  0.00     0.217 HD
ENDBRANCH  17  20
ENDBRANCH   1   7
BRANCH   3  22
HETATM   22  C   UNK N   1      29.988  41.292  57.331  0.00  0.00     0.068 C 
BRANCH  22  23
HETATM   23  C   UNK N   1      29.153  41.650  56.116  0.00  0.00    -0.020 C 
HETATM   24  C   UNK N   1      29.648  41.832  54.868  0.00  0.00    -0.091 C 
HETATM   25  C   UNK N   1      28.709  42.185  53.742  0.00  0.00     0.042 C 
HETATM   26  C   UNK N   1      31.118  41.726  54.541  0.00  0.00     0.042 C 
ENDBRANCH  22  23
ENDBRANCH   3  22
BRANCH   5  27
HETATM   27  C   UNK N   1      32.136  43.165  61.620  0.00  0.00     0.068 C 
BRANCH  27  28
HETATM   28  C   UNK N   1      33.569  43.515  61.294  0.00  0.00    -0.020 C 
HETATM   29  C   UNK N   1      34.492  44.034  62.143  0.00  0.00    -0.091 C 
HETATM   30  C   UNK N   1      35.892  44.281  61.637  0.00  0.00     0.042 C 
HETATM   31  C   UNK N   1      34.218  44.386  63.585  0.00  0.00     0.042 C 
ENDBRANCH  27  28
ENDBRANCH   5  27
BRANCH   4  32
HETATM   32  O   UNK N   1      31.588  41.022  59.909  0.00  0.00    -0.355 OA
HETATM   33  C   UNK N   1      31.057  39.912  60.529  0.00  0.00     0.210 C 
ENDBRANCH   4  32
TORSDOF 8
ENDMDL
MODEL 5
REMARK VINA RESULT:      -6.3     15.619     18.836
REMARK  8 active torsions:
REMARK  status: ('A' for Active; 'I' for Inactive)
REMARK    1  A    between atoms: C_6  and  C_7 
REMARK    2  A    between atoms: C_9  and  C_20 
REMARK    3  A    between atoms: C_10  and  O_11 
REMARK    4  A    between atoms: C_13  and  C_15 
REMARK    5  A    between atoms: C_15  and  C_16 
REMARK    6  A    between atoms: C_20  and  C_21 
REMARK    7  A    between atoms: C_27  and  O_28 
REMARK    8  A    between atoms: C_31  and  O_32 
ROOT
HETATM    1  C   UNK N   1      30.231  45.541  59.168  0.00  0.00    -0.027 A 
HETATM    2  C   UNK N   1      30.476  45.378  60.535  0.00  0.00     0.020 A 
HETATM    3  C   UNK N   1      30.329  46.444  61.450  0.00  0.00    -0.020 A 
HETATM    4  C   UNK N   1      29.868  47.713  60.953  0.00  0.00     0.081 A 
HETATM    5  C   UNK N   1      29.638  47.865  59.560  0.00  0.00    -0.020 A 
HETATM    6  C   UNK N   1      29.839  46.791  58.683  0.00  0.00     0.020 A 
ENDROOT
BRANCH   1   7
HETATM    7  C   UNK N   1      30.413  44.358  58.241  0.00  0.00     0.169 C 
HETATM    8  O   UNK N   1      29.211  44.002  57.632  0.00  0.00    -0.340 OA
HETATM    9  C   UNK N   1      29.157  43.037  56.670  0.00  0.00     0.089 A 
HETATM   10  C   UNK N   1      30.335  42.634  56.007  0.00  0.00     0.076 A 
HETATM   11  C   UNK N   1      27.936  42.432  56.362  0.00  0.00     0.074 A 
HETATM   12  C   UNK N   1      31.588  43.356  56.346  0.00  0.00     0.167 C 
HETATM   13  C   UNK N   1      30.288  41.573  55.078  0.00  0.00     0.085 A 
HETATM   14  O   UNK N   1      32.683  42.936  56.005  0.00  0.00    -0.292 OA
HETATM   15  C   UNK N   1      31.477  44.615  57.169  0.00  0.00     0.121 C 
HETATM   16  C   UNK N   1      29.057  40.960  54.793  0.00  0.00     0.074 A 
HETATM   17  C   UNK N   1      27.883  41.393  55.425  0.00  0.00     0.071 A 
BRANCH  13  18
HETATM   18  O   UNK N   1      31.412  41.153  54.461  0.00  0.00    -0.360 OA
HETATM   19  H   UNK N   1      32.291  41.433  54.756  0.00  0.00     0.217 HD
ENDBRANCH  13  18
BRANCH  17  20
HETATM   20  O   UNK N   1      26.698  40.810  55.149  0.00  0.00    -0.361 OA
HETATM   21  H   UNK N   1      26.383  40.040  55.643  0.00  0.00     0.217 HD
ENDBRANCH  17  20
ENDBRANCH   1   7
BRANCH   3  22
HETATM   22  C   UNK N   1      30.740  46.236  62.909  0.00  0.00     0.068 C 
BRANCH  22  23
HETATM   23  C   UNK N   1      32.087  46.797  63.322  0.00  0.00    -0.020 C 
HETATM   24  C   UNK N   1      33.248  46.098  63.314  0.00  0.00    -0.091 C 
HETATM   25  C   UNK N   1      34.524  46.774  63.748  0.00  0.00     0.042 C 
HETATM   26  C   UNK N   1      33.332  44.645  62.913  0.00  0.00     0.042 C 
ENDBRANCH  22  23
ENDBRANCH   3  22
BRANCH   5  27
HETATM   27  C   UNK N   1      29.168  49.190  58.994  0.00  0.00     0.068 C 
BRANCH  27  28
HETATM   28  C   UNK N   1      30.044  49.599  57.833  0.00  0.00    -0.020 C 
HETATM   29  C   UNK N   1      29.638  50.171  56.671  0.00  0.00    -0.091 C 
HETATM   30  C   UNK N   1      30.675  50.544  55.640  0.00  0.00     0.042 C 
HETATM   31  C   UNK N   1      28.199  50.471  56.327  0.00  0.00     0.042 C 
ENDBRANCH  27  28
ENDBRANCH   5  27
BRANCH   4  32
HETATM   32  O   UNK N   1      29.645  48.821  61.725  0.00  0.00    -0.355 OA
HETATM   33  C   UNK N   1      28.610  49.131  62.581  0.00  0.00     0.210 C 
ENDBRANCH   4  32
TORSDOF 8
ENDMDL
MODEL 6
REMARK VINA RESULT:      -6.2     15.477     18.644
REMARK  8 active torsions:
REMARK  status: ('A' for Active; 'I' for Inactive)
REMARK    1  A    between atoms: C_6  and  C_7 
REMARK    2  A    between atoms: C_9  and  C_20 
REMARK    3  A    between atoms: C_10  and  O_11 
REMARK    4  A    between atoms: C_13  and  C_15 
REMARK    5  A    between atoms: C_15  and  C_16 
REMARK    6  A    between atoms: C_20  and  C_21 
REMARK    7  A    between atoms: C_27  and  O_28 
REMARK    8  A    between atoms: C_31  and  O_32 
ROOT
HETATM    1  C   UNK N   1      30.055  45.174  59.164  0.00  0.00    -0.027 A 
HETATM    2  C   UNK N   1      30.735  45.112  60.384  0.00  0.00     0.020 A 
HETATM    3  C   UNK N   1      31.373  43.931  60.822  0.00  0.00    -0.020 A 
HETATM    4  C   UNK N   1      31.355  42.782  59.956  0.00  0.00     0.081 A 
HETATM    5  C   UNK N   1      30.647  42.857  58.728  0.00  0.00    -0.020 A 
HETATM    6  C   UNK N   1      29.992  44.037  58.354  0.00  0.00     0.020 A 
ENDROOT
BRANCH   1   7
HETATM    7  C   UNK N   1      29.388  46.470  58.756  0.00  0.00     0.169 C 
HETATM    8  O   UNK N   1      30.198  47.208  57.897  0.00  0.00    -0.340 OA
HETATM    9  C   UNK N   1      29.756  48.357  57.310  0.00  0.00     0.089 A 
HETATM   10  C   UNK N   1      28.375  48.638  57.259  0.00  0.00     0.076 A 
HETATM   11  C   UNK N   1      30.677  49.267  56.784  0.00  0.00     0.074 A 
HETATM   12  C   UNK N   1      27.450  47.603  57.789  0.00  0.00     0.167 C 
HETATM   13  C   UNK N   1      27.928  49.868  56.732  0.00  0.00     0.085 A 
HETATM   14  O   UNK N   1      26.271  47.843  57.999  0.00  0.00    -0.292 OA
HETATM   15  C   UNK N   1      28.020  46.243  58.107  0.00  0.00     0.121 C 
HETATM   16  C   UNK N   1      28.866  50.782  56.226  0.00  0.00     0.074 A 
HETATM   17  C   UNK N   1      30.235  50.480  56.242  0.00  0.00     0.071 A 
BRANCH  13  18
HETATM   18  O   UNK N   1      26.612  50.166  56.708  0.00  0.00    -0.360 OA
HETATM   19  H   UNK N   1      26.066  50.126  57.506  0.00  0.00     0.217 HD
ENDBRANCH  13  18
BRANCH  17  20
HETATM   20  O   UNK N   1      31.138  51.354  55.750  0.00  0.00    -0.361 OA
HETATM   21  H   UNK N   1      31.999  51.488  56.172  0.00  0.00     0.217 HD
ENDBRANCH  17  20
ENDBRANCH   1   7
BRANCH   3  22
HETATM   22  C   UNK N   1      31.985  43.890  62.224  0.00  0.00     0.068 C 
BRANCH  22  23
HETATM   23  C   UNK N   1      33.498  43.934  62.308  0.00  0.00    -0.020 C 
HETATM   24  C   UNK N   1      34.209  44.937  62.878  0.00  0.00    -0.091 C 
HETATM   25  C   UNK N   1      35.714  44.860  62.898  0.00  0.00     0.042 C 
HETATM   26  C   UNK N   1      33.567  46.162  63.483  0.00  0.00     0.042 C 
ENDBRANCH  22  23
ENDBRANCH   3  22
BRANCH   5  27
HETATM   27  C   UNK N   1      30.589  41.664  57.795  0.00  0.00     0.068 C 
BRANCH  27  28
HETATM   28  C   UNK N   1      29.579  41.910  56.698  0.00  0.00    -0.020 C 
HETATM   29  C   UNK N   1      29.827  41.971  55.365  0.00  0.00    -0.091 C 
HETATM   30  C   UNK N   1      28.673  42.189  54.418  0.00  0.00     0.042 C 
HETATM   31  C   UNK N   1      31.197  41.828  54.746  0.00  0.00     0.042 C 
ENDBRANCH  27  28
ENDBRANCH   5  27
BRANCH   4  32
HETATM   32  O   UNK N   1      31.960  41.586  60.232  0.00  0.00    -0.355 OA
HETATM   33  C   UNK N   1      33.260  41.168  60.046  0.00  0.00     0.210 C 
ENDBRANCH   4  32
TORSDOF 8
ENDMDL
MODEL 7
REMARK VINA RESULT:      -6.1     16.225     19.459
REMARK  8 active torsions:
REMARK  status: ('A' for Active; 'I' for Inactive)
REMARK    1  A    between atoms: C_6  and  C_7 
REMARK    2  A    between atoms: C_9  and  C_20 
REMARK    3  A    between atoms: C_10  and  O_11 
REMARK    4  A    between atoms: C_13  and  C_15 
REMARK    5  A    between atoms: C_15  and  C_16 
REMARK    6  A    between atoms: C_20  and  C_21 
REMARK    7  A    between atoms: C_27  and  O_28 
REMARK    8  A    between atoms: C_31  and  O_32 
ROOT
HETATM    1  C   UNK N   1      29.853  41.796  57.240  0.00  0.00    -0.027 A 
HETATM    2  C   UNK N   1      30.556  42.989  57.041  0.00  0.00     0.020 A 
HETATM    3  C   UNK N   1      31.463  43.489  58.001  0.00  0.00    -0.020 A 
HETATM    4  C   UNK N   1      31.694  42.714  59.191  0.00  0.00     0.081 A 
HETATM    5  C   UNK N   1      30.962  41.514  59.385  0.00  0.00    -0.020 A 
HETATM    6  C   UNK N   1      30.040  41.078  58.424  0.00  0.00     0.020 A 
ENDROOT
BRANCH   1   7
HETATM    7  C   UNK N   1      28.893  41.319  56.173  0.00  0.00     0.169 C 
HETATM    8  O   UNK N   1      29.089  41.999  54.973  0.00  0.00    -0.340 OA
HETATM    9  C   UNK N   1      28.415  41.656  53.839  0.00  0.00     0.089 A 
HETATM   10  C   UNK N   1      27.784  40.397  53.746  0.00  0.00     0.076 A 
HETATM   11  C   UNK N   1      28.327  42.565  52.781  0.00  0.00     0.074 A 
HETATM   12  C   UNK N   1      27.962  39.461  54.886  0.00  0.00     0.167 C 
HETATM   13  C   UNK N   1      27.012  40.082  52.607  0.00  0.00     0.085 A 
HETATM   14  O   UNK N   1      27.279  38.456  55.002  0.00  0.00    -0.292 OA
HETATM   15  C   UNK N   1      28.991  39.809  55.932  0.00  0.00     0.121 C 
HETATM   16  C   UNK N   1      26.916  41.014  51.561  0.00  0.00     0.074 A 
HETATM   17  C   UNK N   1      27.579  42.247  51.642  0.00  0.00     0.071 A 
BRANCH  13  18
HETATM   18  O   UNK N   1      26.375  38.897  52.519  0.00  0.00    -0.360 OA
HETATM   19  H   UNK N   1      26.271  38.436  51.673  0.00  0.00     0.217 HD
ENDBRANCH  13  18
BRANCH  17  20
HETATM   20  O   UNK N   1      27.494  43.140  50.634  0.00  0.00    -0.361 OA
HETATM   21  H   UNK N   1      26.851  43.864  50.649  0.00  0.00     0.217 HD
ENDBRANCH  17  20
ENDBRANCH   1   7
BRANCH   3  22
HETATM   22  C   UNK N   1      32.098  44.864  57.782  0.00  0.00     0.068 C 
BRANCH  22  23
HETATM   23  C   UNK N   1      31.160  45.994  57.404  0.00  0.00    -0.020 C 
HETATM   24  C   UNK N   1      30.355  46.651  58.275  0.00  0.00    -0.091 C 
HETATM   25  C   UNK N   1      29.468  47.760  57.771  0.00  0.00     0.042 C 
HETATM   26  C   UNK N   1      30.277  46.309  59.743  0.00  0.00     0.042 C 
ENDBRANCH  22  23
ENDBRANCH   3  22
BRANCH   5  27
HETATM   27  C   UNK N   1      31.164  40.678  60.633  0.00  0.00     0.068 C 
BRANCH  27  28
HETATM   28  C   UNK N   1      30.942  39.216  60.321  0.00  0.00    -0.020 C 
HETATM   29  C   UNK N   1      29.996  38.405  60.859  0.00  0.00    -0.091 C 
HETATM   30  C   UNK N   1      29.908  36.974  60.388  0.00  0.00     0.042 C 
HETATM   31  C   UNK N   1      29.001  38.838  61.909  0.00  0.00     0.042 C 
ENDBRANCH  27  28
ENDBRANCH   5  27
BRANCH   4  32
HETATM   32  O   UNK N   1      32.569  43.055  60.187  0.00  0.00    -0.355 OA
HETATM   33  C   UNK N   1      33.937  42.915  60.275  0.00  0.00     0.210 C 
ENDBRANCH   4  32
TORSDOF 8
ENDMDL
MODEL 8
REMARK VINA RESULT:      -6.1     16.038     18.621
REMARK  8 active torsions:
REMARK  status: ('A' for Active; 'I' for Inactive)
REMARK    1  A    between atoms: C_6  and  C_7 
REMARK    2  A    between atoms: C_9  and  C_20 
REMARK    3  A    between atoms: C_10  and  O_11 
REMARK    4  A    between atoms: C_13  and  C_15 
REMARK    5  A    between atoms: C_15  and  C_16 
REMARK    6  A    between atoms: C_20  and  C_21 
REMARK    7  A    between atoms: C_27  and  O_28 
REMARK    8  A    between atoms: C_31  and  O_32 
ROOT
HETATM    1  C   UNK N   1      29.421  41.666  56.697  0.00  0.00    -0.027 A 
HETATM    2  C   UNK N   1      29.394  40.820  57.811  0.00  0.00     0.020 A 
HETATM    3  C   UNK N   1      30.253  41.015  58.915  0.00  0.00    -0.020 A 
HETATM    4  C   UNK N   1      31.141  42.148  58.899  0.00  0.00     0.081 A 
HETATM    5  C   UNK N   1      31.166  42.987  57.755  0.00  0.00    -0.020 A 
HETATM    6  C   UNK N   1      30.326  42.729  56.663  0.00  0.00     0.020 A 
ENDROOT
BRANCH   1   7
HETATM    7  C   UNK N   1      28.477  41.397  55.545  0.00  0.00     0.169 C 
HETATM    8  O   UNK N   1      28.106  42.579  54.908  0.00  0.00    -0.340 OA
HETATM    9  C   UNK N   1      27.352  42.571  53.771  0.00  0.00     0.089 A 
HETATM   10  C   UNK N   1      27.233  41.389  53.011  0.00  0.00     0.076 A 
HETATM   11  C   UNK N   1      26.677  43.730  53.378  0.00  0.00     0.074 A 
HETATM   12  C   UNK N   1      28.020  40.211  53.457  0.00  0.00     0.167 C 
HETATM   13  C   UNK N   1      26.381  41.362  51.887  0.00  0.00     0.085 A 
HETATM   14  O   UNK N   1      27.811  39.094  53.010  0.00  0.00    -0.292 OA
HETATM   15  C   UNK N   1      29.068  40.423  54.521  0.00  0.00     0.121 C 
HETATM   16  C   UNK N   1      25.692  42.527  51.515  0.00  0.00     0.074 A 
HETATM   17  C   UNK N   1      25.846  43.711  52.252  0.00  0.00     0.071 A 
BRANCH  13  18
HETATM   18  O   UNK N   1      26.230  40.229  51.169  0.00  0.00    -0.360 OA
HETATM   19  H   UNK N   1      25.572  40.157  50.462  0.00  0.00     0.217 HD
ENDBRANCH  13  18
BRANCH  17  20
HETATM   20  O   UNK N   1      25.191  44.834  51.892  0.00  0.00    -0.361 OA
HETATM   21  H   UNK N   1      25.250  45.193  50.995  0.00  0.00     0.217 HD
ENDBRANCH  17  20
ENDBRANCH   1   7
BRANCH   3  22
HETATM   22  C   UNK N   1      30.267  39.979  60.041  0.00  0.00     0.068 C 
BRANCH  22  23
HETATM   23  C   UNK N   1      29.635  38.635  59.736  0.00  0.00    -0.020 C 
HETATM   24  C   UNK N   1      30.019  37.459  60.291  0.00  0.00    -0.091 C 
HETATM   25  C   UNK N   1      29.306  36.189  59.904  0.00  0.00     0.042 C 
HETATM   26  C   UNK N   1      31.159  37.346  61.274  0.00  0.00     0.042 C 
ENDBRANCH  22  23
ENDBRANCH   3  22
BRANCH   5  27
HETATM   27  C   UNK N   1      32.099  44.180  57.691  0.00  0.00     0.068 C 
BRANCH  27  28
HETATM   28  C   UNK N   1      31.320  45.433  57.365  0.00  0.00    -0.020 C 
HETATM   29  C   UNK N   1      30.574  46.172  58.224  0.00  0.00    -0.091 C 
HETATM   30  C   UNK N   1      29.897  47.421  57.714  0.00  0.00     0.042 C 
HETATM   31  C   UNK N   1      30.371  45.835  59.682  0.00  0.00     0.042 C 
ENDBRANCH  27  28
ENDBRANCH   5  27
BRANCH   4  32
HETATM   32  O   UNK N   1      32.000  42.482  59.911  0.00  0.00    -0.355 OA
HETATM   33  C   UNK N   1      33.245  41.991  60.237  0.00  0.00     0.210 C 
ENDBRANCH   4  32
TORSDOF 8
ENDMDL
MODEL 9
REMARK VINA RESULT:      -5.9     21.907     24.621
REMARK  8 active torsions:
REMARK  status: ('A' for Active; 'I' for Inactive)
REMARK    1  A    between atoms: C_6  and  C_7 
REMARK    2  A    between atoms: C_9  and  C_20 
REMARK    3  A    between atoms: C_10  and  O_11 
REMARK    4  A    between atoms: C_13  and  C_15 
REMARK    5  A    between atoms: C_15  and  C_16 
REMARK    6  A    between atoms: C_20  and  C_21 
REMARK    7  A    between atoms: C_27  and  O_28 
REMARK    8  A    between atoms: C_31  and  O_32 
ROOT
HETATM    1  C   UNK N   1      50.203  52.575  57.997  0.00  0.00    -0.027 A 
HETATM    2  C   UNK N   1      49.430  52.916  59.111  0.00  0.00     0.020 A 
HETATM    3  C   UNK N   1      49.558  52.236  60.342  0.00  0.00    -0.020 A 
HETATM    4  C   UNK N   1      50.548  51.198  60.451  0.00  0.00     0.081 A 
HETATM    5  C   UNK N   1      51.313  50.854  59.306  0.00  0.00    -0.020 A 
HETATM    6  C   UNK N   1      51.122  51.527  58.092  0.00  0.00     0.020 A 
ENDROOT
BRANCH   1   7
HETATM    7  C   UNK N   1      50.013  53.341  56.706  0.00  0.00     0.169 C 
HETATM    8  O   UNK N   1      49.589  54.646  56.948  0.00  0.00    -0.340 OA
HETATM    9  C   UNK N   1      49.464  55.555  55.939  0.00  0.00     0.089 A 
HETATM   10  C   UNK N   1      50.094  55.324  54.698  0.00  0.00     0.076 A 
HETATM   11  C   UNK N   1      48.687  56.701  56.129  0.00  0.00     0.074 A 
HETATM   12  C   UNK N   1      50.947  54.113  54.583  0.00  0.00     0.167 C 
HETATM   13  C   UNK N   1      49.888  56.222  53.629  0.00  0.00     0.085 A 
HETATM   14  O   UNK N   1      51.343  53.708  53.501  0.00  0.00    -0.292 OA
HETATM   15  C   UNK N   1      51.281  53.362  55.847  0.00  0.00     0.121 C 
HETATM   16  C   UNK N   1      49.088  57.358  53.828  0.00  0.00     0.074 A 
HETATM   17  C   UNK N   1      48.497  57.603  55.076  0.00  0.00     0.071 A 
BRANCH  13  18
HETATM   18  O   UNK N   1      50.456  55.997  52.426  0.00  0.00    -0.360 OA
HETATM   19  H   UNK N   1      49.999  55.501  51.731  0.00  0.00     0.217 HD
ENDBRANCH  13  18
BRANCH  17  20
HETATM   20  O   UNK N   1      47.734  58.699  55.272  0.00  0.00    -0.361 OA
HETATM   21  H   UNK N   1      47.291  59.148  54.538  0.00  0.00     0.217 HD
ENDBRANCH  17  20
ENDBRANCH   1   7
BRANCH   3  22
HETATM   22  C   UNK N   1      48.591  52.569  61.482  0.00  0.00     0.068 C 
BRANCH  22  23
HETATM   23  C   UNK N   1      47.331  51.731  61.570  0.00  0.00    -0.020 C 
HETATM   24  C   UNK N   1      46.131  52.085  61.048  0.00  0.00    -0.091 C 
HETATM   25  C   UNK N   1      44.952  51.160  61.204  0.00  0.00     0.042 C 
HETATM   26  C   UNK N   1      45.900  53.393  60.330  0.00  0.00     0.042 C 
ENDBRANCH  22  23
ENDBRANCH   3  22
BRANCH   5  27
HETATM   27  C   UNK N   1      52.353  49.754  59.373  0.00  0.00     0.068 C 
BRANCH  27  28
HETATM   28  C   UNK N   1      52.362  48.967  58.083  0.00  0.00    -0.020 C 
HETATM   29  C   UNK N   1      51.509  47.972  57.733  0.00  0.00    -0.091 C 
HETATM   30  C   UNK N   1      51.656  47.328  56.376  0.00  0.00     0.042 C 
HETATM   31  C   UNK N   1      50.398  47.454  58.614  0.00  0.00     0.042 C 
ENDBRANCH  27  28
ENDBRANCH   5  27
BRANCH   4  32
HETATM   32  O   UNK N   1      50.807  50.481  61.588  0.00  0.00    -0.355 OA
HETATM   33  C   UNK N   1      50.169  49.388  62.131  0.00  0.00     0.210 C 
ENDBRANCH   4  32
TORSDOF 8
ENDMDL
