MODEL 1
REMARK VINA RESULT:      -5.6      0.000      0.000
REMARK  10 active torsions:
REMARK  status: ('A' for Active; 'I' for Inactive)
REMARK    1  A    between atoms: C_6  and  C_8 
REMARK    2  A    between atoms: C_11  and  O_12 
REMARK    3  A    between atoms: C_17  and  O_18 
REMARK    4  A    between atoms: O_18  and  C_19 
REMARK    5  A    between atoms: C_21  and  C_31 
REMARK    6  A    between atoms: C_22  and  O_23 
REMARK    7  A    between atoms: C_25  and  O_26 
REMARK    8  A    between atoms: C_28  and  O_29 
REMARK    9  A    between atoms: C_31  and  O_32 
REMARK   10  A    between atoms: C_35  and  O_36 
ROOT
HETATM    1  O   UNK N   1      33.155  49.335  43.114  0.00  0.00    -0.287 OA
HETATM    2  C   UNK N   1      32.648  50.436  42.995  0.00  0.00     0.190 A 
HETATM    3  C   UNK N   1      31.571  50.656  42.110  0.00  0.00     0.081 A 
HETATM    4  C   UNK N   1      31.029  51.957  42.041  0.00  0.00     0.095 A 
HETATM    5  O   UNK N   1      31.523  52.936  42.792  0.00  0.00    -0.309 OA
HETATM    6  C   UNK N   1      32.553  52.773  43.620  0.00  0.00     0.090 A 
HETATM    7  C   UNK N   1      33.147  51.505  43.744  0.00  0.00     0.094 A 
HETATM    8  C   UNK N   1      29.966  52.237  41.181  0.00  0.00     0.075 A 
HETATM    9  C   UNK N   1      29.423  51.227  40.368  0.00  0.00     0.077 A 
HETATM   10  C   UNK N   1      29.959  49.936  40.430  0.00  0.00     0.074 A 
HETATM   11  C   UNK N   1      31.020  49.634  41.299  0.00  0.00     0.085 A 
ENDROOT
BRANCH   9  12
HETATM   12  O   UNK N   1      28.370  51.455  39.539  0.00  0.00    -0.318 OA
BRANCH  12  13
HETATM   13  C   UNK N   1      27.034  51.416  39.912  0.00  0.00     0.298 C 
HETATM   14  O   UNK N   1      26.712  52.410  40.878  0.00  0.00    -0.348 OA
HETATM   15  C   UNK N   1      26.801  53.733  40.358  0.00  0.00     0.179 C 
HETATM   16  C   UNK N   1      25.858  53.940  39.143  0.00  0.00     0.180 C 
HETATM   17  C   UNK N   1      26.204  52.909  38.057  0.00  0.00     0.183 C 
HETATM   18  C   UNK N   1      26.124  51.504  38.674  0.00  0.00     0.205 C 
BRANCH  15  19
HETATM   19  C   UNK N   1      26.443  54.716  41.489  0.00  0.00     0.198 C 
BRANCH  19  20
HETATM   20  O   UNK N   1      25.130  55.198  41.352  0.00  0.00    -0.398 OA
HETATM   21  H   UNK N   1      24.550  54.411  41.181  0.00  0.00     0.209 HD
ENDBRANCH  19  20
ENDBRANCH  15  19
BRANCH  16  22
HETATM   22  O   UNK N   1      26.009  55.242  38.637  0.00  0.00    -0.390 OA
HETATM   23  H   UNK N   1      26.361  55.154  37.713  0.00  0.00     0.210 HD
ENDBRANCH  16  22
BRANCH  17  24
HETATM   24  O   UNK N   1      25.343  53.023  36.950  0.00  0.00    -0.390 OA
HETATM   25  H   UNK N   1      25.010  52.113  36.731  0.00  0.00     0.210 HD
ENDBRANCH  17  24
BRANCH  18  26
HETATM   26  O   UNK N   1      26.443  50.507  37.734  0.00  0.00    -0.388 OA
HETATM   27  H   UNK N   1      27.228  50.004  38.077  0.00  0.00     0.210 HD
ENDBRANCH  18  26
ENDBRANCH  12  13
ENDBRANCH   9  12
BRANCH  11  28
HETATM   28  O   UNK N   1      31.500  48.373  41.355  0.00  0.00    -0.360 OA
HETATM   29  H   UNK N   1      32.113  48.028  40.690  0.00  0.00     0.217 HD
ENDBRANCH  11  28
BRANCH   6  30
HETATM   30  C   UNK N   1      33.035  53.961  44.380  0.00  0.00    -0.002 A 
HETATM   31  C   UNK N   1      34.203  54.663  44.019  0.00  0.00     0.017 A 
HETATM   32  C   UNK N   1      34.604  55.788  44.745  0.00  0.00     0.037 A 
HETATM   33  C   UNK N   1      33.865  56.227  45.849  0.00  0.00     0.068 A 
HETATM   34  C   UNK N   1      32.701  55.525  46.217  0.00  0.00     0.037 A 
HETATM   35  C   UNK N   1      32.289  54.412  45.483  0.00  0.00     0.017 A 
BRANCH  33  36
HETATM   36  O   UNK N   1      34.297  57.322  46.529  0.00  0.00    -0.356 OA
HETATM   37  C   UNK N   1      34.113  57.539  47.880  0.00  0.00     0.210 C 
ENDBRANCH  33  36
ENDBRANCH   6  30
TORSDOF 10
ENDMDL
MODEL 2
REMARK VINA RESULT:      -5.6     19.043     23.251
REMARK  10 active torsions:
REMARK  status: ('A' for Active; 'I' for Inactive)
REMARK    1  A    between atoms: C_6  and  C_8 
REMARK    2  A    between atoms: C_11  and  O_12 
REMARK    3  A    between atoms: C_17  and  O_18 
REMARK    4  A    between atoms: O_18  and  C_19 
REMARK    5  A    between atoms: C_21  and  C_31 
REMARK    6  A    between atoms: C_22  and  O_23 
REMARK    7  A    between atoms: C_25  and  O_26 
REMARK    8  A    between atoms: C_28  and  O_29 
REMARK    9  A    between atoms: C_31  and  O_32 
REMARK   10  A    between atoms: C_35  and  O_36 
ROOT
HETATM    1  O   UNK N   1      30.453  42.200  63.229  0.00  0.00    -0.287 OA
HETATM    2  C   UNK N   1      31.195  42.543  62.326  0.00  0.00     0.190 A 
HETATM    3  C   UNK N   1      32.436  43.162  62.591  0.00  0.00     0.081 A 
HETATM    4  C   UNK N   1      33.244  43.516  61.490  0.00  0.00     0.095 A 
HETATM    5  O   UNK N   1      32.843  43.268  60.248  0.00  0.00    -0.309 OA
HETATM    6  C   UNK N   1      31.670  42.708  59.958  0.00  0.00     0.090 A 
HETATM    7  C   UNK N   1      30.808  42.327  61.001  0.00  0.00     0.094 A 
HETATM    8  C   UNK N   1      34.480  44.135  61.689  0.00  0.00     0.075 A 
HETATM    9  C   UNK N   1      34.933  44.418  62.989  0.00  0.00     0.077 A 
HETATM   10  C   UNK N   1      34.134  44.072  64.083  0.00  0.00     0.074 A 
HETATM   11  C   UNK N   1      32.894  43.437  63.902  0.00  0.00     0.085 A 
ENDROOT
BRANCH   9  12
HETATM   12  O   UNK N   1      36.142  44.994  63.223  0.00  0.00    -0.318 OA
BRANCH  12  13
HETATM   13  C   UNK N   1      36.767  45.909  62.387  0.00  0.00     0.298 C 
HETATM   14  O   UNK N   1      36.094  47.162  62.354  0.00  0.00    -0.348 OA
HETATM   15  C   UNK N   1      36.158  47.855  63.596  0.00  0.00     0.179 C 
HETATM   16  C   UNK N   1      37.623  48.124  64.033  0.00  0.00     0.180 C 
HETATM   17  C   UNK N   1      38.374  46.787  64.122  0.00  0.00     0.183 C 
HETATM   18  C   UNK N   1      38.250  46.066  62.771  0.00  0.00     0.205 C 
BRANCH  15  19
HETATM   19  C   UNK N   1      35.391  49.183  63.443  0.00  0.00     0.198 C 
BRANCH  19  20
HETATM   20  O   UNK N   1      35.092  49.748  64.693  0.00  0.00    -0.398 OA
HETATM   21  H   UNK N   1      35.475  49.146  65.382  0.00  0.00     0.209 HD
ENDBRANCH  19  20
ENDBRANCH  15  19
BRANCH  16  22
HETATM   22  O   UNK N   1      37.639  48.771  65.280  0.00  0.00    -0.390 OA
HETATM   23  H   UNK N   1      38.414  48.408  65.783  0.00  0.00     0.210 HD
ENDBRANCH  16  22
BRANCH  17  24
HETATM   24  O   UNK N   1      39.724  46.980  64.468  0.00  0.00    -0.390 OA
HETATM   25  H   UNK N   1      39.912  46.428  65.272  0.00  0.00     0.210 HD
ENDBRANCH  17  24
BRANCH  18  26
HETATM   26  O   UNK N   1      38.907  44.822  62.786  0.00  0.00    -0.388 OA
HETATM   27  H   UNK N   1      39.593  44.830  62.067  0.00  0.00     0.210 HD
ENDBRANCH  18  26
ENDBRANCH  12  13
ENDBRANCH   9  12
BRANCH  11  28
HETATM   28  O   UNK N   1      32.155  43.093  64.979  0.00  0.00    -0.360 OA
HETATM   29  H   UNK N   1      32.487  42.484  65.654  0.00  0.00     0.217 HD
ENDBRANCH  11  28
BRANCH   6  30
HETATM   30  C   UNK N   1      31.322  42.516  58.521  0.00  0.00    -0.002 A 
HETATM   31  C   UNK N   1      30.185  41.790  58.112  0.00  0.00     0.017 A 
HETATM   32  C   UNK N   1      29.882  41.658  56.754  0.00  0.00     0.037 A 
HETATM   33  C   UNK N   1      30.708  42.227  55.779  0.00  0.00     0.068 A 
HETATM   34  C   UNK N   1      31.849  42.947  56.182  0.00  0.00     0.037 A 
HETATM   35  C   UNK N   1      32.143  43.096  57.538  0.00  0.00     0.017 A 
BRANCH  33  36
HETATM   36  O   UNK N   1      30.378  42.066  54.470  0.00  0.00    -0.356 OA
HETATM   37  C   UNK N   1      29.295  41.345  54.009  0.00  0.00     0.210 C 
ENDBRANCH  33  36
ENDBRANCH   6  30
TORSDOF 10
ENDMDL
MODEL 3
REMARK VINA RESULT:      -5.5     19.186     23.302
REMARK  10 active torsions:
REMARK  status: ('A' for Active; 'I' for Inactive)
REMARK    1  A    between atoms: C_6  and  C_8 
REMARK    2  A    between atoms: C_11  and  O_12 
REMARK    3  A    between atoms: C_17  and  O_18 
REMARK    4  A    between atoms: O_18  and  C_19 
REMARK    5  A    between atoms: C_21  and  C_31 
REMARK    6  A    between atoms: C_22  and  O_23 
REMARK    7  A    between atoms: C_25  and  O_26 
REMARK    8  A    between atoms: C_28  and  O_29 
REMARK    9  A    between atoms: C_31  and  O_32 
REMARK   10  A    between atoms: C_35  and  O_36 
ROOT
HETATM    1  O   UNK N   1      29.553  41.963  62.721  0.00  0.00    -0.287 OA
HETATM    2  C   UNK N   1      30.410  42.298  61.923  0.00  0.00     0.190 A 
HETATM    3  C   UNK N   1      31.622  42.881  62.350  0.00  0.00     0.081 A 
HETATM    4  C   UNK N   1      32.570  43.228  61.365  0.00  0.00     0.095 A 
HETATM    5  O   UNK N   1      32.321  43.006  60.079  0.00  0.00    -0.309 OA
HETATM    6  C   UNK N   1      31.181  42.481  59.635  0.00  0.00     0.090 A 
HETATM    7  C   UNK N   1      30.186  42.108  60.557  0.00  0.00     0.094 A 
HETATM    8  C   UNK N   1      33.786  43.812  61.725  0.00  0.00     0.075 A 
HETATM    9  C   UNK N   1      34.079  44.067  63.076  0.00  0.00     0.077 A 
HETATM   10  C   UNK N   1      33.142  43.728  64.057  0.00  0.00     0.074 A 
HETATM   11  C   UNK N   1      31.919  43.128  63.712  0.00  0.00     0.085 A 
ENDROOT
BRANCH   9  12
HETATM   12  O   UNK N   1      35.263  44.609  63.468  0.00  0.00    -0.318 OA
BRANCH  12  13
HETATM   13  C   UNK N   1      35.409  45.608  64.421  0.00  0.00     0.298 C 
HETATM   14  O   UNK N   1      36.632  45.498  65.139  0.00  0.00    -0.348 OA
HETATM   15  C   UNK N   1      37.773  45.745  64.324  0.00  0.00     0.179 C 
HETATM   16  C   UNK N   1      37.732  47.159  63.685  0.00  0.00     0.180 C 
HETATM   17  C   UNK N   1      36.441  47.302  62.864  0.00  0.00     0.183 C 
HETATM   18  C   UNK N   1      35.244  46.996  63.778  0.00  0.00     0.205 C 
BRANCH  15  19
HETATM   19  C   UNK N   1      39.030  45.589  65.201  0.00  0.00     0.198 C 
BRANCH  19  20
HETATM   20  O   UNK N   1      40.149  45.226  64.432  0.00  0.00    -0.398 OA
HETATM   21  H   UNK N   1      40.044  45.660  63.546  0.00  0.00     0.209 HD
ENDBRANCH  19  20
ENDBRANCH  15  19
BRANCH  16  22
HETATM   22  O   UNK N   1      38.853  47.344  62.859  0.00  0.00    -0.390 OA
HETATM   23  H   UNK N   1      39.627  46.931  63.325  0.00  0.00     0.210 HD
ENDBRANCH  16  22
BRANCH  17  24
HETATM   24  O   UNK N   1      36.331  48.587  62.303  0.00  0.00    -0.390 OA
HETATM   25  H   UNK N   1      37.201  49.049  62.431  0.00  0.00     0.210 HD
ENDBRANCH  17  24
BRANCH  18  26
HETATM   26  O   UNK N   1      34.024  47.097  63.085  0.00  0.00    -0.388 OA
HETATM   27  H   UNK N   1      33.617  47.974  63.309  0.00  0.00     0.210 HD
ENDBRANCH  18  26
ENDBRANCH  12  13
ENDBRANCH   9  12
BRANCH  11  28
HETATM   28  O   UNK N   1      31.043  42.790  64.683  0.00  0.00    -0.360 OA
HETATM   29  H   UNK N   1      30.574  43.457  65.205  0.00  0.00     0.217 HD
ENDBRANCH  11  28
BRANCH   6  30
HETATM   30  C   UNK N   1      31.011  42.316  58.164  0.00  0.00    -0.002 A 
HETATM   31  C   UNK N   1      29.956  41.565  57.607  0.00  0.00     0.017 A 
HETATM   32  C   UNK N   1      29.819  41.459  56.220  0.00  0.00     0.037 A 
HETATM   33  C   UNK N   1      30.734  42.079  55.362  0.00  0.00     0.068 A 
HETATM   34  C   UNK N   1      31.793  42.824  55.914  0.00  0.00     0.037 A 
HETATM   35  C   UNK N   1      31.921  42.947  57.298  0.00  0.00     0.017 A 
BRANCH  33  36
HETATM   36  O   UNK N   1      30.565  41.942  54.020  0.00  0.00    -0.356 OA
HETATM   37  C   UNK N   1      29.346  41.887  53.376  0.00  0.00     0.210 C 
ENDBRANCH  33  36
ENDBRANCH   6  30
TORSDOF 10
ENDMDL
MODEL 4
REMARK VINA RESULT:      -5.4     17.700     19.640
REMARK  10 active torsions:
REMARK  status: ('A' for Active; 'I' for Inactive)
REMARK    1  A    between atoms: C_6  and  C_8 
REMARK    2  A    between atoms: C_11  and  O_12 
REMARK    3  A    between atoms: C_17  and  O_18 
REMARK    4  A    between atoms: O_18  and  C_19 
REMARK    5  A    between atoms: C_21  and  C_31 
REMARK    6  A    between atoms: C_22  and  O_23 
REMARK    7  A    between atoms: C_25  and  O_26 
REMARK    8  A    between atoms: C_28  and  O_29 
REMARK    9  A    between atoms: C_31  and  O_32 
REMARK   10  A    between atoms: C_35  and  O_36 
ROOT
HETATM    1  O   UNK N   1      30.064  41.353  62.633  0.00  0.00    -0.287 OA
HETATM    2  C   UNK N   1      30.774  41.941  61.836  0.00  0.00     0.190 A 
HETATM    3  C   UNK N   1      30.435  42.014  60.468  0.00  0.00     0.081 A 
HETATM    4  C   UNK N   1      31.301  42.727  59.612  0.00  0.00     0.095 A 
HETATM    5  O   UNK N   1      32.395  43.310  60.089  0.00  0.00    -0.309 OA
HETATM    6  C   UNK N   1      32.760  43.243  61.368  0.00  0.00     0.090 A 
HETATM    7  C   UNK N   1      31.948  42.550  62.283  0.00  0.00     0.094 A 
HETATM    8  C   UNK N   1      31.022  42.830  58.247  0.00  0.00     0.075 A 
HETATM    9  C   UNK N   1      29.876  42.220  57.708  0.00  0.00     0.077 A 
HETATM   10  C   UNK N   1      29.017  41.509  58.551  0.00  0.00     0.074 A 
HETATM   11  C   UNK N   1      29.276  41.406  59.928  0.00  0.00     0.085 A 
ENDROOT
BRANCH   9  12
HETATM   12  O   UNK N   1      29.557  42.321  56.390  0.00  0.00    -0.318 OA
BRANCH  12  13
HETATM   13  C   UNK N   1      28.887  41.355  55.653  0.00  0.00     0.298 C 
HETATM   14  O   UNK N   1      27.491  41.616  55.557  0.00  0.00    -0.348 OA
HETATM   15  C   UNK N   1      27.201  42.779  54.789  0.00  0.00     0.179 C 
HETATM   16  C   UNK N   1      27.756  42.672  53.344  0.00  0.00     0.180 C 
HETATM   17  C   UNK N   1      29.272  42.431  53.405  0.00  0.00     0.183 C 
HETATM   18  C   UNK N   1      29.535  41.187  54.267  0.00  0.00     0.205 C 
BRANCH  15  19
HETATM   19  C   UNK N   1      25.672  42.965  54.764  0.00  0.00     0.198 C 
BRANCH  19  20
HETATM   20  O   UNK N   1      25.322  44.290  54.452  0.00  0.00    -0.398 OA
HETATM   21  H   UNK N   1      24.376  44.275  54.150  0.00  0.00     0.209 HD
ENDBRANCH  19  20
ENDBRANCH  15  19
BRANCH  16  22
HETATM   22  O   UNK N   1      27.483  43.855  52.638  0.00  0.00    -0.390 OA
HETATM   23  H   UNK N   1      26.567  44.140  52.894  0.00  0.00     0.210 HD
ENDBRANCH  16  22
BRANCH  17  24
HETATM   24  O   UNK N   1      29.818  42.278  52.118  0.00  0.00    -0.390 OA
HETATM   25  H   UNK N   1      29.066  42.146  51.483  0.00  0.00     0.210 HD
ENDBRANCH  17  24
BRANCH  18  26
HETATM   26  O   UNK N   1      30.911  40.914  54.376  0.00  0.00    -0.388 OA
HETATM   27  H   UNK N   1      31.244  41.353  55.202  0.00  0.00     0.210 HD
ENDBRANCH  18  26
ENDBRANCH  12  13
ENDBRANCH   9  12
BRANCH  11  28
HETATM   28  O   UNK N   1      28.414  40.734  60.722  0.00  0.00    -0.360 OA
HETATM   29  H   UNK N   1      27.468  40.939  60.741  0.00  0.00     0.217 HD
ENDBRANCH  11  28
BRANCH   6  30
HETATM   30  C   UNK N   1      34.030  43.911  61.769  0.00  0.00    -0.002 A 
HETATM   31  C   UNK N   1      34.166  44.599  62.992  0.00  0.00     0.017 A 
HETATM   32  C   UNK N   1      35.384  45.188  63.341  0.00  0.00     0.037 A 
HETATM   33  C   UNK N   1      36.483  45.121  62.477  0.00  0.00     0.068 A 
HETATM   34  C   UNK N   1      36.351  44.442  61.251  0.00  0.00     0.037 A 
HETATM   35  C   UNK N   1      35.140  43.836  60.910  0.00  0.00     0.017 A 
BRANCH  33  36
HETATM   36  O   UNK N   1      37.646  45.716  62.855  0.00  0.00    -0.356 OA
HETATM   37  C   UNK N   1      38.638  45.113  63.601  0.00  0.00     0.210 C 
ENDBRANCH  33  36
ENDBRANCH   6  30
TORSDOF 10
ENDMDL
MODEL 5
REMARK VINA RESULT:      -5.3     15.639     17.703
REMARK  10 active torsions:
REMARK  status: ('A' for Active; 'I' for Inactive)
REMARK    1  A    between atoms: C_6  and  C_8 
REMARK    2  A    between atoms: C_11  and  O_12 
REMARK    3  A    between atoms: C_17  and  O_18 
REMARK    4  A    between atoms: O_18  and  C_19 
REMARK    5  A    between atoms: C_21  and  C_31 
REMARK    6  A    between atoms: C_22  and  O_23 
REMARK    7  A    between atoms: C_25  and  O_26 
REMARK    8  A    between atoms: C_28  and  O_29 
REMARK    9  A    between atoms: C_31  and  O_32 
REMARK   10  A    between atoms: C_35  and  O_36 
ROOT
HETATM    1  O   UNK N   1      31.550  43.467  60.655  0.00  0.00    -0.287 OA
HETATM    2  C   UNK N   1      30.878  43.985  59.781  0.00  0.00     0.190 A 
HETATM    3  C   UNK N   1      30.283  43.213  58.760  0.00  0.00     0.081 A 
HETATM    4  C   UNK N   1      29.507  43.886  57.793  0.00  0.00     0.095 A 
HETATM    5  O   UNK N   1      29.344  45.203  57.852  0.00  0.00    -0.309 OA
HETATM    6  C   UNK N   1      29.908  45.967  58.785  0.00  0.00     0.090 A 
HETATM    7  C   UNK N   1      30.697  45.370  59.785  0.00  0.00     0.094 A 
HETATM    8  C   UNK N   1      28.897  43.177  56.755  0.00  0.00     0.075 A 
HETATM    9  C   UNK N   1      29.053  41.783  56.659  0.00  0.00     0.077 A 
HETATM   10  C   UNK N   1      29.825  41.112  57.613  0.00  0.00     0.074 A 
HETATM   11  C   UNK N   1      30.434  41.808  58.670  0.00  0.00     0.085 A 
ENDROOT
BRANCH   9  12
HETATM   12  O   UNK N   1      28.453  41.056  55.679  0.00  0.00    -0.318 OA
BRANCH  12  13
HETATM   13  C   UNK N   1      27.169  41.268  55.198  0.00  0.00     0.298 C 
HETATM   14  O   UNK N   1      27.095  42.387  54.323  0.00  0.00    -0.348 OA
HETATM   15  C   UNK N   1      27.802  42.181  53.104  0.00  0.00     0.179 C 
HETATM   16  C   UNK N   1      27.268  40.948  52.328  0.00  0.00     0.180 C 
HETATM   17  C   UNK N   1      27.371  39.706  53.228  0.00  0.00     0.183 C 
HETATM   18  C   UNK N   1      26.621  39.989  54.539  0.00  0.00     0.205 C 
BRANCH  15  19
HETATM   19  C   UNK N   1      27.661  43.455  52.249  0.00  0.00     0.198 C 
BRANCH  19  20
HETATM   20  O   UNK N   1      28.803  43.671  51.460  0.00  0.00    -0.398 OA
HETATM   21  H   UNK N   1      28.530  43.543  50.514  0.00  0.00     0.209 HD
ENDBRANCH  19  20
ENDBRANCH  15  19
BRANCH  16  22
HETATM   22  O   UNK N   1      28.019  40.758  51.156  0.00  0.00    -0.390 OA
HETATM   23  H   UNK N   1      28.537  41.592  51.007  0.00  0.00     0.210 HD
ENDBRANCH  16  22
BRANCH  17  24
HETATM   24  O   UNK N   1      26.853  38.565  52.587  0.00  0.00    -0.390 OA
HETATM   25  H   UNK N   1      26.419  38.000  53.279  0.00  0.00     0.210 HD
ENDBRANCH  17  24
BRANCH  18  26
HETATM   26  O   UNK N   1      26.686  38.893  55.419  0.00  0.00    -0.388 OA
HETATM   27  H   UNK N   1      26.207  38.133  54.996  0.00  0.00     0.210 HD
ENDBRANCH  18  26
ENDBRANCH  12  13
ENDBRANCH   9  12
BRANCH  11  28
HETATM   28  O   UNK N   1      31.153  41.130  59.590  0.00  0.00    -0.360 OA
HETATM   29  H   UNK N   1      31.336  41.494  60.468  0.00  0.00     0.217 HD
ENDBRANCH  11  28
BRANCH   6  30
HETATM   30  C   UNK N   1      29.677  47.438  58.720  0.00  0.00    -0.002 A 
HETATM   31  C   UNK N   1      29.211  48.177  59.827  0.00  0.00     0.017 A 
HETATM   32  C   UNK N   1      29.034  49.560  59.729  0.00  0.00     0.037 A 
HETATM   33  C   UNK N   1      29.296  50.231  58.530  0.00  0.00     0.068 A 
HETATM   34  C   UNK N   1      29.754  49.496  57.419  0.00  0.00     0.037 A 
HETATM   35  C   UNK N   1      29.950  48.118  57.520  0.00  0.00     0.017 A 
BRANCH  33  36
HETATM   36  O   UNK N   1      29.102  51.575  58.479  0.00  0.00    -0.356 OA
HETATM   37  C   UNK N   1      28.380  52.307  59.400  0.00  0.00     0.210 C 
ENDBRANCH  33  36
ENDBRANCH   6  30
TORSDOF 10
ENDMDL
MODEL 6
REMARK VINA RESULT:      -5.2     16.396     18.795
REMARK  10 active torsions:
REMARK  status: ('A' for Active; 'I' for Inactive)
REMARK    1  A    between atoms: C_6  and  C_8 
REMARK    2  A    between atoms: C_11  and  O_12 
REMARK    3  A    between atoms: C_17  and  O_18 
REMARK    4  A    between atoms: O_18  and  C_19 
REMARK    5  A    between atoms: C_21  and  C_31 
REMARK    6  A    between atoms: C_22  and  O_23 
REMARK    7  A    between atoms: C_25  and  O_26 
REMARK    8  A    between atoms: C_28  and  O_29 
REMARK    9  A    between atoms: C_31  and  O_32 
REMARK   10  A    between atoms: C_35  and  O_36 
ROOT
HETATM    1  O   UNK N   1      31.378  43.230  61.117  0.00  0.00    -0.287 OA
HETATM    2  C   UNK N   1      30.831  43.691  60.131  0.00  0.00     0.190 A 
HETATM    3  C   UNK N   1      30.340  42.854  59.106  0.00  0.00     0.081 A 
HETATM    4  C   UNK N   1      29.705  43.464  58.004  0.00  0.00     0.095 A 
HETATM    5  O   UNK N   1      29.576  44.785  57.944  0.00  0.00    -0.309 OA
HETATM    6  C   UNK N   1      30.046  45.608  58.878  0.00  0.00     0.090 A 
HETATM    7  C   UNK N   1      30.692  45.075  60.008  0.00  0.00     0.094 A 
HETATM    8  C   UNK N   1      29.203  42.689  56.956  0.00  0.00     0.075 A 
HETATM    9  C   UNK N   1      29.328  41.289  56.984  0.00  0.00     0.077 A 
HETATM   10  C   UNK N   1      29.960  40.679  58.073  0.00  0.00     0.074 A 
HETATM   11  C   UNK N   1      30.460  41.443  59.141  0.00  0.00     0.085 A 
ENDROOT
BRANCH   9  12
HETATM   12  O   UNK N   1      28.829  40.499  55.997  0.00  0.00    -0.318 OA
BRANCH  12  13
HETATM   13  C   UNK N   1      29.431  40.280  54.766  0.00  0.00     0.298 C 
HETATM   14  O   UNK N   1      30.223  39.098  54.751  0.00  0.00    -0.348 OA
HETATM   15  C   UNK N   1      29.444  37.912  54.877  0.00  0.00     0.179 C 
HETATM   16  C   UNK N   1      28.397  37.785  53.740  0.00  0.00     0.180 C 
HETATM   17  C   UNK N   1      27.492  39.028  53.749  0.00  0.00     0.183 C 
HETATM   18  C   UNK N   1      28.379  40.278  53.642  0.00  0.00     0.205 C 
BRANCH  15  19
HETATM   19  C   UNK N   1      30.404  36.707  54.860  0.00  0.00     0.198 C 
BRANCH  19  20
HETATM   20  O   UNK N   1      31.564  36.987  54.121  0.00  0.00    -0.398 OA
HETATM   21  H   UNK N   1      31.304  36.988  53.163  0.00  0.00     0.209 HD
ENDBRANCH  19  20
ENDBRANCH  15  19
BRANCH  16  22
HETATM   22  O   UNK N   1      27.626  36.626  53.927  0.00  0.00    -0.390 OA
HETATM   23  H   UNK N   1      28.234  35.851  53.799  0.00  0.00     0.210 HD
ENDBRANCH  16  22
BRANCH  17  24
HETATM   24  O   UNK N   1      26.553  38.985  52.703  0.00  0.00    -0.390 OA
HETATM   25  H   UNK N   1      25.808  39.599  52.939  0.00  0.00     0.210 HD
ENDBRANCH  17  24
BRANCH  18  26
HETATM   26  O   UNK N   1      27.613  41.458  53.658  0.00  0.00    -0.388 OA
HETATM   27  H   UNK N   1      26.716  41.246  53.288  0.00  0.00     0.210 HD
ENDBRANCH  18  26
ENDBRANCH  12  13
ENDBRANCH   9  12
BRANCH  11  28
HETATM   28  O   UNK N   1      31.043  40.825  60.190  0.00  0.00    -0.360 OA
HETATM   29  H   UNK N   1      31.113  39.861  60.242  0.00  0.00     0.217 HD
ENDBRANCH  11  28
BRANCH   6  30
HETATM   30  C   UNK N   1      29.868  47.074  58.675  0.00  0.00    -0.002 A 
HETATM   31  C   UNK N   1      30.114  47.698  57.435  0.00  0.00     0.017 A 
HETATM   32  C   UNK N   1      29.908  49.071  57.282  0.00  0.00     0.037 A 
HETATM   33  C   UNK N   1      29.471  49.853  58.357  0.00  0.00     0.068 A 
HETATM   34  C   UNK N   1      29.230  49.235  59.599  0.00  0.00     0.037 A 
HETATM   35  C   UNK N   1      29.418  47.861  59.750  0.00  0.00     0.017 A 
BRANCH  33  36
HETATM   36  O   UNK N   1      29.291  51.186  58.163  0.00  0.00    -0.356 OA
HETATM   37  C   UNK N   1      28.571  52.018  58.997  0.00  0.00     0.210 C 
ENDBRANCH  33  36
ENDBRANCH   6  30
TORSDOF 10
ENDMDL
MODEL 7
REMARK VINA RESULT:      -5.1     15.941     18.978
REMARK  10 active torsions:
REMARK  status: ('A' for Active; 'I' for Inactive)
REMARK    1  A    between atoms: C_6  and  C_8 
REMARK    2  A    between atoms: C_11  and  O_12 
REMARK    3  A    between atoms: C_17  and  O_18 
REMARK    4  A    between atoms: O_18  and  C_19 
REMARK    5  A    between atoms: C_21  and  C_31 
REMARK    6  A    between atoms: C_22  and  O_23 
REMARK    7  A    between atoms: C_25  and  O_26 
REMARK    8  A    between atoms: C_28  and  O_29 
REMARK    9  A    between atoms: C_31  and  O_32 
REMARK   10  A    between atoms: C_35  and  O_36 
ROOT
HETATM    1  O   UNK N   1      31.312  41.962  60.406  0.00  0.00    -0.287 OA
HETATM    2  C   UNK N   1      30.722  42.382  59.427  0.00  0.00     0.190 A 
HETATM    3  C   UNK N   1      30.424  43.754  59.283  0.00  0.00     0.081 A 
HETATM    4  C   UNK N   1      29.751  44.163  58.113  0.00  0.00     0.095 A 
HETATM    5  O   UNK N   1      29.416  43.278  57.180  0.00  0.00    -0.309 OA
HETATM    6  C   UNK N   1      29.659  41.974  57.290  0.00  0.00     0.090 A 
HETATM    7  C   UNK N   1      30.326  41.488  58.429  0.00  0.00     0.094 A 
HETATM    8  C   UNK N   1      29.425  45.507  57.916  0.00  0.00     0.075 A 
HETATM    9  C   UNK N   1      29.759  46.469  58.885  0.00  0.00     0.077 A 
HETATM   10  C   UNK N   1      30.422  46.068  60.049  0.00  0.00     0.074 A 
HETATM   11  C   UNK N   1      30.769  44.723  60.257  0.00  0.00     0.085 A 
ENDROOT
BRANCH   9  12
HETATM   12  O   UNK N   1      29.482  47.790  58.716  0.00  0.00    -0.318 OA
BRANCH  12  13
HETATM   13  C   UNK N   1      28.692  48.319  57.705  0.00  0.00     0.298 C 
HETATM   14  O   UNK N   1      27.593  49.068  58.211  0.00  0.00    -0.348 OA
HETATM   15  C   UNK N   1      27.998  50.259  58.878  0.00  0.00     0.179 C 
HETATM   16  C   UNK N   1      28.811  51.196  57.946  0.00  0.00     0.180 C 
HETATM   17  C   UNK N   1      30.034  50.434  57.411  0.00  0.00     0.183 C 
HETATM   18  C   UNK N   1      29.547  49.146  56.729  0.00  0.00     0.205 C 
BRANCH  15  19
HETATM   19  C   UNK N   1      26.733  50.975  59.388  0.00  0.00     0.198 C 
BRANCH  19  20
HETATM   20  O   UNK N   1      26.291  51.946  58.475  0.00  0.00    -0.398 OA
HETATM   21  H   UNK N   1      25.894  52.684  59.008  0.00  0.00     0.209 HD
ENDBRANCH  19  20
ENDBRANCH  15  19
BRANCH  16  22
HETATM   22  O   UNK N   1      29.224  52.335  58.656  0.00  0.00    -0.390 OA
HETATM   23  H   UNK N   1      29.996  52.718  58.162  0.00  0.00     0.210 HD
ENDBRANCH  16  22
BRANCH  17  24
HETATM   24  O   UNK N   1      30.780  51.226  56.520  0.00  0.00    -0.390 OA
HETATM   25  H   UNK N   1      31.544  51.612  57.024  0.00  0.00     0.210 HD
ENDBRANCH  17  24
BRANCH  18  26
HETATM   26  O   UNK N   1      30.622  48.390  56.225  0.00  0.00    -0.388 OA
HETATM   27  H   UNK N   1      30.429  47.432  56.400  0.00  0.00     0.210 HD
ENDBRANCH  18  26
ENDBRANCH  12  13
ENDBRANCH   9  12
BRANCH  11  28
HETATM   28  O   UNK N   1      31.432  44.369  61.379  0.00  0.00    -0.360 OA
HETATM   29  H   UNK N   1      32.393  44.457  61.456  0.00  0.00     0.217 HD
ENDBRANCH  11  28
BRANCH   6  30
HETATM   30  C   UNK N   1      29.200  41.081  56.189  0.00  0.00    -0.002 A 
HETATM   31  C   UNK N   1      29.227  39.675  56.299  0.00  0.00     0.017 A 
HETATM   32  C   UNK N   1      28.761  38.876  55.251  0.00  0.00     0.037 A 
HETATM   33  C   UNK N   1      28.279  39.453  54.071  0.00  0.00     0.068 A 
HETATM   34  C   UNK N   1      28.258  40.856  53.954  0.00  0.00     0.037 A 
HETATM   35  C   UNK N   1      28.704  41.657  55.007  0.00  0.00     0.017 A 
BRANCH  33  36
HETATM   36  O   UNK N   1      27.844  38.636  53.076  0.00  0.00    -0.356 OA
HETATM   37  C   UNK N   1      27.058  37.515  53.257  0.00  0.00     0.210 C 
ENDBRANCH  33  36
ENDBRANCH   6  30
TORSDOF 10
ENDMDL
MODEL 8
REMARK VINA RESULT:      -5.1      1.429      1.940
REMARK  10 active torsions:
REMARK  status: ('A' for Active; 'I' for Inactive)
REMARK    1  A    between atoms: C_6  and  C_8 
REMARK    2  A    between atoms: C_11  and  O_12 
REMARK    3  A    between atoms: C_17  and  O_18 
REMARK    4  A    between atoms: O_18  and  C_19 
REMARK    5  A    between atoms: C_21  and  C_31 
REMARK    6  A    between atoms: C_22  and  O_23 
REMARK    7  A    between atoms: C_25  and  O_26 
REMARK    8  A    between atoms: C_28  and  O_29 
REMARK    9  A    between atoms: C_31  and  O_32 
REMARK   10  A    between atoms: C_35  and  O_36 
ROOT
HETATM    1  O   UNK N   1      32.938  50.036  42.926  0.00  0.00    -0.287 OA
HETATM    2  C   UNK N   1      32.515  51.179  42.910  0.00  0.00     0.190 A 
HETATM    3  C   UNK N   1      31.506  51.575  42.006  0.00  0.00     0.081 A 
HETATM    4  C   UNK N   1      31.060  52.912  42.060  0.00  0.00     0.095 A 
HETATM    5  O   UNK N   1      31.577  53.763  42.940  0.00  0.00    -0.309 OA
HETATM    6  C   UNK N   1      32.546  53.433  43.792  0.00  0.00     0.090 A 
HETATM    7  C   UNK N   1      33.044  52.118  43.799  0.00  0.00     0.094 A 
HETATM    8  C   UNK N   1      30.068  53.365  41.188  0.00  0.00     0.075 A 
HETATM    9  C   UNK N   1      29.503  52.493  40.241  0.00  0.00     0.077 A 
HETATM   10  C   UNK N   1      29.944  51.168  40.180  0.00  0.00     0.074 A 
HETATM   11  C   UNK N   1      30.933  50.693  41.058  0.00  0.00     0.085 A 
ENDROOT
BRANCH   9  12
HETATM   12  O   UNK N   1      28.516  52.889  39.393  0.00  0.00    -0.318 OA
BRANCH  12  13
HETATM   13  C   UNK N   1      28.021  52.139  38.335  0.00  0.00     0.298 C 
HETATM   14  O   UNK N   1      27.224  51.044  38.772  0.00  0.00    -0.348 OA
HETATM   15  C   UNK N   1      26.010  51.459  39.390  0.00  0.00     0.179 C 
HETATM   16  C   UNK N   1      25.140  52.318  38.435  0.00  0.00     0.180 C 
HETATM   17  C   UNK N   1      25.953  53.537  37.973  0.00  0.00     0.183 C 
HETATM   18  C   UNK N   1      27.263  53.039  37.343  0.00  0.00     0.205 C 
BRANCH  15  19
HETATM   19  C   UNK N   1      25.242  50.197  39.828  0.00  0.00     0.198 C 
BRANCH  19  20
HETATM   20  O   UNK N   1      24.273  50.499  40.799  0.00  0.00    -0.398 OA
HETATM   21  H   UNK N   1      23.428  50.689  40.315  0.00  0.00     0.209 HD
ENDBRANCH  19  20
ENDBRANCH  15  19
BRANCH  16  22
HETATM   22  O   UNK N   1      23.975  52.738  39.098  0.00  0.00    -0.390 OA
HETATM   23  H   UNK N   1      23.999  53.730  39.124  0.00  0.00     0.210 HD
ENDBRANCH  16  22
BRANCH  17  24
HETATM   24  O   UNK N   1      25.224  54.325  37.064  0.00  0.00    -0.390 OA
HETATM   25  H   UNK N   1      24.346  54.532  37.480  0.00  0.00     0.210 HD
ENDBRANCH  17  24
BRANCH  18  26
HETATM   26  O   UNK N   1      28.067  54.109  36.908  0.00  0.00    -0.388 OA
HETATM   27  H   UNK N   1      27.801  54.918  37.418  0.00  0.00     0.210 HD
ENDBRANCH  18  26
ENDBRANCH  12  13
ENDBRANCH   9  12
BRANCH  11  28
HETATM   28  O   UNK N   1      31.321  49.401  40.992  0.00  0.00    -0.360 OA
HETATM   29  H   UNK N   1      31.190  48.866  40.196  0.00  0.00     0.217 HD
ENDBRANCH  11  28
BRANCH   6  30
HETATM   30  C   UNK N   1      33.066  54.490  44.705  0.00  0.00    -0.002 A 
HETATM   31  C   UNK N   1      34.231  55.229  44.416  0.00  0.00     0.017 A 
HETATM   32  C   UNK N   1      34.667  56.231  45.287  0.00  0.00     0.037 A 
HETATM   33  C   UNK N   1      33.968  56.505  46.469  0.00  0.00     0.068 A 
HETATM   34  C   UNK N   1      32.808  55.764  46.765  0.00  0.00     0.037 A 
HETATM   35  C   UNK N   1      32.360  54.777  45.887  0.00  0.00     0.017 A 
BRANCH  33  36
HETATM   36  O   UNK N   1      34.434  57.482  47.290  0.00  0.00    -0.356 OA
HETATM   37  C   UNK N   1      33.679  58.154  48.231  0.00  0.00     0.210 C 
ENDBRANCH  33  36
ENDBRANCH   6  30
TORSDOF 10
ENDMDL
MODEL 9
REMARK VINA RESULT:      -5.1     23.415     26.066
REMARK  10 active torsions:
REMARK  status: ('A' for Active; 'I' for Inactive)
REMARK    1  A    between atoms: C_6  and  C_8 
REMARK    2  A    between atoms: C_11  and  O_12 
REMARK    3  A    between atoms: C_17  and  O_18 
REMARK    4  A    between atoms: O_18  and  C_19 
REMARK    5  A    between atoms: C_21  and  C_31 
REMARK    6  A    between atoms: C_22  and  O_23 
REMARK    7  A    between atoms: C_25  and  O_26 
REMARK    8  A    between atoms: C_28  and  O_29 
REMARK    9  A    between atoms: C_31  and  O_32 
REMARK   10  A    between atoms: C_35  and  O_36 
ROOT
HETATM    1  O   UNK N   1      51.618  56.094  53.378  0.00  0.00    -0.287 OA
HETATM    2  C   UNK N   1      50.935  55.791  54.340  0.00  0.00     0.190 A 
HETATM    3  C   UNK N   1      51.054  54.525  54.953  0.00  0.00     0.081 A 
HETATM    4  C   UNK N   1      50.238  54.256  56.073  0.00  0.00     0.095 A 
HETATM    5  O   UNK N   1      49.391  55.173  56.529  0.00  0.00    -0.309 OA
HETATM    6  C   UNK N   1      49.234  56.368  55.963  0.00  0.00     0.090 A 
HETATM    7  C   UNK N   1      50.012  56.711  54.843  0.00  0.00     0.094 A 
HETATM    8  C   UNK N   1      50.307  53.021  56.719  0.00  0.00     0.075 A 
HETATM    9  C   UNK N   1      51.187  52.026  56.260  0.00  0.00     0.077 A 
HETATM   10  C   UNK N   1      51.995  52.286  55.148  0.00  0.00     0.074 A 
HETATM   11  C   UNK N   1      51.948  53.528  54.494  0.00  0.00     0.085 A 
ENDROOT
BRANCH   9  12
HETATM   12  O   UNK N   1      51.302  50.821  56.879  0.00  0.00    -0.318 OA
BRANCH  12  13
HETATM   13  C   UNK N   1      52.172  50.537  57.922  0.00  0.00     0.298 C 
HETATM   14  O   UNK N   1      51.521  50.538  59.188  0.00  0.00    -0.348 OA
HETATM   15  C   UNK N   1      50.587  49.473  59.327  0.00  0.00     0.179 C 
HETATM   16  C   UNK N   1      51.261  48.086  59.152  0.00  0.00     0.180 C 
HETATM   17  C   UNK N   1      51.942  48.030  57.775  0.00  0.00     0.183 C 
HETATM   18  C   UNK N   1      52.914  49.214  57.662  0.00  0.00     0.205 C 
BRANCH  15  19
HETATM   19  C   UNK N   1      49.942  49.583  60.722  0.00  0.00     0.198 C 
BRANCH  19  20
HETATM   20  O   UNK N   1      50.424  48.588  61.589  0.00  0.00    -0.398 OA
HETATM   21  H   UNK N   1      50.590  47.780  61.038  0.00  0.00     0.209 HD
ENDBRANCH  19  20
ENDBRANCH  15  19
BRANCH  16  22
HETATM   22  O   UNK N   1      50.298  47.069  59.256  0.00  0.00    -0.390 OA
HETATM   23  H   UNK N   1      50.141  46.724  58.338  0.00  0.00     0.210 HD
ENDBRANCH  16  22
BRANCH  17  24
HETATM   24  O   UNK N   1      52.612  46.807  57.585  0.00  0.00    -0.390 OA
HETATM   25  H   UNK N   1      51.942  46.078  57.669  0.00  0.00     0.210 HD
ENDBRANCH  17  24
BRANCH  18  26
HETATM   26  O   UNK N   1      53.566  49.231  56.415  0.00  0.00    -0.388 OA
HETATM   27  H   UNK N   1      52.871  49.289  55.708  0.00  0.00     0.210 HD
ENDBRANCH  18  26
ENDBRANCH  12  13
ENDBRANCH   9  12
BRANCH  11  28
HETATM   28  O   UNK N   1      52.758  53.759  53.439  0.00  0.00    -0.360 OA
HETATM   29  H   UNK N   1      53.681  54.029  53.550  0.00  0.00     0.217 HD
ENDBRANCH  11  28
BRANCH   6  30
HETATM   30  C   UNK N   1      48.225  57.294  56.550  0.00  0.00    -0.002 A 
HETATM   31  C   UNK N   1      48.185  58.666  56.231  0.00  0.00     0.017 A 
HETATM   32  C   UNK N   1      47.203  59.493  56.784  0.00  0.00     0.037 A 
HETATM   33  C   UNK N   1      46.256  58.979  57.677  0.00  0.00     0.068 A 
HETATM   34  C   UNK N   1      46.297  57.610  58.005  0.00  0.00     0.037 A 
HETATM   35  C   UNK N   1      47.264  56.779  57.439  0.00  0.00     0.017 A 
BRANCH  33  36
HETATM   36  O   UNK N   1      45.325  59.822  58.197  0.00  0.00    -0.356 OA
HETATM   37  C   UNK N   1      44.080  59.441  58.656  0.00  0.00     0.210 C 
ENDBRANCH  33  36
ENDBRANCH   6  30
TORSDOF 10
ENDMDL
