MODEL 1
REMARK VINA RESULT:      -6.3      0.000      0.000
REMARK  10 active torsions:
REMARK  status: ('A' for Active; 'I' for Inactive)
REMARK    1  A    between atoms: C_6  and  C_8 
REMARK    2  A    between atoms: C_11  and  O_12 
REMARK    3  A    between atoms: C_17  and  O_18 
REMARK    4  A    between atoms: O_18  and  C_19 
REMARK    5  A    between atoms: C_21  and  C_31 
REMARK    6  A    between atoms: C_22  and  O_23 
REMARK    7  A    between atoms: C_25  and  O_26 
REMARK    8  A    between atoms: C_28  and  O_29 
REMARK    9  A    between atoms: C_31  and  O_32 
REMARK   10  A    between atoms: C_35  and  O_36 
ROOT
HETATM    1  O   UNK N   1      33.378  49.362  43.776  0.00  0.00    -0.287 OA
HETATM    2  C   UNK N   1      32.902  50.437  43.473  0.00  0.00     0.190 A 
HETATM    3  C   UNK N   1      31.940  50.568  42.436  0.00  0.00     0.081 A 
HETATM    4  C   UNK N   1      31.453  51.875  42.177  0.00  0.00     0.095 A 
HETATM    5  O   UNK N   1      31.867  52.915  42.895  0.00  0.00    -0.309 OA
HETATM    6  C   UNK N   1      32.768  52.822  43.865  0.00  0.00     0.090 A 
HETATM    7  C   UNK N   1      33.318  51.571  44.174  0.00  0.00     0.094 A 
HETATM    8  C   UNK N   1      30.520  52.102  41.169  0.00  0.00     0.075 A 
HETATM    9  C   UNK N   1      30.019  51.050  40.410  0.00  0.00     0.077 A 
HETATM   10  C   UNK N   1      30.475  49.745  40.652  0.00  0.00     0.074 A 
HETATM   11  C   UNK N   1      31.429  49.483  41.647  0.00  0.00     0.085 A 
ENDROOT
BRANCH   9  12
HETATM   12  O   UNK N   1      29.068  51.334  39.483  0.00  0.00    -0.318 OA
BRANCH  12  13
HETATM   13  C   UNK N   1      28.150  52.362  39.563  0.00  0.00     0.298 C 
HETATM   14  O   UNK N   1      28.269  53.050  40.801  0.00  0.00    -0.348 OA
HETATM   15  C   UNK N   1      27.391  54.172  40.820  0.00  0.00     0.179 C 
HETATM   16  C   UNK N   1      25.910  53.714  40.742  0.00  0.00     0.180 C 
HETATM   17  C   UNK N   1      25.701  52.875  39.468  0.00  0.00     0.183 C 
HETATM   18  C   UNK N   1      26.743  51.750  39.434  0.00  0.00     0.205 C 
BRANCH  15  19
HETATM   19  C   UNK N   1      27.654  54.991  42.092  0.00  0.00     0.198 C 
BRANCH  19  20
HETATM   20  O   UNK N   1      26.566  54.891  42.970  0.00  0.00    -0.398 OA
HETATM   21  H   UNK N   1      26.008  54.142  42.634  0.00  0.00     0.209 HD
ENDBRANCH  19  20
ENDBRANCH  15  19
BRANCH  16  22
HETATM   22  O   UNK N   1      25.066  54.838  40.718  0.00  0.00    -0.390 OA
HETATM   23  H   UNK N   1      24.352  54.653  40.054  0.00  0.00     0.210 HD
ENDBRANCH  16  22
BRANCH  17  24
HETATM   24  O   UNK N   1      24.413  52.317  39.443  0.00  0.00    -0.390 OA
HETATM   25  H   UNK N   1      24.432  51.518  40.031  0.00  0.00     0.210 HD
ENDBRANCH  17  24
BRANCH  18  26
HETATM   26  O   UNK N   1      26.623  50.993  38.255  0.00  0.00    -0.388 OA
HETATM   27  H   UNK N   1      26.829  50.048  38.479  0.00  0.00     0.210 HD
ENDBRANCH  18  26
ENDBRANCH  12  13
ENDBRANCH   9  12
BRANCH  11  28
HETATM   28  O   UNK N   1      31.803  48.192  41.805  0.00  0.00    -0.360 OA
HETATM   29  H   UNK N   1      31.221  47.437  41.927  0.00  0.00     0.217 HD
ENDBRANCH  11  28
BRANCH   6  30
HETATM   30  C   UNK N   1      33.148  54.063  44.597  0.00  0.00    -0.002 A 
HETATM   31  C   UNK N   1      34.300  54.804  44.266  0.00  0.00     0.017 A 
HETATM   32  C   UNK N   1      34.617  55.972  44.965  0.00  0.00     0.037 A 
HETATM   33  C   UNK N   1      33.808  56.415  46.018  0.00  0.00     0.068 A 
HETATM   34  C   UNK N   1      32.660  55.674  46.358  0.00  0.00     0.037 A 
HETATM   35  C   UNK N   1      32.330  54.518  45.647  0.00  0.00     0.017 A 
BRANCH  33  36
HETATM   36  O   UNK N   1      34.163  57.551  46.674  0.00  0.00    -0.356 OA
HETATM   37  C   UNK N   1      34.084  57.736  48.040  0.00  0.00     0.210 C 
ENDBRANCH  33  36
ENDBRANCH   6  30
TORSDOF 10
ENDMDL
MODEL 2
REMARK VINA RESULT:      -6.3     14.921     16.841
REMARK  10 active torsions:
REMARK  status: ('A' for Active; 'I' for Inactive)
REMARK    1  A    between atoms: C_6  and  C_8 
REMARK    2  A    between atoms: C_11  and  O_12 
REMARK    3  A    between atoms: C_17  and  O_18 
REMARK    4  A    between atoms: O_18  and  C_19 
REMARK    5  A    between atoms: C_21  and  C_31 
REMARK    6  A    between atoms: C_22  and  O_23 
REMARK    7  A    between atoms: C_25  and  O_26 
REMARK    8  A    between atoms: C_28  and  O_29 
REMARK    9  A    between atoms: C_31  and  O_32 
REMARK   10  A    between atoms: C_35  and  O_36 
ROOT
HETATM    1  O   UNK N   1      31.474  43.577  60.706  0.00  0.00    -0.287 OA
HETATM    2  C   UNK N   1      30.870  44.087  59.784  0.00  0.00     0.190 A 
HETATM    3  C   UNK N   1      30.338  43.317  58.716  0.00  0.00     0.081 A 
HETATM    4  C   UNK N   1      29.649  44.026  57.698  0.00  0.00     0.095 A 
HETATM    5  O   UNK N   1      29.493  45.344  57.767  0.00  0.00    -0.309 OA
HETATM    6  C   UNK N   1      29.984  46.089  58.751  0.00  0.00     0.090 A 
HETATM    7  C   UNK N   1      30.698  45.473  59.788  0.00  0.00     0.094 A 
HETATM    8  C   UNK N   1      29.107  43.356  56.604  0.00  0.00     0.075 A 
HETATM    9  C   UNK N   1      29.202  41.974  56.495  0.00  0.00     0.077 A 
HETATM   10  C   UNK N   1      29.869  41.246  57.492  0.00  0.00     0.074 A 
HETATM   11  C   UNK N   1      30.443  41.890  58.599  0.00  0.00     0.085 A 
ENDROOT
BRANCH   9  12
HETATM   12  O   UNK N   1      28.601  41.379  55.432  0.00  0.00    -0.318 OA
BRANCH  12  13
HETATM   13  C   UNK N   1      28.208  42.017  54.273  0.00  0.00     0.298 C 
HETATM   14  O   UNK N   1      26.896  41.621  53.898  0.00  0.00    -0.348 OA
HETATM   15  C   UNK N   1      26.467  42.370  52.765  0.00  0.00     0.179 C 
HETATM   16  C   UNK N   1      27.359  42.064  51.531  0.00  0.00     0.180 C 
HETATM   17  C   UNK N   1      28.827  42.378  51.873  0.00  0.00     0.183 C 
HETATM   18  C   UNK N   1      29.208  41.642  53.164  0.00  0.00     0.205 C 
BRANCH  15  19
HETATM   19  C   UNK N   1      24.994  42.044  52.479  0.00  0.00     0.198 C 
BRANCH  19  20
HETATM   20  O   UNK N   1      24.424  43.032  51.664  0.00  0.00    -0.398 OA
HETATM   21  H   UNK N   1      25.002  43.092  50.859  0.00  0.00     0.209 HD
ENDBRANCH  19  20
ENDBRANCH  15  19
BRANCH  16  22
HETATM   22  O   UNK N   1      26.945  42.846  50.440  0.00  0.00    -0.390 OA
HETATM   23  H   UNK N   1      27.110  43.794  50.680  0.00  0.00     0.210 HD
ENDBRANCH  16  22
BRANCH  17  24
HETATM   24  O   UNK N   1      29.679  41.969  50.835  0.00  0.00    -0.390 OA
HETATM   25  H   UNK N   1      30.518  42.490  50.928  0.00  0.00     0.210 HD
ENDBRANCH  17  24
BRANCH  18  26
HETATM   26  O   UNK N   1      30.527  41.948  53.543  0.00  0.00    -0.388 OA
HETATM   27  H   UNK N   1      30.968  42.397  52.774  0.00  0.00     0.210 HD
ENDBRANCH  18  26
ENDBRANCH  12  13
ENDBRANCH   9  12
BRANCH  11  28
HETATM   28  O   UNK N   1      31.063  41.101  59.508  0.00  0.00    -0.360 OA
HETATM   29  H   UNK N   1      31.816  41.339  60.055  0.00  0.00     0.217 HD
ENDBRANCH  11  28
BRANCH   6  30
HETATM   30  C   UNK N   1      29.741  47.558  58.714  0.00  0.00    -0.002 A 
HETATM   31  C   UNK N   1      29.995  48.330  57.562  0.00  0.00     0.017 A 
HETATM   32  C   UNK N   1      29.740  49.704  57.561  0.00  0.00     0.037 A 
HETATM   33  C   UNK N   1      29.248  50.341  58.706  0.00  0.00     0.068 A 
HETATM   34  C   UNK N   1      29.000  49.576  59.862  0.00  0.00     0.037 A 
HETATM   35  C   UNK N   1      29.234  48.199  59.859  0.00  0.00     0.017 A 
BRANCH  33  36
HETATM   36  O   UNK N   1      29.025  51.681  58.659  0.00  0.00    -0.356 OA
HETATM   37  C   UNK N   1      28.255  52.389  59.558  0.00  0.00     0.210 C 
ENDBRANCH  33  36
ENDBRANCH   6  30
TORSDOF 10
ENDMDL
MODEL 3
REMARK VINA RESULT:      -6.0     15.173     18.170
REMARK  10 active torsions:
REMARK  status: ('A' for Active; 'I' for Inactive)
REMARK    1  A    between atoms: C_6  and  C_8 
REMARK    2  A    between atoms: C_11  and  O_12 
REMARK    3  A    between atoms: C_17  and  O_18 
REMARK    4  A    between atoms: O_18  and  C_19 
REMARK    5  A    between atoms: C_21  and  C_31 
REMARK    6  A    between atoms: C_22  and  O_23 
REMARK    7  A    between atoms: C_25  and  O_26 
REMARK    8  A    between atoms: C_28  and  O_29 
REMARK    9  A    between atoms: C_31  and  O_32 
REMARK   10  A    between atoms: C_35  and  O_36 
ROOT
HETATM    1  O   UNK N   1      29.850  39.912  58.454  0.00  0.00    -0.287 OA
HETATM    2  C   UNK N   1      29.661  40.868  57.730  0.00  0.00     0.190 A 
HETATM    3  C   UNK N   1      29.911  42.199  58.160  0.00  0.00     0.081 A 
HETATM    4  C   UNK N   1      29.655  43.232  57.222  0.00  0.00     0.095 A 
HETATM    5  O   UNK N   1      29.228  42.953  55.994  0.00  0.00    -0.309 OA
HETATM    6  C   UNK N   1      28.983  41.720  55.568  0.00  0.00     0.090 A 
HETATM    7  C   UNK N   1      29.187  40.639  56.436  0.00  0.00     0.094 A 
HETATM    8  C   UNK N   1      29.856  44.568  57.560  0.00  0.00     0.075 A 
HETATM    9  C   UNK N   1      30.339  44.922  58.815  0.00  0.00     0.077 A 
HETATM   10  C   UNK N   1      30.609  43.919  59.759  0.00  0.00     0.074 A 
HETATM   11  C   UNK N   1      30.401  42.565  59.459  0.00  0.00     0.085 A 
ENDROOT
BRANCH   9  12
HETATM   12  O   UNK N   1      30.566  46.238  59.059  0.00  0.00    -0.318 OA
BRANCH  12  13
HETATM   13  C   UNK N   1      29.867  47.290  58.500  0.00  0.00     0.298 C 
HETATM   14  O   UNK N   1      30.709  48.066  57.659  0.00  0.00    -0.348 OA
HETATM   15  C   UNK N   1      29.946  49.078  57.008  0.00  0.00     0.179 C 
HETATM   16  C   UNK N   1      29.359  50.077  58.042  0.00  0.00     0.180 C 
HETATM   17  C   UNK N   1      28.498  49.310  59.061  0.00  0.00     0.183 C 
HETATM   18  C   UNK N   1      29.324  48.160  59.649  0.00  0.00     0.205 C 
BRANCH  15  19
HETATM   19  C   UNK N   1      30.837  49.796  55.985  0.00  0.00     0.198 C 
BRANCH  19  20
HETATM   20  O   UNK N   1      30.077  50.220  54.887  0.00  0.00    -0.398 OA
HETATM   21  H   UNK N   1      29.330  49.572  54.803  0.00  0.00     0.209 HD
ENDBRANCH  19  20
ENDBRANCH  15  19
BRANCH  16  22
HETATM   22  O   UNK N   1      28.576  51.039  57.381  0.00  0.00    -0.390 OA
HETATM   23  H   UNK N   1      28.008  50.553  56.728  0.00  0.00     0.210 HD
ENDBRANCH  16  22
BRANCH  17  24
HETATM   24  O   UNK N   1      28.077  50.158  60.097  0.00  0.00    -0.390 OA
HETATM   25  H   UNK N   1      27.703  50.972  59.672  0.00  0.00     0.210 HD
ENDBRANCH  17  24
BRANCH  18  26
HETATM   26  O   UNK N   1      28.553  47.397  60.545  0.00  0.00    -0.388 OA
HETATM   27  H   UNK N   1      27.597  47.526  60.308  0.00  0.00     0.210 HD
ENDBRANCH  18  26
ENDBRANCH  12  13
ENDBRANCH   9  12
BRANCH  11  28
HETATM   28  O   UNK N   1      30.694  41.673  60.435  0.00  0.00    -0.360 OA
HETATM   29  H   UNK N   1      30.868  41.872  61.358  0.00  0.00     0.217 HD
ENDBRANCH  11  28
BRANCH   6  30
HETATM   30  C   UNK N   1      28.508  41.538  54.168  0.00  0.00    -0.002 A 
HETATM   31  C   UNK N   1      27.387  40.742  53.854  0.00  0.00     0.017 A 
HETATM   32  C   UNK N   1      26.962  40.607  52.530  0.00  0.00     0.037 A 
HETATM   33  C   UNK N   1      27.650  41.243  51.491  0.00  0.00     0.068 A 
HETATM   34  C   UNK N   1      28.775  42.034  51.797  0.00  0.00     0.037 A 
HETATM   35  C   UNK N   1      29.189  42.187  53.122  0.00  0.00     0.017 A 
BRANCH  33  36
HETATM   36  O   UNK N   1      27.204  41.075  50.218  0.00  0.00    -0.356 OA
HETATM   37  C   UNK N   1      25.882  41.135  49.826  0.00  0.00     0.210 C 
ENDBRANCH  33  36
ENDBRANCH   6  30
TORSDOF 10
ENDMDL
MODEL 4
REMARK VINA RESULT:      -5.9     22.356     25.659
REMARK  10 active torsions:
REMARK  status: ('A' for Active; 'I' for Inactive)
REMARK    1  A    between atoms: C_6  and  C_8 
REMARK    2  A    between atoms: C_11  and  O_12 
REMARK    3  A    between atoms: C_17  and  O_18 
REMARK    4  A    between atoms: O_18  and  C_19 
REMARK    5  A    between atoms: C_21  and  C_31 
REMARK    6  A    between atoms: C_22  and  O_23 
REMARK    7  A    between atoms: C_25  and  O_26 
REMARK    8  A    between atoms: C_28  and  O_29 
REMARK    9  A    between atoms: C_31  and  O_32 
REMARK   10  A    between atoms: C_35  and  O_36 
ROOT
HETATM    1  O   UNK N   1      53.190  50.653  55.856  0.00  0.00    -0.287 OA
HETATM    2  C   UNK N   1      52.326  51.404  56.261  0.00  0.00     0.190 A 
HETATM    3  C   UNK N   1      51.703  51.224  57.524  0.00  0.00     0.081 A 
HETATM    4  C   UNK N   1      50.710  52.169  57.888  0.00  0.00     0.095 A 
HETATM    5  O   UNK N   1      50.406  53.186  57.088  0.00  0.00    -0.309 OA
HETATM    6  C   UNK N   1      50.968  53.376  55.900  0.00  0.00     0.090 A 
HETATM    7  C   UNK N   1      51.944  52.476  55.451  0.00  0.00     0.094 A 
HETATM    8  C   UNK N   1      50.035  52.063  59.101  0.00  0.00     0.075 A 
HETATM    9  C   UNK N   1      50.336  51.045  60.000  0.00  0.00     0.077 A 
HETATM   10  C   UNK N   1      51.321  50.102  59.669  0.00  0.00     0.074 A 
HETATM   11  C   UNK N   1      52.008  50.167  58.448  0.00  0.00     0.085 A 
ENDROOT
BRANCH   9  12
HETATM   12  O   UNK N   1      49.681  51.034  61.189  0.00  0.00    -0.318 OA
BRANCH  12  13
HETATM   13  C   UNK N   1      48.458  50.438  61.425  0.00  0.00     0.298 C 
HETATM   14  O   UNK N   1      47.411  51.398  61.380  0.00  0.00    -0.348 OA
HETATM   15  C   UNK N   1      46.150  50.748  61.517  0.00  0.00     0.179 C 
HETATM   16  C   UNK N   1      46.028  50.067  62.907  0.00  0.00     0.180 C 
HETATM   17  C   UNK N   1      47.184  49.067  63.089  0.00  0.00     0.183 C 
HETATM   18  C   UNK N   1      48.512  49.783  62.818  0.00  0.00     0.205 C 
BRANCH  15  19
HETATM   19  C   UNK N   1      45.031  51.777  61.302  0.00  0.00     0.198 C 
BRANCH  19  20
HETATM   20  O   UNK N   1      43.865  51.144  60.852  0.00  0.00    -0.398 OA
HETATM   21  H   UNK N   1      43.353  51.833  60.354  0.00  0.00     0.209 HD
ENDBRANCH  19  20
ENDBRANCH  15  19
BRANCH  16  22
HETATM   22  O   UNK N   1      44.796  49.397  63.001  0.00  0.00    -0.390 OA
HETATM   23  H   UNK N   1      44.175  49.996  63.490  0.00  0.00     0.210 HD
ENDBRANCH  16  22
BRANCH  17  24
HETATM   24  O   UNK N   1      47.193  48.547  64.393  0.00  0.00    -0.390 OA
HETATM   25  H   UNK N   1      47.976  48.940  64.856  0.00  0.00     0.210 HD
ENDBRANCH  17  24
BRANCH  18  26
HETATM   26  O   UNK N   1      49.593  48.888  62.918  0.00  0.00    -0.388 OA
HETATM   27  H   UNK N   1      49.489  48.380  63.765  0.00  0.00     0.210 HD
ENDBRANCH  18  26
ENDBRANCH  12  13
ENDBRANCH   9  12
BRANCH  11  28
HETATM   28  O   UNK N   1      52.942  49.213  58.223  0.00  0.00    -0.360 OA
HETATM   29  H   UNK N   1      53.295  48.947  57.370  0.00  0.00     0.217 HD
ENDBRANCH  11  28
BRANCH   6  30
HETATM   30  C   UNK N   1      50.540  54.555  55.096  0.00  0.00    -0.002 A 
HETATM   31  C   UNK N   1      50.620  54.570  53.689  0.00  0.00     0.017 A 
HETATM   32  C   UNK N   1      50.194  55.689  52.968  0.00  0.00     0.037 A 
HETATM   33  C   UNK N   1      49.701  56.819  53.629  0.00  0.00     0.068 A 
HETATM   34  C   UNK N   1      49.627  56.813  55.035  0.00  0.00     0.037 A 
HETATM   35  C   UNK N   1      50.031  55.688  55.757  0.00  0.00     0.017 A 
BRANCH  33  36
HETATM   36  O   UNK N   1      49.308  57.887  52.885  0.00  0.00    -0.356 OA
HETATM   37  C   UNK N   1      48.343  58.801  53.255  0.00  0.00     0.210 C 
ENDBRANCH  33  36
ENDBRANCH   6  30
TORSDOF 10
ENDMDL
MODEL 5
REMARK VINA RESULT:      -5.9      2.610      5.365
REMARK  10 active torsions:
REMARK  status: ('A' for Active; 'I' for Inactive)
REMARK    1  A    between atoms: C_6  and  C_8 
REMARK    2  A    between atoms: C_11  and  O_12 
REMARK    3  A    between atoms: C_17  and  O_18 
REMARK    4  A    between atoms: O_18  and  C_19 
REMARK    5  A    between atoms: C_21  and  C_31 
REMARK    6  A    between atoms: C_22  and  O_23 
REMARK    7  A    between atoms: C_25  and  O_26 
REMARK    8  A    between atoms: C_28  and  O_29 
REMARK    9  A    between atoms: C_31  and  O_32 
REMARK   10  A    between atoms: C_35  and  O_36 
ROOT
HETATM    1  O   UNK N   1      31.338  55.726  43.880  0.00  0.00    -0.287 OA
HETATM    2  C   UNK N   1      31.146  54.734  43.205  0.00  0.00     0.190 A 
HETATM    3  C   UNK N   1      30.166  54.701  42.178  0.00  0.00     0.081 A 
HETATM    4  C   UNK N   1      30.038  53.487  41.456  0.00  0.00     0.095 A 
HETATM    5  O   UNK N   1      30.822  52.447  41.720  0.00  0.00    -0.309 OA
HETATM    6  C   UNK N   1      31.742  52.448  42.677  0.00  0.00     0.090 A 
HETATM    7  C   UNK N   1      31.922  53.600  43.455  0.00  0.00     0.094 A 
HETATM    8  C   UNK N   1      29.092  53.357  40.442  0.00  0.00     0.075 A 
HETATM    9  C   UNK N   1      28.270  54.422  40.091  0.00  0.00     0.077 A 
HETATM   10  C   UNK N   1      28.382  55.638  40.783  0.00  0.00     0.074 A 
HETATM   11  C   UNK N   1      29.311  55.798  41.823  0.00  0.00     0.085 A 
ENDROOT
BRANCH   9  12
HETATM   12  O   UNK N   1      27.411  54.245  39.055  0.00  0.00    -0.318 OA
BRANCH  12  13
HETATM   13  C   UNK N   1      26.530  53.190  38.914  0.00  0.00     0.298 C 
HETATM   14  O   UNK N   1      26.562  52.349  40.059  0.00  0.00    -0.348 OA
HETATM   15  C   UNK N   1      25.571  51.332  39.942  0.00  0.00     0.179 C 
HETATM   16  C   UNK N   1      25.876  50.402  38.736  0.00  0.00     0.180 C 
HETATM   17  C   UNK N   1      25.954  51.243  37.450  0.00  0.00     0.183 C 
HETATM   18  C   UNK N   1      26.945  52.393  37.664  0.00  0.00     0.205 C 
BRANCH  15  19
HETATM   19  C   UNK N   1      25.512  50.538  41.255  0.00  0.00     0.198 C 
BRANCH  19  20
HETATM   20  O   UNK N   1      26.548  49.596  41.303  0.00  0.00    -0.398 OA
HETATM   21  H   UNK N   1      26.468  49.144  42.183  0.00  0.00     0.209 HD
ENDBRANCH  19  20
ENDBRANCH  15  19
BRANCH  16  22
HETATM   22  O   UNK N   1      24.863  49.435  38.615  0.00  0.00    -0.390 OA
HETATM   23  H   UNK N   1      25.245  48.674  38.106  0.00  0.00     0.210 HD
ENDBRANCH  16  22
BRANCH  17  24
HETATM   24  O   UNK N   1      26.378  50.458  36.365  0.00  0.00    -0.390 OA
HETATM   25  H   UNK N   1      25.943  50.826  35.554  0.00  0.00     0.210 HD
ENDBRANCH  17  24
BRANCH  18  26
HETATM   26  O   UNK N   1      27.002  53.221  36.528  0.00  0.00    -0.388 OA
HETATM   27  H   UNK N   1      26.118  53.181  36.077  0.00  0.00     0.210 HD
ENDBRANCH  18  26
ENDBRANCH  12  13
ENDBRANCH   9  12
BRANCH  11  28
HETATM   28  O   UNK N   1      29.345  57.010  42.426  0.00  0.00    -0.360 OA
HETATM   29  H   UNK N   1      29.234  57.186  43.364  0.00  0.00     0.217 HD
ENDBRANCH  11  28
BRANCH   6  30
HETATM   30  C   UNK N   1      32.559  51.218  42.874  0.00  0.00    -0.002 A 
HETATM   31  C   UNK N   1      33.886  51.268  43.347  0.00  0.00     0.017 A 
HETATM   32  C   UNK N   1      34.615  50.090  43.534  0.00  0.00     0.037 A 
HETATM   33  C   UNK N   1      34.050  48.845  43.238  0.00  0.00     0.068 A 
HETATM   34  C   UNK N   1      32.727  48.790  42.758  0.00  0.00     0.037 A 
HETATM   35  C   UNK N   1      31.989  49.964  42.590  0.00  0.00     0.017 A 
BRANCH  33  36
HETATM   36  O   UNK N   1      34.802  47.729  43.428  0.00  0.00    -0.356 OA
HETATM   37  C   UNK N   1      36.040  47.501  42.862  0.00  0.00     0.210 C 
ENDBRANCH  33  36
ENDBRANCH   6  30
TORSDOF 10
ENDMDL
MODEL 6
REMARK VINA RESULT:      -5.9     15.384     18.530
REMARK  10 active torsions:
REMARK  status: ('A' for Active; 'I' for Inactive)
REMARK    1  A    between atoms: C_6  and  C_8 
REMARK    2  A    between atoms: C_11  and  O_12 
REMARK    3  A    between atoms: C_17  and  O_18 
REMARK    4  A    between atoms: O_18  and  C_19 
REMARK    5  A    between atoms: C_21  and  C_31 
REMARK    6  A    between atoms: C_22  and  O_23 
REMARK    7  A    between atoms: C_25  and  O_26 
REMARK    8  A    between atoms: C_28  and  O_29 
REMARK    9  A    between atoms: C_31  and  O_32 
REMARK   10  A    between atoms: C_35  and  O_36 
ROOT
HETATM    1  O   UNK N   1      32.629  42.767  55.640  0.00  0.00    -0.287 OA
HETATM    2  C   UNK N   1      31.431  42.715  55.829  0.00  0.00     0.190 A 
HETATM    3  C   UNK N   1      30.773  43.594  56.730  0.00  0.00     0.081 A 
HETATM    4  C   UNK N   1      29.369  43.439  56.863  0.00  0.00     0.095 A 
HETATM    5  O   UNK N   1      28.710  42.530  56.153  0.00  0.00    -0.309 OA
HETATM    6  C   UNK N   1      29.299  41.693  55.308  0.00  0.00     0.090 A 
HETATM    7  C   UNK N   1      30.688  41.761  55.131  0.00  0.00     0.094 A 
HETATM    8  C   UNK N   1      28.643  44.246  57.735  0.00  0.00     0.075 A 
HETATM    9  C   UNK N   1      29.269  45.242  58.476  0.00  0.00     0.077 A 
HETATM   10  C   UNK N   1      30.655  45.424  58.356  0.00  0.00     0.074 A 
HETATM   11  C   UNK N   1      31.421  44.617  57.501  0.00  0.00     0.085 A 
ENDROOT
BRANCH   9  12
HETATM   12  O   UNK N   1      28.492  46.030  59.263  0.00  0.00    -0.318 OA
BRANCH  12  13
HETATM   13  C   UNK N   1      28.386  47.404  59.167  0.00  0.00     0.298 C 
HETATM   14  O   UNK N   1      28.915  47.866  57.933  0.00  0.00    -0.348 OA
HETATM   15  C   UNK N   1      28.697  49.269  57.806  0.00  0.00     0.179 C 
HETATM   16  C   UNK N   1      29.470  50.048  58.905  0.00  0.00     0.180 C 
HETATM   17  C   UNK N   1      29.029  49.547  60.291  0.00  0.00     0.183 C 
HETATM   18  C   UNK N   1      29.171  48.021  60.340  0.00  0.00     0.205 C 
BRANCH  15  19
HETATM   19  C   UNK N   1      29.126  49.717  56.401  0.00  0.00     0.198 C 
BRANCH  19  20
HETATM   20  O   UNK N   1      30.424  49.268  56.121  0.00  0.00    -0.398 OA
HETATM   21  H   UNK N   1      30.369  48.795  55.249  0.00  0.00     0.209 HD
ENDBRANCH  19  20
ENDBRANCH  15  19
BRANCH  16  22
HETATM   22  O   UNK N   1      29.205  51.424  58.786  0.00  0.00    -0.390 OA
HETATM   23  H   UNK N   1      29.477  51.847  59.641  0.00  0.00     0.210 HD
ENDBRANCH  16  22
BRANCH  17  24
HETATM   24  O   UNK N   1      29.816  50.120  61.303  0.00  0.00    -0.390 OA
HETATM   25  H   UNK N   1      30.763  50.022  61.024  0.00  0.00     0.210 HD
ENDBRANCH  17  24
BRANCH  18  26
HETATM   26  O   UNK N   1      28.723  47.516  61.574  0.00  0.00    -0.388 OA
HETATM   27  H   UNK N   1      29.080  48.104  62.291  0.00  0.00     0.210 HD
ENDBRANCH  18  26
ENDBRANCH  12  13
ENDBRANCH   9  12
BRANCH  11  28
HETATM   28  O   UNK N   1      32.750  44.872  57.453  0.00  0.00    -0.360 OA
HETATM   29  H   UNK N   1      33.344  44.961  58.203  0.00  0.00     0.217 HD
ENDBRANCH  11  28
BRANCH   6  30
HETATM   30  C   UNK N   1      28.449  40.718  54.570  0.00  0.00    -0.002 A 
HETATM   31  C   UNK N   1      28.661  39.326  54.652  0.00  0.00     0.017 A 
HETATM   32  C   UNK N   1      27.832  38.442  53.957  0.00  0.00     0.037 A 
HETATM   33  C   UNK N   1      26.791  38.920  53.154  0.00  0.00     0.068 A 
HETATM   34  C   UNK N   1      26.580  40.309  53.061  0.00  0.00     0.037 A 
HETATM   35  C   UNK N   1      27.393  41.194  53.772  0.00  0.00     0.017 A 
BRANCH  33  36
HETATM   36  O   UNK N   1      26.018  38.020  52.490  0.00  0.00    -0.356 OA
HETATM   37  C   UNK N   1      24.643  38.079  52.387  0.00  0.00     0.210 C 
ENDBRANCH  33  36
ENDBRANCH   6  30
TORSDOF 10
ENDMDL
MODEL 7
REMARK VINA RESULT:      -5.7     15.564     17.572
REMARK  10 active torsions:
REMARK  status: ('A' for Active; 'I' for Inactive)
REMARK    1  A    between atoms: C_6  and  C_8 
REMARK    2  A    between atoms: C_11  and  O_12 
REMARK    3  A    between atoms: C_17  and  O_18 
REMARK    4  A    between atoms: O_18  and  C_19 
REMARK    5  A    between atoms: C_21  and  C_31 
REMARK    6  A    between atoms: C_22  and  O_23 
REMARK    7  A    between atoms: C_25  and  O_26 
REMARK    8  A    between atoms: C_28  and  O_29 
REMARK    9  A    between atoms: C_31  and  O_32 
REMARK   10  A    between atoms: C_35  and  O_36 
ROOT
HETATM    1  O   UNK N   1      32.037  43.648  60.769  0.00  0.00    -0.287 OA
HETATM    2  C   UNK N   1      31.225  44.079  59.975  0.00  0.00     0.190 A 
HETATM    3  C   UNK N   1      30.480  43.222  59.122  0.00  0.00     0.081 A 
HETATM    4  C   UNK N   1      29.559  43.842  58.239  0.00  0.00     0.095 A 
HETATM    5  O   UNK N   1      29.392  45.161  58.240  0.00  0.00    -0.309 OA
HETATM    6  C   UNK N   1      30.077  45.985  59.023  0.00  0.00     0.090 A 
HETATM    7  C   UNK N   1      31.025  45.459  59.911  0.00  0.00     0.094 A 
HETATM    8  C   UNK N   1      28.797  43.083  57.355  0.00  0.00     0.075 A 
HETATM    9  C   UNK N   1      28.897  41.696  57.335  0.00  0.00     0.077 A 
HETATM   10  C   UNK N   1      29.794  41.056  58.204  0.00  0.00     0.074 A 
HETATM   11  C   UNK N   1      30.591  41.791  59.094  0.00  0.00     0.085 A 
ENDROOT
BRANCH   9  12
HETATM   12  O   UNK N   1      28.083  41.014  56.489  0.00  0.00    -0.318 OA
BRANCH  12  13
HETATM   13  C   UNK N   1      28.269  40.885  55.126  0.00  0.00     0.298 C 
HETATM   14  O   UNK N   1      27.925  42.087  54.453  0.00  0.00    -0.348 OA
HETATM   15  C   UNK N   1      28.227  41.971  53.066  0.00  0.00     0.179 C 
HETATM   16  C   UNK N   1      27.361  40.864  52.404  0.00  0.00     0.180 C 
HETATM   17  C   UNK N   1      27.598  39.529  53.131  0.00  0.00     0.183 C 
HETATM   18  C   UNK N   1      27.375  39.732  54.635  0.00  0.00     0.205 C 
BRANCH  15  19
HETATM   19  C   UNK N   1      28.002  43.331  52.389  0.00  0.00     0.198 C 
BRANCH  19  20
HETATM   20  O   UNK N   1      28.948  43.534  51.375  0.00  0.00    -0.398 OA
HETATM   21  H   UNK N   1      28.635  43.005  50.596  0.00  0.00     0.209 HD
ENDBRANCH  19  20
ENDBRANCH  15  19
BRANCH  16  22
HETATM   22  O   UNK N   1      27.708  40.738  51.047  0.00  0.00    -0.390 OA
HETATM   23  H   UNK N   1      28.095  39.833  50.928  0.00  0.00     0.210 HD
ENDBRANCH  16  22
BRANCH  17  24
HETATM   24  O   UNK N   1      26.719  38.541  52.659  0.00  0.00    -0.390 OA
HETATM   25  H   UNK N   1      25.805  38.923  52.700  0.00  0.00     0.210 HD
ENDBRANCH  17  24
BRANCH  18  26
HETATM   26  O   UNK N   1      27.637  38.545  55.344  0.00  0.00    -0.388 OA
HETATM   27  H   UNK N   1      26.870  37.931  55.202  0.00  0.00     0.210 HD
ENDBRANCH  18  26
ENDBRANCH  12  13
ENDBRANCH   9  12
BRANCH  11  28
HETATM   28  O   UNK N   1      31.422  41.081  59.894  0.00  0.00    -0.360 OA
HETATM   29  H   UNK N   1      31.277  40.859  60.817  0.00  0.00     0.217 HD
ENDBRANCH  11  28
BRANCH   6  30
HETATM   30  C   UNK N   1      29.796  47.445  58.929  0.00  0.00    -0.002 A 
HETATM   31  C   UNK N   1      29.917  48.155  57.717  0.00  0.00     0.017 A 
HETATM   32  C   UNK N   1      29.630  49.521  57.665  0.00  0.00     0.037 A 
HETATM   33  C   UNK N   1      29.239  50.213  58.816  0.00  0.00     0.068 A 
HETATM   34  C   UNK N   1      29.125  49.511  60.032  0.00  0.00     0.037 A 
HETATM   35  C   UNK N   1      29.390  48.141  60.082  0.00  0.00     0.017 A 
BRANCH  33  36
HETATM   36  O   UNK N   1      28.980  51.544  58.718  0.00  0.00    -0.356 OA
HETATM   37  C   UNK N   1      27.993  52.214  59.411  0.00  0.00     0.210 C 
ENDBRANCH  33  36
ENDBRANCH   6  30
TORSDOF 10
ENDMDL
MODEL 8
REMARK VINA RESULT:      -5.6     15.331     16.873
REMARK  10 active torsions:
REMARK  status: ('A' for Active; 'I' for Inactive)
REMARK    1  A    between atoms: C_6  and  C_8 
REMARK    2  A    between atoms: C_11  and  O_12 
REMARK    3  A    between atoms: C_17  and  O_18 
REMARK    4  A    between atoms: O_18  and  C_19 
REMARK    5  A    between atoms: C_21  and  C_31 
REMARK    6  A    between atoms: C_22  and  O_23 
REMARK    7  A    between atoms: C_25  and  O_26 
REMARK    8  A    between atoms: C_28  and  O_29 
REMARK    9  A    between atoms: C_31  and  O_32 
REMARK   10  A    between atoms: C_35  and  O_36 
ROOT
HETATM    1  O   UNK N   1      32.751  42.833  56.289  0.00  0.00    -0.287 OA
HETATM    2  C   UNK N   1      31.698  43.174  56.789  0.00  0.00     0.190 A 
HETATM    3  C   UNK N   1      30.446  42.784  56.244  0.00  0.00     0.081 A 
HETATM    4  C   UNK N   1      29.285  43.242  56.919  0.00  0.00     0.095 A 
HETATM    5  O   UNK N   1      29.380  43.976  58.023  0.00  0.00    -0.309 OA
HETATM    6  C   UNK N   1      30.536  44.358  58.551  0.00  0.00     0.090 A 
HETATM    7  C   UNK N   1      31.734  43.970  57.936  0.00  0.00     0.094 A 
HETATM    8  C   UNK N   1      28.014  42.923  56.448  0.00  0.00     0.075 A 
HETATM    9  C   UNK N   1      27.849  42.124  55.322  0.00  0.00     0.077 A 
HETATM   10  C   UNK N   1      28.980  41.650  54.640  0.00  0.00     0.074 A 
HETATM   11  C   UNK N   1      30.276  41.968  55.075  0.00  0.00     0.085 A 
ENDROOT
BRANCH   9  12
HETATM   12  O   UNK N   1      26.583  41.804  54.951  0.00  0.00    -0.318 OA
BRANCH  12  13
HETATM   13  C   UNK N   1      26.010  42.085  53.727  0.00  0.00     0.298 C 
HETATM   14  O   UNK N   1      26.840  41.633  52.666  0.00  0.00    -0.348 OA
HETATM   15  C   UNK N   1      26.183  41.833  51.417  0.00  0.00     0.179 C 
HETATM   16  C   UNK N   1      25.956  43.345  51.149  0.00  0.00     0.180 C 
HETATM   17  C   UNK N   1      25.136  43.950  52.303  0.00  0.00     0.183 C 
HETATM   18  C   UNK N   1      25.819  43.610  53.633  0.00  0.00     0.205 C 
BRANCH  15  19
HETATM   19  C   UNK N   1      27.023  41.191  50.303  0.00  0.00     0.198 C 
BRANCH  19  20
HETATM   20  O   UNK N   1      26.206  40.834  49.221  0.00  0.00    -0.398 OA
HETATM   21  H   UNK N   1      26.010  39.867  49.332  0.00  0.00     0.209 HD
ENDBRANCH  19  20
ENDBRANCH  15  19
BRANCH  16  22
HETATM   22  O   UNK N   1      25.269  43.514  49.934  0.00  0.00    -0.390 OA
HETATM   23  H   UNK N   1      25.736  44.231  49.432  0.00  0.00     0.210 HD
ENDBRANCH  16  22
BRANCH  17  24
HETATM   24  O   UNK N   1      25.043  45.345  52.171  0.00  0.00    -0.390 OA
HETATM   25  H   UNK N   1      25.954  45.710  52.305  0.00  0.00     0.210 HD
ENDBRANCH  17  24
BRANCH  18  26
HETATM   26  O   UNK N   1      25.069  44.097  54.719  0.00  0.00    -0.388 OA
HETATM   27  H   UNK N   1      25.682  44.188  55.495  0.00  0.00     0.210 HD
ENDBRANCH  18  26
ENDBRANCH  12  13
ENDBRANCH   9  12
BRANCH  11  28
HETATM   28  O   UNK N   1      31.302  41.460  54.352  0.00  0.00    -0.360 OA
HETATM   29  H   UNK N   1      31.912  41.954  53.799  0.00  0.00     0.217 HD
ENDBRANCH  11  28
BRANCH   6  30
HETATM   30  C   UNK N   1      30.508  45.181  59.793  0.00  0.00    -0.002 A 
HETATM   31  C   UNK N   1      29.906  46.455  59.834  0.00  0.00     0.017 A 
HETATM   32  C   UNK N   1      29.887  47.191  61.021  0.00  0.00     0.037 A 
HETATM   33  C   UNK N   1      30.480  46.687  62.184  0.00  0.00     0.068 A 
HETATM   34  C   UNK N   1      31.090  45.419  62.147  0.00  0.00     0.037 A 
HETATM   35  C   UNK N   1      31.092  44.672  60.967  0.00  0.00     0.017 A 
BRANCH  33  36
HETATM   36  O   UNK N   1      30.444  47.444  63.312  0.00  0.00    -0.356 OA
HETATM   37  C   UNK N   1      30.735  48.792  63.373  0.00  0.00     0.210 C 
ENDBRANCH  33  36
ENDBRANCH   6  30
TORSDOF 10
ENDMDL
MODEL 9
REMARK VINA RESULT:      -5.6      8.150     13.520
REMARK  10 active torsions:
REMARK  status: ('A' for Active; 'I' for Inactive)
REMARK    1  A    between atoms: C_6  and  C_8 
REMARK    2  A    between atoms: C_11  and  O_12 
REMARK    3  A    between atoms: C_17  and  O_18 
REMARK    4  A    between atoms: O_18  and  C_19 
REMARK    5  A    between atoms: C_21  and  C_31 
REMARK    6  A    between atoms: C_22  and  O_23 
REMARK    7  A    between atoms: C_25  and  O_26 
REMARK    8  A    between atoms: C_28  and  O_29 
REMARK    9  A    between atoms: C_31  and  O_32 
REMARK   10  A    between atoms: C_35  and  O_36 
ROOT
HETATM    1  O   UNK N   1      40.334  51.119  42.876  0.00  0.00    -0.287 OA
HETATM    2  C   UNK N   1      39.554  50.393  43.460  0.00  0.00     0.190 A 
HETATM    3  C   UNK N   1      39.976  49.511  44.490  0.00  0.00     0.081 A 
HETATM    4  C   UNK N   1      38.971  48.716  45.100  0.00  0.00     0.095 A 
HETATM    5  O   UNK N   1      37.698  48.822  44.735  0.00  0.00    -0.309 OA
HETATM    6  C   UNK N   1      37.277  49.635  43.773  0.00  0.00     0.090 A 
HETATM    7  C   UNK N   1      38.206  50.441  43.101  0.00  0.00     0.094 A 
HETATM    8  C   UNK N   1      39.293  47.811  46.108  0.00  0.00     0.075 A 
HETATM    9  C   UNK N   1      40.601  47.683  46.562  0.00  0.00     0.077 A 
HETATM   10  C   UNK N   1      41.613  48.463  45.982  0.00  0.00     0.074 A 
HETATM   11  C   UNK N   1      41.328  49.372  44.952  0.00  0.00     0.085 A 
ENDROOT
BRANCH   9  12
HETATM   12  O   UNK N   1      40.835  46.823  47.587  0.00  0.00    -0.318 OA
BRANCH  12  13
HETATM   13  C   UNK N   1      41.553  45.647  47.499  0.00  0.00     0.298 C 
HETATM   14  O   UNK N   1      41.425  45.073  46.206  0.00  0.00    -0.348 OA
HETATM   15  C   UNK N   1      42.258  43.921  46.101  0.00  0.00     0.179 C 
HETATM   16  C   UNK N   1      41.800  42.817  47.091  0.00  0.00     0.180 C 
HETATM   17  C   UNK N   1      41.817  43.378  48.524  0.00  0.00     0.183 C 
HETATM   18  C   UNK N   1      41.004  44.677  48.562  0.00  0.00     0.205 C 
BRANCH  15  19
HETATM   19  C   UNK N   1      42.231  43.414  44.652  0.00  0.00     0.198 C 
BRANCH  19  20
HETATM   20  O   UNK N   1      40.978  43.659  44.072  0.00  0.00    -0.398 OA
HETATM   21  H   UNK N   1      40.910  43.046  43.295  0.00  0.00     0.209 HD
ENDBRANCH  19  20
ENDBRANCH  15  19
BRANCH  16  22
HETATM   22  O   UNK N   1      42.663  41.710  47.000  0.00  0.00    -0.390 OA
HETATM   23  H   UNK N   1      43.548  42.003  47.339  0.00  0.00     0.210 HD
ENDBRANCH  16  22
BRANCH  17  24
HETATM   24  O   UNK N   1      41.263  42.456  49.428  0.00  0.00    -0.390 OA
HETATM   25  H   UNK N   1      40.881  42.980  50.177  0.00  0.00     0.210 HD
ENDBRANCH  17  24
BRANCH  18  26
HETATM   26  O   UNK N   1      41.042  45.254  49.845  0.00  0.00    -0.388 OA
HETATM   27  H   UNK N   1      41.993  45.425  50.073  0.00  0.00     0.210 HD
ENDBRANCH  18  26
ENDBRANCH  12  13
ENDBRANCH   9  12
BRANCH  11  28
HETATM   28  O   UNK N   1      42.371  50.081  44.460  0.00  0.00    -0.360 OA
HETATM   29  H   UNK N   1      42.338  50.738  43.761  0.00  0.00     0.217 HD
ENDBRANCH  11  28
BRANCH   6  30
HETATM   30  C   UNK N   1      35.822  49.662  43.457  0.00  0.00    -0.002 A 
HETATM   31  C   UNK N   1      35.098  48.490  43.156  0.00  0.00     0.017 A 
HETATM   32  C   UNK N   1      33.730  48.554  42.879  0.00  0.00     0.037 A 
HETATM   33  C   UNK N   1      33.059  49.781  42.876  0.00  0.00     0.068 A 
HETATM   34  C   UNK N   1      33.777  50.956  43.169  0.00  0.00     0.037 A 
HETATM   35  C   UNK N   1      35.140  50.893  43.467  0.00  0.00     0.017 A 
BRANCH  33  36
HETATM   36  O   UNK N   1      31.729  49.793  42.592  0.00  0.00    -0.356 OA
HETATM   37  C   UNK N   1      31.099  48.940  41.710  0.00  0.00     0.210 C 
ENDBRANCH  33  36
ENDBRANCH   6  30
TORSDOF 10
ENDMDL
