MODEL 1
REMARK VINA RESULT:      -6.5      0.000      0.000
REMARK  9 active torsions:
REMARK  status: ('A' for Active; 'I' for Inactive)
REMARK    1  A    between atoms: C_3  and  O_4 
REMARK    2  A    between atoms: O_4  and  C_5 
REMARK    3  A    between atoms: C_8  and  O_9 
REMARK    4  A    between atoms: C_11  and  O_12 
REMARK    5  A    between atoms: C_14  and  O_15 
REMARK    6  A    between atoms: C_18  and  C_30 
REMARK    7  A    between atoms: C_22  and  O_23 
REMARK    8  A    between atoms: C_26  and  O_28 
REMARK    9  A    between atoms: C_33  and  O_34 
ROOT
HETATM    1  O   UNK N   1      38.658  47.628  48.309  0.00  0.00    -0.284 OA
HETATM    2  C   UNK N   1      39.329  47.411  47.320  0.00  0.00     0.223 A 
HETATM    3  C   UNK N   1      39.966  46.154  47.133  0.00  0.00     0.157 A 
HETATM    4  C   UNK N   1      40.710  45.958  45.946  0.00  0.00     0.124 A 
HETATM    5  O   UNK N   1      40.803  46.936  45.046  0.00  0.00    -0.306 OA
HETATM    6  C   UNK N   1      40.251  48.131  45.203  0.00  0.00     0.096 A 
HETATM    7  C   UNK N   1      39.477  48.418  46.344  0.00  0.00     0.084 A 
HETATM    8  C   UNK N   1      38.881  49.701  46.472  0.00  0.00     0.085 A 
HETATM    9  C   UNK N   1      39.101  50.671  45.483  0.00  0.00     0.074 A 
HETATM   10  C   UNK N   1      39.898  50.385  44.373  0.00  0.00     0.071 A 
HETATM   11  C   UNK N   1      40.463  49.112  44.230  0.00  0.00     0.075 A 
ENDROOT
BRANCH   3  12
HETATM   12  O   UNK N   1      39.855  45.123  48.032  0.00  0.00    -0.311 OA
BRANCH  12  13
HETATM   13  C   UNK N   1      39.871  45.226  49.414  0.00  0.00     0.298 C 
HETATM   14  O   UNK N   1      40.889  46.156  49.813  0.00  0.00    -0.351 OA
HETATM   15  C   UNK N   1      42.062  45.492  50.227  0.00  0.00     0.152 C 
HETATM   16  C   UNK N   1      41.799  44.731  51.560  0.00  0.00     0.178 C 
HETATM   17  C   UNK N   1      43.241  46.460  50.295  0.00  0.00     0.042 C 
HETATM   18  C   UNK N   1      40.384  44.086  51.555  0.00  0.00     0.183 C 
HETATM   19  C   UNK N   1      39.937  43.819  50.107  0.00  0.00     0.205 C 
BRANCH  16  20
HETATM   20  O   UNK N   1      41.940  45.549  52.695  0.00  0.00    -0.390 OA
HETATM   21  H   UNK N   1      42.398  46.382  52.407  0.00  0.00     0.210 HD
ENDBRANCH  16  20
BRANCH  18  22
HETATM   22  O   UNK N   1      40.358  42.919  52.333  0.00  0.00    -0.390 OA
HETATM   23  H   UNK N   1      40.586  42.169  51.723  0.00  0.00     0.210 HD
ENDBRANCH  18  22
BRANCH  19  24
HETATM   24  O   UNK N   1      40.839  42.958  49.458  0.00  0.00    -0.388 OA
HETATM   25  H   UNK N   1      40.899  43.266  48.516  0.00  0.00     0.210 HD
ENDBRANCH  19  24
ENDBRANCH  12  13
ENDBRANCH   3  12
BRANCH   4  26
HETATM   26  C   UNK N   1      41.459  44.709  45.662  0.00  0.00     0.001 A 
HETATM   27  C   UNK N   1      41.676  43.740  46.659  0.00  0.00     0.017 A 
HETATM   28  C   UNK N   1      42.447  42.605  46.385  0.00  0.00     0.037 A 
HETATM   29  C   UNK N   1      42.991  42.414  45.107  0.00  0.00     0.065 A 
HETATM   30  C   UNK N   1      42.768  43.368  44.110  0.00  0.00     0.037 A 
HETATM   31  C   UNK N   1      42.023  44.517  44.390  0.00  0.00     0.017 A 
BRANCH  29  32
HETATM   32  O   UNK N   1      43.738  41.325  44.832  0.00  0.00    -0.361 OA
HETATM   33  H   UNK N   1      44.652  41.244  45.138  0.00  0.00     0.217 HD
ENDBRANCH  29  32
ENDBRANCH   4  26
BRANCH   8  34
HETATM   34  O   UNK N   1      38.109  50.003  47.539  0.00  0.00    -0.360 OA
HETATM   35  H   UNK N   1      37.953  49.370  48.254  0.00  0.00     0.217 HD
ENDBRANCH   8  34
BRANCH  10  36
HETATM   36  O   UNK N   1      40.116  51.342  43.449  0.00  0.00    -0.361 OA
HETATM   37  H   UNK N   1      39.673  51.330  42.588  0.00  0.00     0.217 HD
ENDBRANCH  10  36
TORSDOF 9
ENDMDL
MODEL 2
REMARK VINA RESULT:      -6.4     13.415     15.812
REMARK  9 active torsions:
REMARK  status: ('A' for Active; 'I' for Inactive)
REMARK    1  A    between atoms: C_3  and  O_4 
REMARK    2  A    between atoms: O_4  and  C_5 
REMARK    3  A    between atoms: C_8  and  O_9 
REMARK    4  A    between atoms: C_11  and  O_12 
REMARK    5  A    between atoms: C_14  and  O_15 
REMARK    6  A    between atoms: C_18  and  C_30 
REMARK    7  A    between atoms: C_22  and  O_23 
REMARK    8  A    between atoms: C_26  and  O_28 
REMARK    9  A    between atoms: C_33  and  O_34 
ROOT
HETATM    1  O   UNK N   1      27.060  38.813  52.819  0.00  0.00    -0.284 OA
HETATM    2  C   UNK N   1      27.401  39.971  52.967  0.00  0.00     0.223 A 
HETATM    3  C   UNK N   1      28.376  40.324  53.939  0.00  0.00     0.157 A 
HETATM    4  C   UNK N   1      28.747  41.686  54.040  0.00  0.00     0.124 A 
HETATM    5  O   UNK N   1      28.182  42.594  53.245  0.00  0.00    -0.306 OA
HETATM    6  C   UNK N   1      27.246  42.305  52.353  0.00  0.00     0.096 A 
HETATM    7  C   UNK N   1      26.821  40.975  52.165  0.00  0.00     0.084 A 
HETATM    8  C   UNK N   1      25.830  40.695  51.186  0.00  0.00     0.085 A 
HETATM    9  C   UNK N   1      25.266  41.747  50.449  0.00  0.00     0.074 A 
HETATM   10  C   UNK N   1      25.671  43.065  50.667  0.00  0.00     0.071 A 
HETATM   11  C   UNK N   1      26.668  43.340  51.611  0.00  0.00     0.075 A 
ENDROOT
BRANCH   3  12
HETATM   12  O   UNK N   1      28.994  39.401  54.744  0.00  0.00    -0.311 OA
BRANCH  12  13
HETATM   13  C   UNK N   1      28.428  38.732  55.818  0.00  0.00     0.298 C 
HETATM   14  O   UNK N   1      28.548  39.538  57.001  0.00  0.00    -0.351 OA
HETATM   15  C   UNK N   1      29.633  39.122  57.801  0.00  0.00     0.152 C 
HETATM   16  C   UNK N   1      29.338  37.720  58.410  0.00  0.00     0.178 C 
HETATM   17  C   UNK N   1      29.979  40.185  58.841  0.00  0.00     0.042 C 
HETATM   18  C   UNK N   1      28.616  36.812  57.374  0.00  0.00     0.183 C 
HETATM   19  C   UNK N   1      28.969  37.264  55.947  0.00  0.00     0.205 C 
BRANCH  16  20
HETATM   20  O   UNK N   1      28.577  37.786  59.591  0.00  0.00    -0.390 OA
HETATM   21  H   UNK N   1      27.861  37.101  59.522  0.00  0.00     0.210 HD
ENDBRANCH  16  20
BRANCH  18  22
HETATM   22  O   UNK N   1      28.926  35.460  57.586  0.00  0.00    -0.390 OA
HETATM   23  H   UNK N   1      29.563  35.434  58.347  0.00  0.00     0.210 HD
ENDBRANCH  18  22
BRANCH  19  24
HETATM   24  O   UNK N   1      30.356  37.197  55.732  0.00  0.00    -0.388 OA
HETATM   25  H   UNK N   1      30.739  36.690  56.494  0.00  0.00     0.210 HD
ENDBRANCH  19  24
ENDBRANCH  12  13
ENDBRANCH   3  12
BRANCH   4  26
HETATM   26  C   UNK N   1      29.716  42.184  55.047  0.00  0.00     0.001 A 
HETATM   27  C   UNK N   1      29.289  42.849  56.212  0.00  0.00     0.017 A 
HETATM   28  C   UNK N   1      30.226  43.372  57.110  0.00  0.00     0.037 A 
HETATM   29  C   UNK N   1      31.599  43.217  56.867  0.00  0.00     0.065 A 
HETATM   30  C   UNK N   1      32.027  42.546  55.718  0.00  0.00     0.037 A 
HETATM   31  C   UNK N   1      31.093  42.050  54.804  0.00  0.00     0.017 A 
BRANCH  29  32
HETATM   32  O   UNK N   1      32.511  43.719  57.724  0.00  0.00    -0.361 OA
HETATM   33  H   UNK N   1      32.966  43.159  58.369  0.00  0.00     0.217 HD
ENDBRANCH  29  32
ENDBRANCH   4  26
BRANCH   8  34
HETATM   34  O   UNK N   1      25.419  39.428  50.959  0.00  0.00    -0.360 OA
HETATM   35  H   UNK N   1      24.612  39.232  50.463  0.00  0.00     0.217 HD
ENDBRANCH   8  34
BRANCH  10  36
HETATM   36  O   UNK N   1      25.095  44.061  49.965  0.00  0.00    -0.361 OA
HETATM   37  H   UNK N   1      24.289  44.501  50.274  0.00  0.00     0.217 HD
ENDBRANCH  10  36
TORSDOF 9
ENDMDL
MODEL 3
REMARK VINA RESULT:      -6.2     13.337     15.980
REMARK  9 active torsions:
REMARK  status: ('A' for Active; 'I' for Inactive)
REMARK    1  A    between atoms: C_3  and  O_4 
REMARK    2  A    between atoms: O_4  and  C_5 
REMARK    3  A    between atoms: C_8  and  O_9 
REMARK    4  A    between atoms: C_11  and  O_12 
REMARK    5  A    between atoms: C_14  and  O_15 
REMARK    6  A    between atoms: C_18  and  C_30 
REMARK    7  A    between atoms: C_22  and  O_23 
REMARK    8  A    between atoms: C_26  and  O_28 
REMARK    9  A    between atoms: C_33  and  O_34 
ROOT
HETATM    1  O   UNK N   1      26.224  43.225  55.801  0.00  0.00    -0.284 OA
HETATM    2  C   UNK N   1      27.393  42.922  55.661  0.00  0.00     0.223 A 
HETATM    3  C   UNK N   1      28.271  42.873  56.777  0.00  0.00     0.157 A 
HETATM    4  C   UNK N   1      29.613  42.486  56.548  0.00  0.00     0.124 A 
HETATM    5  O   UNK N   1      30.022  42.188  55.316  0.00  0.00    -0.306 OA
HETATM    6  C   UNK N   1      29.239  42.257  54.248  0.00  0.00     0.096 A 
HETATM    7  C   UNK N   1      27.883  42.615  54.375  0.00  0.00     0.084 A 
HETATM    8  C   UNK N   1      27.066  42.659  53.213  0.00  0.00     0.085 A 
HETATM    9  C   UNK N   1      27.628  42.380  51.958  0.00  0.00     0.074 A 
HETATM   10  C   UNK N   1      28.981  42.058  51.841  0.00  0.00     0.071 A 
HETATM   11  C   UNK N   1      29.782  41.987  52.988  0.00  0.00     0.075 A 
ENDROOT
BRANCH   3  12
HETATM   12  O   UNK N   1      27.862  43.144  58.059  0.00  0.00    -0.311 OA
BRANCH  12  13
HETATM   13  C   UNK N   1      27.518  44.385  58.571  0.00  0.00     0.298 C 
HETATM   14  O   UNK N   1      28.294  45.404  57.922  0.00  0.00    -0.351 OA
HETATM   15  C   UNK N   1      29.390  45.802  58.716  0.00  0.00     0.152 C 
HETATM   16  C   UNK N   1      28.884  46.557  59.979  0.00  0.00     0.178 C 
HETATM   17  C   UNK N   1      30.400  46.594  57.889  0.00  0.00     0.042 C 
HETATM   18  C   UNK N   1      27.594  45.890  60.539  0.00  0.00     0.183 C 
HETATM   19  C   UNK N   1      27.559  44.405  60.140  0.00  0.00     0.205 C 
BRANCH  16  20
HETATM   20  O   UNK N   1      28.643  47.922  59.742  0.00  0.00    -0.390 OA
HETATM   21  H   UNK N   1      29.186  48.438  60.395  0.00  0.00     0.210 HD
ENDBRANCH  16  20
BRANCH  18  22
HETATM   22  O   UNK N   1      27.500  46.060  61.928  0.00  0.00    -0.390 OA
HETATM   23  H   UNK N   1      28.134  46.787  62.166  0.00  0.00     0.210 HD
ENDBRANCH  18  22
BRANCH  19  24
HETATM   24  O   UNK N   1      28.685  43.727  60.642  0.00  0.00    -0.388 OA
HETATM   25  H   UNK N   1      28.342  42.980  61.198  0.00  0.00     0.210 HD
ENDBRANCH  19  24
ENDBRANCH  12  13
ENDBRANCH   3  12
BRANCH   4  26
HETATM   26  C   UNK N   1      30.634  42.446  57.624  0.00  0.00     0.001 A 
HETATM   27  C   UNK N   1      31.792  43.243  57.569  0.00  0.00     0.017 A 
HETATM   28  C   UNK N   1      32.773  43.133  58.560  0.00  0.00     0.037 A 
HETATM   29  C   UNK N   1      32.599  42.241  59.629  0.00  0.00     0.065 A 
HETATM   30  C   UNK N   1      31.445  41.456  59.694  0.00  0.00     0.037 A 
HETATM   31  C   UNK N   1      30.477  41.543  58.689  0.00  0.00     0.017 A 
BRANCH  29  32
HETATM   32  O   UNK N   1      33.539  42.125  60.588  0.00  0.00    -0.361 OA
HETATM   33  H   UNK N   1      33.890  41.263  60.857  0.00  0.00     0.217 HD
ENDBRANCH  29  32
ENDBRANCH   4  26
BRANCH   8  34
HETATM   34  O   UNK N   1      25.755  42.972  53.301  0.00  0.00    -0.360 OA
HETATM   35  H   UNK N   1      25.094  42.331  53.599  0.00  0.00     0.217 HD
ENDBRANCH   8  34
BRANCH  10  36
HETATM   36  O   UNK N   1      29.503  41.821  50.622  0.00  0.00    -0.361 OA
HETATM   37  H   UNK N   1      30.458  41.740  50.484  0.00  0.00     0.217 HD
ENDBRANCH  10  36
TORSDOF 9
ENDMDL
MODEL 4
REMARK VINA RESULT:      -6.0     13.500     16.585
REMARK  9 active torsions:
REMARK  status: ('A' for Active; 'I' for Inactive)
REMARK    1  A    between atoms: C_3  and  O_4 
REMARK    2  A    between atoms: O_4  and  C_5 
REMARK    3  A    between atoms: C_8  and  O_9 
REMARK    4  A    between atoms: C_11  and  O_12 
REMARK    5  A    between atoms: C_14  and  O_15 
REMARK    6  A    between atoms: C_18  and  C_30 
REMARK    7  A    between atoms: C_22  and  O_23 
REMARK    8  A    between atoms: C_26  and  O_28 
REMARK    9  A    between atoms: C_33  and  O_34 
ROOT
HETATM    1  O   UNK N   1      29.606  40.862  60.304  0.00  0.00    -0.284 OA
HETATM    2  C   UNK N   1      30.142  41.384  59.346  0.00  0.00     0.223 A 
HETATM    3  C   UNK N   1      29.500  41.415  58.079  0.00  0.00     0.157 A 
HETATM    4  C   UNK N   1      30.170  42.062  57.013  0.00  0.00     0.124 A 
HETATM    5  O   UNK N   1      31.365  42.614  57.211  0.00  0.00    -0.306 OA
HETATM    6  C   UNK N   1      32.008  42.574  58.370  0.00  0.00     0.096 A 
HETATM    7  C   UNK N   1      31.418  41.967  59.496  0.00  0.00     0.084 A 
HETATM    8  C   UNK N   1      32.123  41.959  60.729  0.00  0.00     0.085 A 
HETATM    9  C   UNK N   1      33.406  42.523  60.798  0.00  0.00     0.074 A 
HETATM   10  C   UNK N   1      33.994  43.093  59.668  0.00  0.00     0.071 A 
HETATM   11  C   UNK N   1      33.289  43.126  58.458  0.00  0.00     0.075 A 
ENDROOT
BRANCH   3  12
HETATM   12  O   UNK N   1      28.255  40.882  57.862  0.00  0.00    -0.311 OA
BRANCH  12  13
HETATM   13  C   UNK N   1      27.927  39.535  57.824  0.00  0.00     0.298 C 
HETATM   14  O   UNK N   1      28.968  38.808  57.153  0.00  0.00    -0.351 OA
HETATM   15  C   UNK N   1      28.628  38.540  55.811  0.00  0.00     0.152 C 
HETATM   16  C   UNK N   1      27.452  37.521  55.754  0.00  0.00     0.178 C 
HETATM   17  C   UNK N   1      29.856  38.106  55.015  0.00  0.00     0.042 C 
HETATM   18  C   UNK N   1      26.417  37.813  56.878  0.00  0.00     0.183 C 
HETATM   19  C   UNK N   1      26.477  39.299  57.271  0.00  0.00     0.205 C 
BRANCH  16  20
HETATM   20  O   UNK N   1      27.881  36.184  55.844  0.00  0.00    -0.390 OA
HETATM   21  H   UNK N   1      28.009  35.976  56.807  0.00  0.00     0.210 HD
ENDBRANCH  16  20
BRANCH  18  22
HETATM   22  O   UNK N   1      25.126  37.428  56.487  0.00  0.00    -0.390 OA
HETATM   23  H   UNK N   1      24.692  38.240  56.114  0.00  0.00     0.210 HD
ENDBRANCH  18  22
BRANCH  19  24
HETATM   24  O   UNK N   1      26.200  40.119  56.163  0.00  0.00    -0.388 OA
HETATM   25  H   UNK N   1      27.002  40.089  55.579  0.00  0.00     0.210 HD
ENDBRANCH  19  24
ENDBRANCH  12  13
ENDBRANCH   3  12
BRANCH   4  26
HETATM   26  C   UNK N   1      29.624  42.116  55.634  0.00  0.00     0.001 A 
HETATM   27  C   UNK N   1      30.407  41.764  54.519  0.00  0.00     0.017 A 
HETATM   28  C   UNK N   1      29.891  41.892  53.225  0.00  0.00     0.037 A 
HETATM   29  C   UNK N   1      28.581  42.352  53.031  0.00  0.00     0.065 A 
HETATM   30  C   UNK N   1      27.795  42.691  54.135  0.00  0.00     0.037 A 
HETATM   31  C   UNK N   1      28.318  42.592  55.428  0.00  0.00     0.017 A 
BRANCH  29  32
HETATM   32  O   UNK N   1      28.074  42.482  51.788  0.00  0.00    -0.361 OA
HETATM   33  H   UNK N   1      27.655  43.303  51.491  0.00  0.00     0.217 HD
ENDBRANCH  29  32
ENDBRANCH   4  26
BRANCH   8  34
HETATM   34  O   UNK N   1      31.576  41.411  61.836  0.00  0.00    -0.360 OA
HETATM   35  H   UNK N   1      30.820  40.809  61.790  0.00  0.00     0.217 HD
ENDBRANCH   8  34
BRANCH  10  36
HETATM   36  O   UNK N   1      35.238  43.603  59.753  0.00  0.00    -0.361 OA
HETATM   37  H   UNK N   1      36.000  43.052  59.989  0.00  0.00     0.217 HD
ENDBRANCH  10  36
TORSDOF 9
ENDMDL
MODEL 5
REMARK VINA RESULT:      -6.0     16.033     17.947
REMARK  9 active torsions:
REMARK  status: ('A' for Active; 'I' for Inactive)
REMARK    1  A    between atoms: C_3  and  O_4 
REMARK    2  A    between atoms: O_4  and  C_5 
REMARK    3  A    between atoms: C_8  and  O_9 
REMARK    4  A    between atoms: C_11  and  O_12 
REMARK    5  A    between atoms: C_14  and  O_15 
REMARK    6  A    between atoms: C_18  and  C_30 
REMARK    7  A    between atoms: C_22  and  O_23 
REMARK    8  A    between atoms: C_26  and  O_28 
REMARK    9  A    between atoms: C_33  and  O_34 
ROOT
HETATM    1  O   UNK N   1      31.018  45.864  63.053  0.00  0.00    -0.284 OA
HETATM    2  C   UNK N   1      31.953  45.167  62.707  0.00  0.00     0.223 A 
HETATM    3  C   UNK N   1      33.273  45.447  63.153  0.00  0.00     0.157 A 
HETATM    4  C   UNK N   1      34.310  44.579  62.734  0.00  0.00     0.124 A 
HETATM    5  O   UNK N   1      34.038  43.544  61.943  0.00  0.00    -0.306 OA
HETATM    6  C   UNK N   1      32.825  43.274  61.481  0.00  0.00     0.096 A 
HETATM    7  C   UNK N   1      31.723  44.068  61.854  0.00  0.00     0.084 A 
HETATM    8  C   UNK N   1      30.433  43.740  61.359  0.00  0.00     0.085 A 
HETATM    9  C   UNK N   1      30.281  42.656  60.481  0.00  0.00     0.074 A 
HETATM   10  C   UNK N   1      31.385  41.896  60.093  0.00  0.00     0.071 A 
HETATM   11  C   UNK N   1      32.654  42.200  60.602  0.00  0.00     0.075 A 
ENDROOT
BRANCH   3  12
HETATM   12  O   UNK N   1      33.570  46.489  63.994  0.00  0.00    -0.311 OA
BRANCH  12  13
HETATM   13  C   UNK N   1      33.700  47.823  63.643  0.00  0.00     0.298 C 
HETATM   14  O   UNK N   1      35.039  48.263  63.917  0.00  0.00    -0.351 OA
HETATM   15  C   UNK N   1      35.110  48.969  65.137  0.00  0.00     0.152 C 
HETATM   16  C   UNK N   1      34.359  50.326  65.010  0.00  0.00     0.178 C 
HETATM   17  C   UNK N   1      36.559  49.109  65.599  0.00  0.00     0.042 C 
HETATM   18  C   UNK N   1      33.060  50.160  64.170  0.00  0.00     0.183 C 
HETATM   19  C   UNK N   1      32.560  48.707  64.264  0.00  0.00     0.205 C 
BRANCH  16  20
HETATM   20  O   UNK N   1      35.154  51.343  64.450  0.00  0.00    -0.390 OA
HETATM   21  H   UNK N   1      34.825  52.209  64.807  0.00  0.00     0.210 HD
ENDBRANCH  16  20
BRANCH  18  22
HETATM   22  O   UNK N   1      32.078  51.076  64.573  0.00  0.00    -0.390 OA
HETATM   23  H   UNK N   1      31.208  50.712  64.261  0.00  0.00     0.210 HD
ENDBRANCH  18  22
BRANCH  19  24
HETATM   24  O   UNK N   1      32.296  48.356  65.600  0.00  0.00    -0.388 OA
HETATM   25  H   UNK N   1      31.510  47.751  65.584  0.00  0.00     0.210 HD
ENDBRANCH  19  24
ENDBRANCH  12  13
ENDBRANCH   3  12
BRANCH   4  26
HETATM   26  C   UNK N   1      35.734  44.796  63.093  0.00  0.00     0.001 A 
HETATM   27  C   UNK N   1      36.631  45.416  62.202  0.00  0.00     0.017 A 
HETATM   28  C   UNK N   1      37.983  45.543  62.536  0.00  0.00     0.037 A 
HETATM   29  C   UNK N   1      38.451  45.073  63.772  0.00  0.00     0.065 A 
HETATM   30  C   UNK N   1      37.563  44.469  64.664  0.00  0.00     0.037 A 
HETATM   31  C   UNK N   1      36.217  44.313  64.321  0.00  0.00     0.017 A 
BRANCH  29  32
HETATM   32  O   UNK N   1      39.754  45.189  64.103  0.00  0.00    -0.361 OA
HETATM   33  H   UNK N   1      40.417  45.491  63.466  0.00  0.00     0.217 HD
ENDBRANCH  29  32
ENDBRANCH   4  26
BRANCH   8  34
HETATM   34  O   UNK N   1      29.349  44.463  61.718  0.00  0.00    -0.360 OA
HETATM   35  H   UNK N   1      29.342  45.430  61.681  0.00  0.00     0.217 HD
ENDBRANCH   8  34
BRANCH  10  36
HETATM   36  O   UNK N   1      31.218  40.876  59.228  0.00  0.00    -0.361 OA
HETATM   37  H   UNK N   1      31.759  40.792  58.429  0.00  0.00     0.217 HD
ENDBRANCH  10  36
TORSDOF 9
ENDMDL
MODEL 6
REMARK VINA RESULT:      -6.0     15.282     16.716
REMARK  9 active torsions:
REMARK  status: ('A' for Active; 'I' for Inactive)
REMARK    1  A    between atoms: C_3  and  O_4 
REMARK    2  A    between atoms: O_4  and  C_5 
REMARK    3  A    between atoms: C_8  and  O_9 
REMARK    4  A    between atoms: C_11  and  O_12 
REMARK    5  A    between atoms: C_14  and  O_15 
REMARK    6  A    between atoms: C_18  and  C_30 
REMARK    7  A    between atoms: C_22  and  O_23 
REMARK    8  A    between atoms: C_26  and  O_28 
REMARK    9  A    between atoms: C_33  and  O_34 
ROOT
HETATM    1  O   UNK N   1      51.243  52.419  58.596  0.00  0.00    -0.284 OA
HETATM    2  C   UNK N   1      50.142  52.535  59.097  0.00  0.00     0.223 A 
HETATM    3  C   UNK N   1      49.669  51.586  60.044  0.00  0.00     0.157 A 
HETATM    4  C   UNK N   1      48.389  51.796  60.609  0.00  0.00     0.124 A 
HETATM    5  O   UNK N   1      47.662  52.852  60.247  0.00  0.00    -0.306 OA
HETATM    6  C   UNK N   1      48.057  53.736  59.342  0.00  0.00     0.096 A 
HETATM    7  C   UNK N   1      49.323  53.624  58.735  0.00  0.00     0.084 A 
HETATM    8  C   UNK N   1      49.725  54.601  57.784  0.00  0.00     0.085 A 
HETATM    9  C   UNK N   1      48.845  55.638  57.440  0.00  0.00     0.074 A 
HETATM   10  C   UNK N   1      47.580  55.720  58.024  0.00  0.00     0.071 A 
HETATM   11  C   UNK N   1      47.193  54.775  58.982  0.00  0.00     0.075 A 
ENDROOT
BRANCH   3  12
HETATM   12  O   UNK N   1      50.414  50.510  60.456  0.00  0.00    -0.311 OA
BRANCH  12  13
HETATM   13  C   UNK N   1      50.295  49.203  60.011  0.00  0.00     0.298 C 
HETATM   14  O   UNK N   1      50.489  48.302  61.111  0.00  0.00    -0.351 OA
HETATM   15  C   UNK N   1      51.799  47.778  61.124  0.00  0.00     0.152 C 
HETATM   16  C   UNK N   1      52.002  46.828  59.907  0.00  0.00     0.178 C 
HETATM   17  C   UNK N   1      52.111  47.128  62.470  0.00  0.00     0.042 C 
HETATM   18  C   UNK N   1      51.300  47.397  58.641  0.00  0.00     0.183 C 
HETATM   19  C   UNK N   1      51.189  48.928  58.750  0.00  0.00     0.205 C 
BRANCH  16  20
HETATM   20  O   UNK N   1      51.546  45.520  60.151  0.00  0.00    -0.390 OA
HETATM   21  H   UNK N   1      52.236  44.895  59.805  0.00  0.00     0.210 HD
ENDBRANCH  16  20
BRANCH  18  22
HETATM   22  O   UNK N   1      51.968  47.004  57.473  0.00  0.00    -0.390 OA
HETATM   23  H   UNK N   1      51.759  47.689  56.785  0.00  0.00     0.210 HD
ENDBRANCH  18  22
BRANCH  19  24
HETATM   24  O   UNK N   1      52.461  49.513  58.874  0.00  0.00    -0.388 OA
HETATM   25  H   UNK N   1      52.450  50.045  59.712  0.00  0.00     0.210 HD
ENDBRANCH  19  24
ENDBRANCH  12  13
ENDBRANCH   3  12
BRANCH   4  26
HETATM   26  C   UNK N   1      47.768  50.850  61.570  0.00  0.00     0.001 A 
HETATM   27  C   UNK N   1      48.112  50.857  62.935  0.00  0.00     0.017 A 
HETATM   28  C   UNK N   1      47.566  49.908  63.805  0.00  0.00     0.037 A 
HETATM   29  C   UNK N   1      46.655  48.955  63.328  0.00  0.00     0.065 A 
HETATM   30  C   UNK N   1      46.301  48.952  61.976  0.00  0.00     0.037 A 
HETATM   31  C   UNK N   1      46.868  49.880  61.098  0.00  0.00     0.017 A 
BRANCH  29  32
HETATM   32  O   UNK N   1      46.125  48.033  64.157  0.00  0.00    -0.361 OA
HETATM   33  H   UNK N   1      46.440  47.118  64.171  0.00  0.00     0.217 HD
ENDBRANCH  29  32
ENDBRANCH   4  26
BRANCH   8  34
HETATM   34  O   UNK N   1      50.943  54.540  57.203  0.00  0.00    -0.360 OA
HETATM   35  H   UNK N   1      51.470  53.729  57.199  0.00  0.00     0.217 HD
ENDBRANCH   8  34
BRANCH  10  36
HETATM   36  O   UNK N   1      46.743  56.710  57.657  0.00  0.00    -0.361 OA
HETATM   37  H   UNK N   1      45.796  56.677  57.857  0.00  0.00     0.217 HD
ENDBRANCH  10  36
TORSDOF 9
ENDMDL
MODEL 7
REMARK VINA RESULT:      -6.0     14.932     16.028
REMARK  9 active torsions:
REMARK  status: ('A' for Active; 'I' for Inactive)
REMARK    1  A    between atoms: C_3  and  O_4 
REMARK    2  A    between atoms: O_4  and  C_5 
REMARK    3  A    between atoms: C_8  and  O_9 
REMARK    4  A    between atoms: C_11  and  O_12 
REMARK    5  A    between atoms: C_14  and  O_15 
REMARK    6  A    between atoms: C_18  and  C_30 
REMARK    7  A    between atoms: C_22  and  O_23 
REMARK    8  A    between atoms: C_26  and  O_28 
REMARK    9  A    between atoms: C_33  and  O_34 
ROOT
HETATM    1  O   UNK N   1      48.725  53.625  58.609  0.00  0.00    -0.284 OA
HETATM    2  C   UNK N   1      49.589  52.841  58.266  0.00  0.00     0.223 A 
HETATM    3  C   UNK N   1      49.923  51.724  59.079  0.00  0.00     0.157 A 
HETATM    4  C   UNK N   1      50.919  50.836  58.606  0.00  0.00     0.124 A 
HETATM    5  O   UNK N   1      51.516  51.061  57.438  0.00  0.00    -0.306 OA
HETATM    6  C   UNK N   1      51.254  52.111  56.671  0.00  0.00     0.096 A 
HETATM    7  C   UNK N   1      50.267  53.043  57.046  0.00  0.00     0.084 A 
HETATM    8  C   UNK N   1      49.995  54.146  56.193  0.00  0.00     0.085 A 
HETATM    9  C   UNK N   1      50.734  54.309  55.012  0.00  0.00     0.074 A 
HETATM   10  C   UNK N   1      51.733  53.396  54.667  0.00  0.00     0.071 A 
HETATM   11  C   UNK N   1      51.983  52.293  55.493  0.00  0.00     0.075 A 
ENDROOT
BRANCH   3  12
HETATM   12  O   UNK N   1      49.297  51.455  60.269  0.00  0.00    -0.311 OA
BRANCH  12  13
HETATM   13  C   UNK N   1      47.980  51.056  60.439  0.00  0.00     0.298 C 
HETATM   14  O   UNK N   1      47.348  51.893  61.420  0.00  0.00    -0.351 OA
HETATM   15  C   UNK N   1      47.304  51.264  62.682  0.00  0.00     0.152 C 
HETATM   16  C   UNK N   1      46.329  50.050  62.636  0.00  0.00     0.178 C 
HETATM   17  C   UNK N   1      46.978  52.273  63.781  0.00  0.00     0.042 C 
HETATM   18  C   UNK N   1      46.459  49.291  61.285  0.00  0.00     0.183 C 
HETATM   19  C   UNK N   1      47.862  49.512  60.695  0.00  0.00     0.205 C 
BRANCH  16  20
HETATM   20  O   UNK N   1      44.988  50.417  62.844  0.00  0.00    -0.390 OA
HETATM   21  H   UNK N   1      44.848  51.298  62.407  0.00  0.00     0.210 HD
ENDBRANCH  16  20
BRANCH  18  22
HETATM   22  O   UNK N   1      46.166  47.929  61.441  0.00  0.00    -0.390 OA
HETATM   23  H   UNK N   1      46.829  47.434  60.890  0.00  0.00     0.210 HD
ENDBRANCH  18  22
BRANCH  19  24
HETATM   24  O   UNK N   1      48.853  49.052  61.579  0.00  0.00    -0.388 OA
HETATM   25  H   UNK N   1      48.580  48.142  61.865  0.00  0.00     0.210 HD
ENDBRANCH  19  24
ENDBRANCH  12  13
ENDBRANCH   3  12
BRANCH   4  26
HETATM   26  C   UNK N   1      51.388  49.664  59.387  0.00  0.00     0.001 A 
HETATM   27  C   UNK N   1      52.225  49.815  60.508  0.00  0.00     0.017 A 
HETATM   28  C   UNK N   1      52.711  48.690  61.182  0.00  0.00     0.037 A 
HETATM   29  C   UNK N   1      52.349  47.403  60.759  0.00  0.00     0.065 A 
HETATM   30  C   UNK N   1      51.507  47.249  59.655  0.00  0.00     0.037 A 
HETATM   31  C   UNK N   1      51.045  48.370  58.960  0.00  0.00     0.017 A 
BRANCH  29  32
HETATM   32  O   UNK N   1      52.813  46.311  61.401  0.00  0.00    -0.361 OA
HETATM   33  H   UNK N   1      53.083  45.514  60.922  0.00  0.00     0.217 HD
ENDBRANCH  29  32
ENDBRANCH   4  26
BRANCH   8  34
HETATM   34  O   UNK N   1      49.035  55.044  56.506  0.00  0.00    -0.360 OA
HETATM   35  H   UNK N   1      48.197  54.779  56.910  0.00  0.00     0.217 HD
ENDBRANCH   8  34
BRANCH  10  36
HETATM   36  O   UNK N   1      52.448  53.589  53.541  0.00  0.00    -0.361 OA
HETATM   37  H   UNK N   1      53.168  52.993  53.287  0.00  0.00     0.217 HD
ENDBRANCH  10  36
TORSDOF 9
ENDMDL
MODEL 8
REMARK VINA RESULT:      -6.0     15.157     16.861
REMARK  9 active torsions:
REMARK  status: ('A' for Active; 'I' for Inactive)
REMARK    1  A    between atoms: C_3  and  O_4 
REMARK    2  A    between atoms: O_4  and  C_5 
REMARK    3  A    between atoms: C_8  and  O_9 
REMARK    4  A    between atoms: C_11  and  O_12 
REMARK    5  A    between atoms: C_14  and  O_15 
REMARK    6  A    between atoms: C_18  and  C_30 
REMARK    7  A    between atoms: C_22  and  O_23 
REMARK    8  A    between atoms: C_26  and  O_28 
REMARK    9  A    between atoms: C_33  and  O_34 
ROOT
HETATM    1  O   UNK N   1      49.986  51.196  59.376  0.00  0.00    -0.284 OA
HETATM    2  C   UNK N   1      50.797  51.122  58.474  0.00  0.00     0.223 A 
HETATM    3  C   UNK N   1      51.132  52.266  57.701  0.00  0.00     0.157 A 
HETATM    4  C   UNK N   1      52.105  52.116  56.684  0.00  0.00     0.124 A 
HETATM    5  O   UNK N   1      52.670  50.930  56.469  0.00  0.00    -0.306 OA
HETATM    6  C   UNK N   1      52.357  49.835  57.147  0.00  0.00     0.096 A 
HETATM    7  C   UNK N   1      51.413  49.885  58.191  0.00  0.00     0.084 A 
HETATM    8  C   UNK N   1      51.113  48.698  58.913  0.00  0.00     0.085 A 
HETATM    9  C   UNK N   1      51.734  47.492  58.554  0.00  0.00     0.074 A 
HETATM   10  C   UNK N   1      52.643  47.449  57.496  0.00  0.00     0.071 A 
HETATM   11  C   UNK N   1      52.961  48.622  56.801  0.00  0.00     0.075 A 
ENDROOT
BRANCH   3  12
HETATM   12  O   UNK N   1      50.586  53.504  57.927  0.00  0.00    -0.311 OA
BRANCH  12  13
HETATM   13  C   UNK N   1      49.391  53.986  57.415  0.00  0.00     0.298 C 
HETATM   14  O   UNK N   1      49.661  54.833  56.288  0.00  0.00    -0.351 OA
HETATM   15  C   UNK N   1      49.620  56.197  56.645  0.00  0.00     0.152 C 
HETATM   16  C   UNK N   1      48.161  56.609  57.000  0.00  0.00     0.178 C 
HETATM   17  C   UNK N   1      50.257  57.063  55.561  0.00  0.00     0.042 C 
HETATM   18  C   UNK N   1      47.446  55.476  57.789  0.00  0.00     0.183 C 
HETATM   19  C   UNK N   1      48.487  54.619  58.531  0.00  0.00     0.205 C 
BRANCH  16  20
HETATM   20  O   UNK N   1      47.398  56.951  55.869  0.00  0.00    -0.390 OA
HETATM   21  H   UNK N   1      47.588  56.275  55.166  0.00  0.00     0.210 HD
ENDBRANCH  16  20
BRANCH  18  22
HETATM   22  O   UNK N   1      46.483  56.000  58.664  0.00  0.00    -0.390 OA
HETATM   23  H   UNK N   1      45.984  55.223  59.030  0.00  0.00     0.210 HD
ENDBRANCH  18  22
BRANCH  19  24
HETATM   24  O   UNK N   1      49.233  55.405  59.426  0.00  0.00    -0.388 OA
HETATM   25  H   UNK N   1      49.188  54.952  60.308  0.00  0.00     0.210 HD
ENDBRANCH  19  24
ENDBRANCH  12  13
ENDBRANCH   3  12
BRANCH   4  26
HETATM   26  C   UNK N   1      52.501  53.224  55.780  0.00  0.00     0.001 A 
HETATM   27  C   UNK N   1      53.296  54.294  56.233  0.00  0.00     0.017 A 
HETATM   28  C   UNK N   1      53.595  55.362  55.381  0.00  0.00     0.037 A 
HETATM   29  C   UNK N   1      53.123  55.364  54.060  0.00  0.00     0.065 A 
HETATM   30  C   UNK N   1      52.344  54.298  53.602  0.00  0.00     0.037 A 
HETATM   31  C   UNK N   1      52.018  53.244  54.460  0.00  0.00     0.017 A 
BRANCH  29  32
HETATM   32  O   UNK N   1      53.403  56.389  53.230  0.00  0.00    -0.361 OA
HETATM   33  H   UNK N   1      54.095  57.035  53.434  0.00  0.00     0.217 HD
ENDBRANCH  29  32
ENDBRANCH   4  26
BRANCH   8  34
HETATM   34  O   UNK N   1      50.234  48.715  59.939  0.00  0.00    -0.360 OA
HETATM   35  H   UNK N   1      49.646  47.969  60.122  0.00  0.00     0.217 HD
ENDBRANCH   8  34
BRANCH  10  36
HETATM   36  O   UNK N   1      53.205  46.273  57.153  0.00  0.00    -0.361 OA
HETATM   37  H   UNK N   1      52.694  45.569  56.727  0.00  0.00     0.217 HD
ENDBRANCH  10  36
TORSDOF 9
ENDMDL
MODEL 9
REMARK VINA RESULT:      -6.0     14.174     16.212
REMARK  9 active torsions:
REMARK  status: ('A' for Active; 'I' for Inactive)
REMARK    1  A    between atoms: C_3  and  O_4 
REMARK    2  A    between atoms: O_4  and  C_5 
REMARK    3  A    between atoms: C_8  and  O_9 
REMARK    4  A    between atoms: C_11  and  O_12 
REMARK    5  A    between atoms: C_14  and  O_15 
REMARK    6  A    between atoms: C_18  and  C_30 
REMARK    7  A    between atoms: C_22  and  O_23 
REMARK    8  A    between atoms: C_26  and  O_28 
REMARK    9  A    between atoms: C_33  and  O_34 
ROOT
HETATM    1  O   UNK N   1      26.811  45.779  57.764  0.00  0.00    -0.284 OA
HETATM    2  C   UNK N   1      27.993  46.021  57.910  0.00  0.00     0.223 A 
HETATM    3  C   UNK N   1      28.906  44.998  58.282  0.00  0.00     0.157 A 
HETATM    4  C   UNK N   1      30.273  45.343  58.407  0.00  0.00     0.124 A 
HETATM    5  O   UNK N   1      30.669  46.595  58.187  0.00  0.00    -0.306 OA
HETATM    6  C   UNK N   1      29.841  47.581  57.872  0.00  0.00     0.096 A 
HETATM    7  C   UNK N   1      28.464  47.335  57.707  0.00  0.00     0.084 A 
HETATM    8  C   UNK N   1      27.606  48.409  57.350  0.00  0.00     0.085 A 
HETATM    9  C   UNK N   1      28.134  49.700  57.202  0.00  0.00     0.074 A 
HETATM   10  C   UNK N   1      29.495  49.938  57.401  0.00  0.00     0.071 A 
HETATM   11  C   UNK N   1      30.348  48.876  57.725  0.00  0.00     0.075 A 
ENDROOT
BRANCH   3  12
HETATM   12  O   UNK N   1      28.524  43.695  58.481  0.00  0.00    -0.311 OA
BRANCH  12  13
HETATM   13  C   UNK N   1      28.216  42.765  57.501  0.00  0.00     0.298 C 
HETATM   14  O   UNK N   1      26.883  42.274  57.707  0.00  0.00    -0.351 OA
HETATM   15  C   UNK N   1      26.889  41.023  58.359  0.00  0.00     0.152 C 
HETATM   16  C   UNK N   1      27.477  39.934  57.413  0.00  0.00     0.178 C 
HETATM   17  C   UNK N   1      25.501  40.685  58.898  0.00  0.00     0.042 C 
HETATM   18  C   UNK N   1      28.674  40.502  56.598  0.00  0.00     0.183 C 
HETATM   19  C   UNK N   1      29.327  41.663  57.368  0.00  0.00     0.205 C 
BRANCH  16  20
HETATM   20  O   UNK N   1      26.519  39.398  56.533  0.00  0.00    -0.390 OA
HETATM   21  H   UNK N   1      26.978  39.212  55.672  0.00  0.00     0.210 HD
ENDBRANCH  16  20
BRANCH  18  22
HETATM   22  O   UNK N   1      29.599  39.493  56.291  0.00  0.00    -0.390 OA
HETATM   23  H   UNK N   1      29.353  38.708  56.847  0.00  0.00     0.210 HD
ENDBRANCH  18  22
BRANCH  19  24
HETATM   24  O   UNK N   1      29.786  41.231  58.625  0.00  0.00    -0.388 OA
HETATM   25  H   UNK N   1      29.082  41.467  59.282  0.00  0.00     0.210 HD
ENDBRANCH  19  24
ENDBRANCH  12  13
ENDBRANCH   3  12
BRANCH   4  26
HETATM   26  C   UNK N   1      31.311  44.374  58.837  0.00  0.00     0.001 A 
HETATM   27  C   UNK N   1      31.485  44.036  60.192  0.00  0.00     0.017 A 
HETATM   28  C   UNK N   1      32.518  43.175  60.578  0.00  0.00     0.037 A 
HETATM   29  C   UNK N   1      33.375  42.625  59.614  0.00  0.00     0.065 A 
HETATM   30  C   UNK N   1      33.199  42.948  58.266  0.00  0.00     0.037 A 
HETATM   31  C   UNK N   1      32.186  43.832  57.881  0.00  0.00     0.017 A 
BRANCH  29  32
HETATM   32  O   UNK N   1      34.376  41.796  59.975  0.00  0.00    -0.361 OA
HETATM   33  H   UNK N   1      34.210  40.985  60.476  0.00  0.00     0.217 HD
ENDBRANCH  29  32
ENDBRANCH   4  26
BRANCH   8  34
HETATM   34  O   UNK N   1      26.285  48.205  57.155  0.00  0.00    -0.360 OA
HETATM   35  H   UNK N   1      25.914  47.318  57.044  0.00  0.00     0.217 HD
ENDBRANCH   8  34
BRANCH  10  36
HETATM   36  O   UNK N   1      29.974  51.192  57.279  0.00  0.00    -0.361 OA
HETATM   37  H   UNK N   1      29.824  51.863  57.962  0.00  0.00     0.217 HD
ENDBRANCH  10  36
TORSDOF 9
ENDMDL
