MODEL 1
REMARK VINA RESULT:      -8.1      0.000      0.000
REMARK  7 active torsions:
REMARK  status: ('A' for Active; 'I' for Inactive)
REMARK    1  A    between atoms: O_1  and  C_2 
REMARK    2  A    between atoms: C_2  and  C_3 
REMARK    3  A    between atoms: C_4  and  C_5 
REMARK    4  A    between atoms: C_5  and  C_6 
REMARK    5  A    between atoms: C_6  and  C_7 
REMARK    6  A    between atoms: C_10  and  C_11 
REMARK    7  A    between atoms: C_11  and  O_12 
ROOT
HETATM    1  C   UNK N   1      40.808  47.769  46.917  0.00  0.00     0.022 C 
HETATM    2  C   UNK N   1      40.574  46.235  47.258  0.00  0.00    -0.032 C 
HETATM    3  C   UNK N   1      40.883  46.045  48.813  0.00  0.00     0.005 C 
HETATM    4  C   UNK N   1      40.461  44.652  49.452  0.00  0.00    -0.018 C 
HETATM    5  C   UNK N   1      38.988  44.350  49.049  0.00  0.00     0.012 C 
HETATM    6  C   UNK N   1      38.744  44.433  47.539  0.00  0.00     0.002 C 
HETATM    7  C   UNK N   1      39.085  45.841  47.019  0.00  0.00     0.010 C 
HETATM    8  C   UNK N   1      41.379  43.460  49.067  0.00  0.00     0.018 C 
HETATM    9  C   UNK N   1      42.340  46.477  49.157  0.00  0.00     0.010 C 
HETATM   10  C   UNK N   1      42.604  47.928  48.748  0.00  0.00     0.034 C 
HETATM   11  C   UNK N   1      42.256  48.105  47.297  0.00  0.00    -0.084 C 
HETATM   12  C   UNK N   1      43.207  48.485  46.425  0.00  0.00     0.014 C 
HETATM   13  C   UNK N   1      41.478  45.383  46.308  0.00  0.00     0.016 C 
ENDROOT
BRANCH   1  14
HETATM   14  C   UNK N   1      40.371  48.192  45.480  0.00  0.00     0.014 C 
BRANCH  14  15
HETATM   15  C   UNK N   1      39.291  49.294  45.446  0.00  0.00     0.034 C 
BRANCH  15  16
HETATM   16  C   UNK N   1      39.361  50.103  44.153  0.00  0.00    -0.086 C 
HETATM   17  C   UNK N   1      38.552  49.895  43.084  0.00  0.00     0.001 C 
HETATM   18  C   UNK N   1      40.381  51.222  44.074  0.00  0.00     0.043 C 
BRANCH  17  19
HETATM   19  C   UNK N   1      37.461  48.855  42.966  0.00  0.00     0.191 C 
BRANCH  19  20
HETATM   20  O   UNK N   1      36.211  49.486  42.946  0.00  0.00    -0.397 OA
HETATM   21  H   UNK N   1      36.289  50.248  42.314  0.00  0.00     0.209 HD
ENDBRANCH  19  20
ENDBRANCH  17  19
ENDBRANCH  15  16
ENDBRANCH  14  15
ENDBRANCH   1  14
BRANCH   4  22
HETATM   22  C   UNK N   1      40.511  44.725  51.012  0.00  0.00     0.173 C 
BRANCH  22  23
HETATM   23  O   UNK N   1      39.818  43.653  51.594  0.00  0.00    -0.400 OA
HETATM   24  H   UNK N   1      38.852  43.830  51.445  0.00  0.00     0.209 HD
ENDBRANCH  22  23
ENDBRANCH   4  22
TORSDOF 7
ENDMDL
MODEL 2
REMARK VINA RESULT:      -6.6      1.648      1.981
REMARK  7 active torsions:
REMARK  status: ('A' for Active; 'I' for Inactive)
REMARK    1  A    between atoms: O_1  and  C_2 
REMARK    2  A    between atoms: C_2  and  C_3 
REMARK    3  A    between atoms: C_4  and  C_5 
REMARK    4  A    between atoms: C_5  and  C_6 
REMARK    5  A    between atoms: C_6  and  C_7 
REMARK    6  A    between atoms: C_10  and  C_11 
REMARK    7  A    between atoms: C_11  and  O_12 
ROOT
HETATM    1  C   UNK N   1      40.879  47.470  47.105  0.00  0.00     0.022 C 
HETATM    2  C   UNK N   1      40.770  45.958  47.576  0.00  0.00    -0.032 C 
HETATM    3  C   UNK N   1      41.055  45.930  49.147  0.00  0.00     0.005 C 
HETATM    4  C   UNK N   1      40.740  44.565  49.898  0.00  0.00    -0.018 C 
HETATM    5  C   UNK N   1      39.308  44.102  49.499  0.00  0.00     0.012 C 
HETATM    6  C   UNK N   1      39.096  44.032  47.982  0.00  0.00     0.002 C 
HETATM    7  C   UNK N   1      39.327  45.415  47.347  0.00  0.00     0.010 C 
HETATM    8  C   UNK N   1      41.766  43.430  49.636  0.00  0.00     0.018 C 
HETATM    9  C   UNK N   1      42.461  46.516  49.476  0.00  0.00     0.010 C 
HETATM   10  C   UNK N   1      42.610  47.945  48.945  0.00  0.00     0.034 C 
HETATM   11  C   UNK N   1      42.283  47.964  47.478  0.00  0.00    -0.084 C 
HETATM   12  C   UNK N   1      43.220  48.350  46.593  0.00  0.00     0.014 C 
HETATM   13  C   UNK N   1      41.767  45.109  46.720  0.00  0.00     0.016 C 
ENDROOT
BRANCH   1  14
HETATM   14  C   UNK N   1      40.444  47.728  45.629  0.00  0.00     0.014 C 
BRANCH  14  15
HETATM   15  C   UNK N   1      39.095  48.466  45.487  0.00  0.00     0.034 C 
BRANCH  15  16
HETATM   16  C   UNK N   1      39.295  49.977  45.394  0.00  0.00    -0.086 C 
HETATM   17  C   UNK N   1      38.954  50.850  46.376  0.00  0.00     0.001 C 
HETATM   18  C   UNK N   1      39.939  50.528  44.137  0.00  0.00     0.043 C 
BRANCH  17  19
HETATM   19  C   UNK N   1      38.327  50.508  47.709  0.00  0.00     0.191 C 
BRANCH  19  20
HETATM   20  O   UNK N   1      38.208  51.669  48.483  0.00  0.00    -0.397 OA
HETATM   21  H   UNK N   1      37.423  52.164  48.130  0.00  0.00     0.209 HD
ENDBRANCH  19  20
ENDBRANCH  17  19
ENDBRANCH  15  16
ENDBRANCH  14  15
ENDBRANCH   1  14
BRANCH   4  22
HETATM   22  C   UNK N   1      40.745  44.777  51.446  0.00  0.00     0.173 C 
BRANCH  22  23
HETATM   23  O   UNK N   1      41.323  43.683  52.108  0.00  0.00    -0.400 OA
HETATM   24  H   UNK N   1      40.969  42.869  51.662  0.00  0.00     0.209 HD
ENDBRANCH  22  23
ENDBRANCH   4  22
TORSDOF 7
ENDMDL
MODEL 3
REMARK VINA RESULT:      -5.8     10.335     15.512
REMARK  7 active torsions:
REMARK  status: ('A' for Active; 'I' for Inactive)
REMARK    1  A    between atoms: O_1  and  C_2 
REMARK    2  A    between atoms: C_2  and  C_3 
REMARK    3  A    between atoms: C_4  and  C_5 
REMARK    4  A    between atoms: C_5  and  C_6 
REMARK    5  A    between atoms: C_6  and  C_7 
REMARK    6  A    between atoms: C_10  and  C_11 
REMARK    7  A    between atoms: C_11  and  O_12 
ROOT
HETATM    1  C   UNK N   1      29.946  54.018  41.825  0.00  0.00     0.022 C 
HETATM    2  C   UNK N   1      29.370  55.310  41.102  0.00  0.00    -0.032 C 
HETATM    3  C   UNK N   1      27.885  54.964  40.629  0.00  0.00     0.005 C 
HETATM    4  C   UNK N   1      27.004  56.184  40.118  0.00  0.00    -0.018 C 
HETATM    5  C   UNK N   1      27.091  57.329  41.169  0.00  0.00     0.012 C 
HETATM    6  C   UNK N   1      28.531  57.717  41.524  0.00  0.00     0.002 C 
HETATM    7  C   UNK N   1      29.283  56.504  42.100  0.00  0.00     0.010 C 
HETATM    8  C   UNK N   1      27.388  56.715  38.710  0.00  0.00     0.018 C 
HETATM    9  C   UNK N   1      27.869  53.735  39.671  0.00  0.00     0.010 C 
HETATM   10  C   UNK N   1      28.506  52.506  40.327  0.00  0.00     0.034 C 
HETATM   11  C   UNK N   1      29.881  52.864  40.817  0.00  0.00    -0.084 C 
HETATM   12  C   UNK N   1      30.952  52.214  40.327  0.00  0.00     0.014 C 
HETATM   13  C   UNK N   1      30.348  55.695  39.943  0.00  0.00     0.016 C 
ENDROOT
BRANCH   1  14
HETATM   14  C   UNK N   1      31.324  54.223  42.529  0.00  0.00     0.014 C 
BRANCH  14  15
HETATM   15  C   UNK N   1      31.361  53.748  43.997  0.00  0.00     0.034 C 
BRANCH  15  16
HETATM   16  C   UNK N   1      32.774  53.353  44.419  0.00  0.00    -0.086 C 
HETATM   17  C   UNK N   1      33.680  54.218  44.941  0.00  0.00     0.001 C 
HETATM   18  C   UNK N   1      33.176  51.899  44.269  0.00  0.00     0.043 C 
BRANCH  17  19
HETATM   19  C   UNK N   1      33.475  55.695  45.195  0.00  0.00     0.191 C 
BRANCH  19  20
HETATM   20  O   UNK N   1      34.717  56.335  45.271  0.00  0.00    -0.397 OA
HETATM   21  H   UNK N   1      35.406  55.623  45.202  0.00  0.00     0.209 HD
ENDBRANCH  19  20
ENDBRANCH  17  19
ENDBRANCH  15  16
ENDBRANCH  14  15
ENDBRANCH   1  14
BRANCH   4  22
HETATM   22  C   UNK N   1      25.502  55.769  40.007  0.00  0.00     0.173 C 
BRANCH  22  23
HETATM   23  O   UNK N   1      25.043  55.196  41.202  0.00  0.00    -0.400 OA
HETATM   24  H   UNK N   1      24.056  55.306  41.204  0.00  0.00     0.209 HD
ENDBRANCH  22  23
ENDBRANCH   4  22
TORSDOF 7
ENDMDL
MODEL 4
REMARK VINA RESULT:      -5.6     14.579     17.296
REMARK  7 active torsions:
REMARK  status: ('A' for Active; 'I' for Inactive)
REMARK    1  A    between atoms: O_1  and  C_2 
REMARK    2  A    between atoms: C_2  and  C_3 
REMARK    3  A    between atoms: C_4  and  C_5 
REMARK    4  A    between atoms: C_5  and  C_6 
REMARK    5  A    between atoms: C_6  and  C_7 
REMARK    6  A    between atoms: C_10  and  C_11 
REMARK    7  A    between atoms: C_11  and  O_12 
ROOT
HETATM    1  C   UNK N   1      35.507  45.831  62.459  0.00  0.00     0.022 C 
HETATM    2  C   UNK N   1      34.921  46.807  63.566  0.00  0.00    -0.032 C 
HETATM    3  C   UNK N   1      35.218  48.300  63.085  0.00  0.00     0.005 C 
HETATM    4  C   UNK N   1      34.492  49.461  63.893  0.00  0.00    -0.018 C 
HETATM    5  C   UNK N   1      32.979  49.112  64.003  0.00  0.00     0.012 C 
HETATM    6  C   UNK N   1      32.721  47.713  64.572  0.00  0.00     0.002 C 
HETATM    7  C   UNK N   1      33.375  46.644  63.678  0.00  0.00     0.010 C 
HETATM    8  C   UNK N   1      35.085  49.738  65.301  0.00  0.00     0.018 C 
HETATM    9  C   UNK N   1      36.746  48.536  62.885  0.00  0.00     0.010 C 
HETATM   10  C   UNK N   1      37.340  47.539  61.886  0.00  0.00     0.034 C 
HETATM   11  C   UNK N   1      37.003  46.141  62.323  0.00  0.00    -0.084 C 
HETATM   12  C   UNK N   1      37.993  45.278  62.612  0.00  0.00     0.014 C 
HETATM   13  C   UNK N   1      35.566  46.427  64.939  0.00  0.00     0.016 C 
ENDROOT
BRANCH   1  14
HETATM   14  C   UNK N   1      35.145  44.326  62.657  0.00  0.00     0.014 C 
BRANCH  14  15
HETATM   15  C   UNK N   1      34.849  43.569  61.344  0.00  0.00     0.034 C 
BRANCH  15  16
HETATM   16  C   UNK N   1      33.361  43.256  61.206  0.00  0.00    -0.086 C 
HETATM   17  C   UNK N   1      32.765  42.904  60.038  0.00  0.00     0.001 C 
HETATM   18  C   UNK N   1      32.506  43.318  62.456  0.00  0.00     0.043 C 
BRANCH  17  19
HETATM   19  C   UNK N   1      33.435  42.761  58.690  0.00  0.00     0.191 C 
BRANCH  19  20
HETATM   20  O   UNK N   1      32.739  43.514  57.738  0.00  0.00    -0.397 OA
HETATM   21  H   UNK N   1      32.335  44.280  58.224  0.00  0.00     0.209 HD
ENDBRANCH  19  20
ENDBRANCH  17  19
ENDBRANCH  15  16
ENDBRANCH  14  15
ENDBRANCH   1  14
BRANCH   4  22
HETATM   22  C   UNK N   1      34.602  50.817  63.124  0.00  0.00     0.173 C 
BRANCH  22  23
HETATM   23  O   UNK N   1      33.337  51.387  62.915  0.00  0.00    -0.400 OA
HETATM   24  H   UNK N   1      33.331  51.716  61.978  0.00  0.00     0.209 HD
ENDBRANCH  22  23
ENDBRANCH   4  22
TORSDOF 7
ENDMDL
MODEL 5
REMARK VINA RESULT:      -5.5     10.101     15.304
REMARK  7 active torsions:
REMARK  status: ('A' for Active; 'I' for Inactive)
REMARK    1  A    between atoms: O_1  and  C_2 
REMARK    2  A    between atoms: C_2  and  C_3 
REMARK    3  A    between atoms: C_4  and  C_5 
REMARK    4  A    between atoms: C_5  and  C_6 
REMARK    5  A    between atoms: C_6  and  C_7 
REMARK    6  A    between atoms: C_10  and  C_11 
REMARK    7  A    between atoms: C_11  and  O_12 
ROOT
HETATM    1  C   UNK N   1      30.020  53.925  41.836  0.00  0.00     0.022 C 
HETATM    2  C   UNK N   1      29.441  55.219  41.119  0.00  0.00    -0.032 C 
HETATM    3  C   UNK N   1      27.968  54.862  40.617  0.00  0.00     0.005 C 
HETATM    4  C   UNK N   1      27.081  56.078  40.107  0.00  0.00    -0.018 C 
HETATM    5  C   UNK N   1      27.138  57.211  41.173  0.00  0.00     0.012 C 
HETATM    6  C   UNK N   1      28.567  57.610  41.557  0.00  0.00     0.002 C 
HETATM    7  C   UNK N   1      29.324  56.399  42.131  0.00  0.00     0.010 C 
HETATM    8  C   UNK N   1      27.482  56.631  38.713  0.00  0.00     0.018 C 
HETATM    9  C   UNK N   1      27.982  53.645  39.643  0.00  0.00     0.010 C 
HETATM   10  C   UNK N   1      28.622  52.415  40.294  0.00  0.00     0.034 C 
HETATM   11  C   UNK N   1      29.984  52.782  40.812  0.00  0.00    -0.084 C 
HETATM   12  C   UNK N   1      31.071  52.151  40.332  0.00  0.00     0.014 C 
HETATM   13  C   UNK N   1      30.433  55.629  39.982  0.00  0.00     0.016 C 
ENDROOT
BRANCH   1  14
HETATM   14  C   UNK N   1      31.383  54.136  42.564  0.00  0.00     0.014 C 
BRANCH  14  15
HETATM   15  C   UNK N   1      31.353  53.800  44.071  0.00  0.00     0.034 C 
BRANCH  15  16
HETATM   16  C   UNK N   1      32.764  53.654  44.636  0.00  0.00    -0.086 C 
HETATM   17  C   UNK N   1      33.437  52.477  44.703  0.00  0.00     0.001 C 
HETATM   18  C   UNK N   1      33.462  54.907  45.127  0.00  0.00     0.043 C 
BRANCH  17  19
HETATM   19  C   UNK N   1      32.936  51.124  44.248  0.00  0.00     0.191 C 
BRANCH  19  20
HETATM   20  O   UNK N   1      33.310  50.909  42.916  0.00  0.00    -0.397 OA
HETATM   21  H   UNK N   1      33.885  51.676  42.657  0.00  0.00     0.209 HD
ENDBRANCH  19  20
ENDBRANCH  17  19
ENDBRANCH  15  16
ENDBRANCH  14  15
ENDBRANCH   1  14
BRANCH   4  22
HETATM   22  C   UNK N   1      25.586  55.648  39.966  0.00  0.00     0.173 C 
BRANCH  22  23
HETATM   23  O   UNK N   1      25.112  55.060  41.148  0.00  0.00    -0.400 OA
HETATM   24  H   UNK N   1      24.677  55.788  41.666  0.00  0.00     0.209 HD
ENDBRANCH  22  23
ENDBRANCH   4  22
TORSDOF 7
ENDMDL
MODEL 6
REMARK VINA RESULT:      -5.4     11.505     15.650
REMARK  7 active torsions:
REMARK  status: ('A' for Active; 'I' for Inactive)
REMARK    1  A    between atoms: O_1  and  C_2 
REMARK    2  A    between atoms: C_2  and  C_3 
REMARK    3  A    between atoms: C_4  and  C_5 
REMARK    4  A    between atoms: C_5  and  C_6 
REMARK    5  A    between atoms: C_6  and  C_7 
REMARK    6  A    between atoms: C_10  and  C_11 
REMARK    7  A    between atoms: C_11  and  O_12 
ROOT
HETATM    1  C   UNK N   1      29.930  55.620  41.418  0.00  0.00     0.022 C 
HETATM    2  C   UNK N   1      29.041  54.539  40.667  0.00  0.00    -0.032 C 
HETATM    3  C   UNK N   1      28.965  54.974  39.133  0.00  0.00     0.005 C 
HETATM    4  C   UNK N   1      28.355  53.906  38.125  0.00  0.00    -0.018 C 
HETATM    5  C   UNK N   1      29.057  52.539  38.371  0.00  0.00     0.012 C 
HETATM    6  C   UNK N   1      29.019  52.093  39.836  0.00  0.00     0.002 C 
HETATM    7  C   UNK N   1      29.716  53.135  40.729  0.00  0.00     0.010 C 
HETATM    8  C   UNK N   1      26.813  53.742  38.212  0.00  0.00     0.018 C 
HETATM    9  C   UNK N   1      28.357  56.400  38.978  0.00  0.00     0.010 C 
HETATM   10  C   UNK N   1      29.155  57.437  39.774  0.00  0.00     0.034 C 
HETATM   11  C   UNK N   1      29.265  56.986  41.203  0.00  0.00    -0.084 C 
HETATM   12  C   UNK N   1      28.750  57.749  42.183  0.00  0.00     0.014 C 
HETATM   13  C   UNK N   1      27.656  54.463  41.389  0.00  0.00     0.016 C 
ENDROOT
BRANCH   1  14
HETATM   14  C   UNK N   1      30.280  55.265  42.897  0.00  0.00     0.014 C 
BRANCH  14  15
HETATM   15  C   UNK N   1      31.794  55.205  43.191  0.00  0.00     0.034 C 
BRANCH  15  16
HETATM   16  C   UNK N   1      32.065  54.755  44.625  0.00  0.00    -0.086 C 
HETATM   17  C   UNK N   1      33.173  55.096  45.331  0.00  0.00     0.001 C 
HETATM   18  C   UNK N   1      31.015  53.900  45.307  0.00  0.00     0.043 C 
BRANCH  17  19
HETATM   19  C   UNK N   1      34.320  55.955  44.850  0.00  0.00     0.191 C 
BRANCH  19  20
HETATM   20  O   UNK N   1      34.260  57.208  45.471  0.00  0.00    -0.397 OA
HETATM   21  H   UNK N   1      33.425  57.641  45.154  0.00  0.00     0.209 HD
ENDBRANCH  19  20
ENDBRANCH  17  19
ENDBRANCH  15  16
ENDBRANCH  14  15
ENDBRANCH   1  14
BRANCH   4  22
HETATM   22  C   UNK N   1      28.643  54.318  36.646  0.00  0.00     0.173 C 
BRANCH  22  23
HETATM   23  O   UNK N   1      30.018  54.489  36.425  0.00  0.00    -0.400 OA
HETATM   24  H   UNK N   1      30.222  55.434  36.653  0.00  0.00     0.209 HD
ENDBRANCH  22  23
ENDBRANCH   4  22
TORSDOF 7
ENDMDL
MODEL 7
REMARK VINA RESULT:      -5.3     10.444     15.654
REMARK  7 active torsions:
REMARK  status: ('A' for Active; 'I' for Inactive)
REMARK    1  A    between atoms: O_1  and  C_2 
REMARK    2  A    between atoms: C_2  and  C_3 
REMARK    3  A    between atoms: C_4  and  C_5 
REMARK    4  A    between atoms: C_5  and  C_6 
REMARK    5  A    between atoms: C_6  and  C_7 
REMARK    6  A    between atoms: C_10  and  C_11 
REMARK    7  A    between atoms: C_11  and  O_12 
ROOT
HETATM    1  C   UNK N   1      30.385  53.464  40.172  0.00  0.00     0.022 C 
HETATM    2  C   UNK N   1      29.112  53.921  39.340  0.00  0.00    -0.032 C 
HETATM    3  C   UNK N   1      29.480  55.305  38.634  0.00  0.00     0.005 C 
HETATM    4  C   UNK N   1      28.462  55.828  37.531  0.00  0.00    -0.018 C 
HETATM    5  C   UNK N   1      28.164  54.662  36.542  0.00  0.00     0.012 C 
HETATM    6  C   UNK N   1      27.707  53.378  37.241  0.00  0.00     0.002 C 
HETATM    7  C   UNK N   1      28.790  52.888  38.218  0.00  0.00     0.010 C 
HETATM    8  C   UNK N   1      27.136  56.405  38.096  0.00  0.00     0.018 C 
HETATM    9  C   UNK N   1      29.878  56.387  39.683  0.00  0.00     0.010 C 
HETATM   10  C   UNK N   1      31.048  55.919  40.552  0.00  0.00     0.034 C 
HETATM   11  C   UNK N   1      30.708  54.589  41.165  0.00  0.00    -0.084 C 
HETATM   12  C   UNK N   1      30.656  54.467  42.503  0.00  0.00     0.014 C 
HETATM   13  C   UNK N   1      27.893  53.996  40.318  0.00  0.00     0.016 C 
ENDROOT
BRANCH   1  14
HETATM   14  C   UNK N   1      30.287  52.032  40.783  0.00  0.00     0.014 C 
BRANCH  14  15
HETATM   15  C   UNK N   1      31.577  51.195  40.641  0.00  0.00     0.034 C 
BRANCH  15  16
HETATM   16  C   UNK N   1      31.773  50.268  41.838  0.00  0.00    -0.086 C 
HETATM   17  C   UNK N   1      31.400  48.963  41.856  0.00  0.00     0.001 C 
HETATM   18  C   UNK N   1      32.450  50.837  43.069  0.00  0.00     0.043 C 
BRANCH  17  19
HETATM   19  C   UNK N   1      30.737  48.197  40.733  0.00  0.00     0.191 C 
BRANCH  19  20
HETATM   20  O   UNK N   1      29.376  48.519  40.686  0.00  0.00    -0.397 OA
HETATM   21  H   UNK N   1      29.029  48.414  41.610  0.00  0.00     0.209 HD
ENDBRANCH  19  20
ENDBRANCH  17  19
ENDBRANCH  15  16
ENDBRANCH  14  15
ENDBRANCH   1  14
BRANCH   4  22
HETATM   22  C   UNK N   1      29.098  56.989  36.702  0.00  0.00     0.173 C 
BRANCH  22  23
HETATM   23  O   UNK N   1      30.424  56.696  36.350  0.00  0.00    -0.400 OA
HETATM   24  H   UNK N   1      30.540  55.719  36.488  0.00  0.00     0.209 HD
ENDBRANCH  22  23
ENDBRANCH   4  22
TORSDOF 7
ENDMDL
MODEL 8
REMARK VINA RESULT:      -5.3     10.522     15.623
REMARK  7 active torsions:
REMARK  status: ('A' for Active; 'I' for Inactive)
REMARK    1  A    between atoms: O_1  and  C_2 
REMARK    2  A    between atoms: C_2  and  C_3 
REMARK    3  A    between atoms: C_4  and  C_5 
REMARK    4  A    between atoms: C_5  and  C_6 
REMARK    5  A    between atoms: C_6  and  C_7 
REMARK    6  A    between atoms: C_10  and  C_11 
REMARK    7  A    between atoms: C_11  and  O_12 
ROOT
HETATM    1  C   UNK N   1      29.875  52.488  39.455  0.00  0.00     0.022 C 
HETATM    2  C   UNK N   1      28.299  52.467  39.648  0.00  0.00    -0.032 C 
HETATM    3  C   UNK N   1      27.645  52.472  38.191  0.00  0.00     0.005 C 
HETATM    4  C   UNK N   1      26.083  52.184  38.117  0.00  0.00    -0.018 C 
HETATM    5  C   UNK N   1      25.778  50.906  38.953  0.00  0.00     0.012 C 
HETATM    6  C   UNK N   1      26.323  50.974  40.383  0.00  0.00     0.002 C 
HETATM    7  C   UNK N   1      27.851  51.157  40.363  0.00  0.00     0.010 C 
HETATM    8  C   UNK N   1      25.185  53.361  38.585  0.00  0.00     0.018 C 
HETATM    9  C   UNK N   1      28.091  53.723  37.375  0.00  0.00     0.010 C 
HETATM   10  C   UNK N   1      29.616  53.802  37.261  0.00  0.00     0.034 C 
HETATM   11  C   UNK N   1      30.219  53.740  38.636  0.00  0.00    -0.084 C 
HETATM   12  C   UNK N   1      30.959  54.768  39.086  0.00  0.00     0.014 C 
HETATM   13  C   UNK N   1      27.903  53.688  40.541  0.00  0.00     0.016 C 
ENDROOT
BRANCH   1  14
HETATM   14  C   UNK N   1      30.697  52.293  40.767  0.00  0.00     0.014 C 
BRANCH  14  15
HETATM   15  C   UNK N   1      31.796  51.213  40.671  0.00  0.00     0.034 C 
BRANCH  15  16
HETATM   16  C   UNK N   1      31.785  50.298  41.893  0.00  0.00    -0.086 C 
HETATM   17  C   UNK N   1      31.386  49.001  41.865  0.00  0.00     0.001 C 
HETATM   18  C   UNK N   1      32.275  50.869  43.209  0.00  0.00     0.043 C 
BRANCH  17  19
HETATM   19  C   UNK N   1      30.889  48.235  40.660  0.00  0.00     0.191 C 
BRANCH  19  20
HETATM   20  O   UNK N   1      29.491  48.295  40.610  0.00  0.00    -0.397 OA
HETATM   21  H   UNK N   1      29.159  47.842  41.429  0.00  0.00     0.209 HD
ENDBRANCH  19  20
ENDBRANCH  17  19
ENDBRANCH  15  16
ENDBRANCH  14  15
ENDBRANCH   1  14
BRANCH   4  22
HETATM   22  C   UNK N   1      25.648  51.892  36.645  0.00  0.00     0.173 C 
BRANCH  22  23
HETATM   23  O   UNK N   1      25.715  50.520  36.357  0.00  0.00    -0.400 OA
HETATM   24  H   UNK N   1      26.680  50.302  36.262  0.00  0.00     0.209 HD
ENDBRANCH  22  23
ENDBRANCH   4  22
TORSDOF 7
ENDMDL
MODEL 9
REMARK VINA RESULT:      -5.2     14.401     17.192
REMARK  7 active torsions:
REMARK  status: ('A' for Active; 'I' for Inactive)
REMARK    1  A    between atoms: O_1  and  C_2 
REMARK    2  A    between atoms: C_2  and  C_3 
REMARK    3  A    between atoms: C_4  and  C_5 
REMARK    4  A    between atoms: C_5  and  C_6 
REMARK    5  A    between atoms: C_6  and  C_7 
REMARK    6  A    between atoms: C_10  and  C_11 
REMARK    7  A    between atoms: C_11  and  O_12 
ROOT
HETATM    1  C   UNK N   1      33.077  44.707  62.629  0.00  0.00     0.022 C 
HETATM    2  C   UNK N   1      32.727  43.655  61.491  0.00  0.00    -0.032 C 
HETATM    3  C   UNK N   1      31.947  44.444  60.343  0.00  0.00     0.005 C 
HETATM    4  C   UNK N   1      31.725  43.665  58.975  0.00  0.00    -0.018 C 
HETATM    5  C   UNK N   1      33.088  43.061  58.526  0.00  0.00     0.012 C 
HETATM    6  C   UNK N   1      33.763  42.217  59.613  0.00  0.00     0.002 C 
HETATM    7  C   UNK N   1      34.029  43.072  60.864  0.00  0.00     0.010 C 
HETATM    8  C   UNK N   1      30.637  42.558  59.030  0.00  0.00     0.018 C 
HETATM    9  C   UNK N   1      30.655  45.118  60.897  0.00  0.00     0.010 C 
HETATM   10  C   UNK N   1      30.972  46.066  62.057  0.00  0.00     0.034 C 
HETATM   11  C   UNK N   1      31.754  45.323  63.103  0.00  0.00    -0.084 C 
HETATM   12  C   UNK N   1      31.252  45.196  64.344  0.00  0.00     0.014 C 
HETATM   13  C   UNK N   1      31.915  42.487  62.142  0.00  0.00     0.016 C 
ENDROOT
BRANCH   1  14
HETATM   14  C   UNK N   1      34.011  44.164  63.755  0.00  0.00     0.014 C 
BRANCH  14  15
HETATM   15  C   UNK N   1      34.934  45.231  64.381  0.00  0.00     0.034 C 
BRANCH  15  16
HETATM   16  C   UNK N   1      35.387  46.253  63.341  0.00  0.00    -0.086 C 
HETATM   17  C   UNK N   1      36.382  46.033  62.444  0.00  0.00     0.001 C 
HETATM   18  C   UNK N   1      34.661  47.583  63.293  0.00  0.00     0.043 C 
BRANCH  17  19
HETATM   19  C   UNK N   1      37.210  44.775  62.306  0.00  0.00     0.191 C 
BRANCH  19  20
HETATM   20  O   UNK N   1      38.570  45.104  62.332  0.00  0.00    -0.397 OA
HETATM   21  H   UNK N   1      38.967  44.603  63.093  0.00  0.00     0.209 HD
ENDBRANCH  19  20
ENDBRANCH  17  19
ENDBRANCH  15  16
ENDBRANCH  14  15
ENDBRANCH   1  14
BRANCH   4  22
HETATM   22  C   UNK N   1      31.259  44.646  57.853  0.00  0.00     0.173 C 
BRANCH  22  23
HETATM   23  O   UNK N   1      32.337  45.052  57.052  0.00  0.00    -0.400 OA
HETATM   24  H   UNK N   1      32.196  44.636  56.162  0.00  0.00     0.209 HD
ENDBRANCH  22  23
ENDBRANCH   4  22
TORSDOF 7
ENDMDL
